data_str_m3_o10_o16_pcu_sym.144
_audit_creation_date              2020-01-03
_audit_creation_method            'Materials Studio'
_symmetry_space_group_name_H-M    'P1'
_symmetry_Int_Tables_number       1
_symmetry_cell_setting            triclinic
loop_
_symmetry_equiv_pos_as_xyz
  x,y,z
_cell_length_a                    23.4812
_cell_length_b                    25.6383
_cell_length_c                    24.0424
_cell_angle_alpha                 92.0860
_cell_angle_beta                  100.9726
_cell_angle_gamma                 94.2339
loop_
_atom_site_label
_atom_site_type_symbol
_atom_site_fract_x
_atom_site_fract_y
_atom_site_fract_z
_atom_site_U_iso_or_equiv
_atom_site_adp_type
_atom_site_occupancy
C1     C     0.01498   0.26494   0.24890   0.00000  Uiso   1.00
C2     C     0.13142   0.16089   0.49575   0.00000  Uiso   1.00
C3     C     0.10173   0.14367   0.44112   0.00000  Uiso   1.00
C4     C     0.18838   0.14604   0.01373   0.00000  Uiso   1.00
C5     C     0.21057   0.10696   0.48231   0.00000  Uiso   1.00
C6     C     0.17557   0.08294   0.43306   0.00000  Uiso   1.00
C7     C     0.12223   0.10248   0.41179   0.00000  Uiso   1.00
C8     C     0.22433   0.17018   0.06169   0.00000  Uiso   1.00
C9     C     0.29915   0.11141   0.05434   0.00000  Uiso   1.00
C10    C     0.05270   0.16896   0.41668   0.00000  Uiso   1.00
C11    C     0.02297   0.31958   0.24893   0.00000  Uiso   1.00
C12    C     0.03527   0.16830   0.35537   0.00000  Uiso   1.00
C13    C     0.31086   0.01384   0.25273   0.00000  Uiso   1.00
C14    C     0.31852   0.06843   0.25165   0.00000  Uiso   1.00
C15    C     0.29749   0.16236   0.14459   0.00000  Uiso   1.00
C16    C     0.26687   0.09165   0.00174   0.00000  Uiso   1.00
C17    C     0.27660   0.15052   0.08443   0.00000  Uiso   1.00
C18    C     0.02570   0.20131   0.45031   0.00000  Uiso   1.00
C19    C     0.05002   0.21167   0.00727   0.00000  Uiso   1.00
C20    C     0.10321   0.19283   0.02977   0.00000  Uiso   1.00
H21    H     0.26803   0.32990   0.25621   0.00000  Uiso   1.00
H22    H     0.15673   0.12423   0.20899   0.00000  Uiso   1.00
H23    H     0.28503   0.06299   0.47742   0.00000  Uiso   1.00
H24    H     0.21120   0.20301   0.08424   0.00000  Uiso   1.00
H25    H     0.32036   0.22000   0.43213   0.00000  Uiso   1.00
H26    H     0.12053   0.20269   0.07408   0.00000  Uiso   1.00
H27    H     0.02892   0.23618   0.03346   0.00000  Uiso   1.00
H28    H     0.09672   0.08461   0.37253   0.00000  Uiso   1.00
H29    H     0.06586   0.00354   0.24571   0.00000  Uiso   1.00
N30    N     0.14493   0.15223   0.23542   0.00000  Uiso   1.00
N31    N     0.18840   0.18110   0.26457   0.00000  Uiso   1.00
O32    O     0.29769   0.24629   0.25357   0.00000  Uiso   1.00
O33    O     0.05742   0.23704   0.24423   0.00000  Uiso   1.00
O34    O     0.31490   0.17358   0.33380   0.00000  Uiso   1.00
O35    O     0.07463   0.16433   0.32446   0.00000  Uiso   1.00
O36    O     0.27592   0.09629   0.25576   0.00000  Uiso   1.00
O37    O     0.03565   0.08704   0.24643   0.00000  Uiso   1.00
O38    O     0.25870   0.16901   0.17554   0.00000  Uiso   1.00
O39    O     0.01843   0.15976   0.16620   0.00000  Uiso   1.00
Zn40   Zn    0.27119   0.17284   0.25623   0.00000  Uiso   1.00
Zn41   Zn    0.06214   0.16049   0.24376   0.00000  Uiso   1.00
O42    O     0.01980   0.09405   0.07552   0.00000  Uiso   1.00
C43    C     0.01264   0.04166   0.09095   0.00000  Uiso   1.00
H44    H     0.32733   0.01493   0.05334   0.00000  Uiso   1.00
H45    H     0.31731   0.03822   0.12287   0.00000  Uiso   1.00
C46    C     0.07177   0.02384   0.11703   0.00000  Uiso   1.00
H47    H     0.09143   0.04898   0.15544   0.00000  Uiso   1.00
H48    H     0.06672   0.31595   0.12920   0.00000  Uiso   1.00
H49    H     0.10119   0.02641   0.08593   0.00000  Uiso   1.00
F50    F     0.17363   0.21844   0.29797   0.00000  Uiso   1.00
O51    O     0.19535   0.04240   0.40419   0.00000  Uiso   1.00
C52    C     0.15970   0.32884   0.40517   0.00000  Uiso   1.00
H53    H     0.13025   0.32133   0.36317   0.00000  Uiso   1.00
H54    H     0.13240   0.32932   0.43853   0.00000  Uiso   1.00
C55    C     0.19820   0.28364   0.41626   0.00000  Uiso   1.00
H56    H     0.22593   0.28925   0.45930   0.00000  Uiso   1.00
H57    H     0.17076   0.24611   0.41366   0.00000  Uiso   1.00
H58    H     0.22669   0.28178   0.38442   0.00000  Uiso   1.00
C59    C     0.34832   0.26494   0.24890   0.00000  Uiso   1.00
C60    C     0.46475   0.16089   0.49575   0.00000  Uiso   1.00
C61    C     0.43507   0.14367   0.44112   0.00000  Uiso   1.00
C62    C     0.52171   0.14604   0.01373   0.00000  Uiso   1.00
C63    C     0.54390   0.10696   0.48231   0.00000  Uiso   1.00
C64    C     0.50890   0.08294   0.43306   0.00000  Uiso   1.00
C65    C     0.45557   0.10248   0.41179   0.00000  Uiso   1.00
C66    C     0.55766   0.17018   0.06169   0.00000  Uiso   1.00
C67    C     0.63248   0.11141   0.05434   0.00000  Uiso   1.00
C68    C     0.38604   0.16896   0.41668   0.00000  Uiso   1.00
C69    C     0.35630   0.31958   0.24893   0.00000  Uiso   1.00
C70    C     0.36860   0.16830   0.35537   0.00000  Uiso   1.00
C71    C     0.64419   0.01384   0.25273   0.00000  Uiso   1.00
C72    C     0.65185   0.06843   0.25165   0.00000  Uiso   1.00
C73    C     0.63083   0.16236   0.14459   0.00000  Uiso   1.00
C74    C     0.60020   0.09165   0.00174   0.00000  Uiso   1.00
C75    C     0.60993   0.15052   0.08443   0.00000  Uiso   1.00
C76    C     0.35903   0.20131   0.45031   0.00000  Uiso   1.00
C77    C     0.38335   0.21167   0.00727   0.00000  Uiso   1.00
C78    C     0.43654   0.19283   0.02977   0.00000  Uiso   1.00
H79    H     0.60137   0.32990   0.25621   0.00000  Uiso   1.00
H80    H     0.49006   0.12423   0.20899   0.00000  Uiso   1.00
H81    H     0.61836   0.06299   0.47742   0.00000  Uiso   1.00
H82    H     0.54453   0.20301   0.08424   0.00000  Uiso   1.00
H83    H     0.65369   0.22000   0.43213   0.00000  Uiso   1.00
H84    H     0.45386   0.20269   0.07408   0.00000  Uiso   1.00
H85    H     0.36226   0.23618   0.03346   0.00000  Uiso   1.00
H86    H     0.43006   0.08461   0.37253   0.00000  Uiso   1.00
H87    H     0.39919   0.00354   0.24571   0.00000  Uiso   1.00
N88    N     0.47827   0.15223   0.23542   0.00000  Uiso   1.00
N89    N     0.52173   0.18110   0.26457   0.00000  Uiso   1.00
O90    O     0.63102   0.24629   0.25357   0.00000  Uiso   1.00
O91    O     0.39075   0.23704   0.24423   0.00000  Uiso   1.00
O92    O     0.64823   0.17358   0.33380   0.00000  Uiso   1.00
O93    O     0.40796   0.16433   0.32446   0.00000  Uiso   1.00
O94    O     0.60925   0.09629   0.25576   0.00000  Uiso   1.00
O95    O     0.36898   0.08704   0.24643   0.00000  Uiso   1.00
O96    O     0.59204   0.16901   0.17554   0.00000  Uiso   1.00
O97    O     0.35177   0.15976   0.16620   0.00000  Uiso   1.00
Zn98   Zn    0.60453   0.17284   0.25623   0.00000  Uiso   1.00
Zn99   Zn    0.39547   0.16049   0.24376   0.00000  Uiso   1.00
O100   O     0.35314   0.09405   0.07552   0.00000  Uiso   1.00
C101   C     0.34597   0.04166   0.09095   0.00000  Uiso   1.00
H102   H     0.66067   0.01493   0.05334   0.00000  Uiso   1.00
H103   H     0.65065   0.03822   0.12287   0.00000  Uiso   1.00
C104   C     0.40510   0.02384   0.11703   0.00000  Uiso   1.00
H105   H     0.42477   0.04898   0.15544   0.00000  Uiso   1.00
H106   H     0.40006   0.31595   0.12920   0.00000  Uiso   1.00
H107   H     0.43452   0.02641   0.08593   0.00000  Uiso   1.00
F108   F     0.50697   0.21844   0.29797   0.00000  Uiso   1.00
O109   O     0.52868   0.04240   0.40419   0.00000  Uiso   1.00
C110   C     0.49303   0.32884   0.40517   0.00000  Uiso   1.00
H111   H     0.46358   0.32133   0.36317   0.00000  Uiso   1.00
H112   H     0.46573   0.32932   0.43853   0.00000  Uiso   1.00
C113   C     0.53153   0.28364   0.41626   0.00000  Uiso   1.00
H114   H     0.55927   0.28925   0.45930   0.00000  Uiso   1.00
H115   H     0.50409   0.24611   0.41366   0.00000  Uiso   1.00
H116   H     0.56003   0.28178   0.38442   0.00000  Uiso   1.00
C117   C     0.68165   0.26494   0.24890   0.00000  Uiso   1.00
C118   C     0.79808   0.16089   0.49575   0.00000  Uiso   1.00
C119   C     0.76840   0.14367   0.44112   0.00000  Uiso   1.00
C120   C     0.85504   0.14604   0.01373   0.00000  Uiso   1.00
C121   C     0.87724   0.10696   0.48231   0.00000  Uiso   1.00
C122   C     0.84223   0.08294   0.43306   0.00000  Uiso   1.00
C123   C     0.78890   0.10248   0.41179   0.00000  Uiso   1.00
C124   C     0.89100   0.17018   0.06169   0.00000  Uiso   1.00
C125   C     0.96582   0.11141   0.05434   0.00000  Uiso   1.00
C126   C     0.71937   0.16896   0.41668   0.00000  Uiso   1.00
C127   C     0.68963   0.31958   0.24893   0.00000  Uiso   1.00
C128   C     0.70194   0.16830   0.35537   0.00000  Uiso   1.00
C129   C     0.97753   0.01384   0.25273   0.00000  Uiso   1.00
C130   C     0.98519   0.06843   0.25165   0.00000  Uiso   1.00
C131   C     0.96416   0.16236   0.14459   0.00000  Uiso   1.00
C132   C     0.93354   0.09165   0.00174   0.00000  Uiso   1.00
C133   C     0.94327   0.15052   0.08443   0.00000  Uiso   1.00
C134   C     0.69236   0.20131   0.45031   0.00000  Uiso   1.00
C135   C     0.71669   0.21167   0.00727   0.00000  Uiso   1.00
C136   C     0.76987   0.19283   0.02977   0.00000  Uiso   1.00
H137   H     0.93470   0.32990   0.25621   0.00000  Uiso   1.00
H138   H     0.82339   0.12423   0.20899   0.00000  Uiso   1.00
H139   H     0.95169   0.06299   0.47742   0.00000  Uiso   1.00
H140   H     0.87786   0.20301   0.08424   0.00000  Uiso   1.00
H141   H     0.98702   0.22000   0.43213   0.00000  Uiso   1.00
H142   H     0.78720   0.20269   0.07408   0.00000  Uiso   1.00
H143   H     0.69559   0.23618   0.03346   0.00000  Uiso   1.00
H144   H     0.76339   0.08461   0.37253   0.00000  Uiso   1.00
H145   H     0.73252   0.00354   0.24571   0.00000  Uiso   1.00
N146   N     0.81160   0.15223   0.23542   0.00000  Uiso   1.00
N147   N     0.85507   0.18110   0.26457   0.00000  Uiso   1.00
O148   O     0.96435   0.24629   0.25357   0.00000  Uiso   1.00
O149   O     0.72408   0.23704   0.24423   0.00000  Uiso   1.00
O150   O     0.98157   0.17358   0.33380   0.00000  Uiso   1.00
O151   O     0.74130   0.16433   0.32446   0.00000  Uiso   1.00
O152   O     0.94258   0.09629   0.25576   0.00000  Uiso   1.00
O153   O     0.70231   0.08704   0.24643   0.00000  Uiso   1.00
O154   O     0.92537   0.16901   0.17554   0.00000  Uiso   1.00
O155   O     0.68510   0.15976   0.16620   0.00000  Uiso   1.00
Zn156  Zn    0.93786   0.17284   0.25623   0.00000  Uiso   1.00
Zn157  Zn    0.72881   0.16049   0.24376   0.00000  Uiso   1.00
O158   O     0.68647   0.09405   0.07552   0.00000  Uiso   1.00
C159   C     0.67931   0.04166   0.09095   0.00000  Uiso   1.00
H160   H     0.99400   0.01493   0.05334   0.00000  Uiso   1.00
H161   H     0.98398   0.03822   0.12287   0.00000  Uiso   1.00
C162   C     0.73843   0.02384   0.11703   0.00000  Uiso   1.00
H163   H     0.75810   0.04898   0.15544   0.00000  Uiso   1.00
H164   H     0.73339   0.31595   0.12920   0.00000  Uiso   1.00
H165   H     0.76786   0.02641   0.08593   0.00000  Uiso   1.00
F166   F     0.84030   0.21844   0.29797   0.00000  Uiso   1.00
O167   O     0.86201   0.04240   0.40419   0.00000  Uiso   1.00
C168   C     0.82636   0.32884   0.40517   0.00000  Uiso   1.00
H169   H     0.79692   0.32133   0.36317   0.00000  Uiso   1.00
H170   H     0.79906   0.32932   0.43853   0.00000  Uiso   1.00
C171   C     0.86487   0.28364   0.41626   0.00000  Uiso   1.00
H172   H     0.89260   0.28925   0.45930   0.00000  Uiso   1.00
H173   H     0.83743   0.24611   0.41366   0.00000  Uiso   1.00
H174   H     0.89336   0.28178   0.38442   0.00000  Uiso   1.00
C175   C     0.01498   0.59827   0.24890   0.00000  Uiso   1.00
C176   C     0.13142   0.49423   0.49575   0.00000  Uiso   1.00
C177   C     0.10173   0.47701   0.44112   0.00000  Uiso   1.00
C178   C     0.18838   0.47938   0.01373   0.00000  Uiso   1.00
C179   C     0.21057   0.44029   0.48231   0.00000  Uiso   1.00
C180   C     0.17557   0.41627   0.43306   0.00000  Uiso   1.00
C181   C     0.12223   0.43581   0.41179   0.00000  Uiso   1.00
C182   C     0.22433   0.50351   0.06169   0.00000  Uiso   1.00
C183   C     0.29915   0.44474   0.05434   0.00000  Uiso   1.00
C184   C     0.05270   0.50229   0.41668   0.00000  Uiso   1.00
C185   C     0.02297   0.65291   0.24893   0.00000  Uiso   1.00
C186   C     0.03527   0.50163   0.35537   0.00000  Uiso   1.00
C187   C     0.31086   0.34718   0.25273   0.00000  Uiso   1.00
C188   C     0.31852   0.40176   0.25165   0.00000  Uiso   1.00
C189   C     0.29749   0.49569   0.14459   0.00000  Uiso   1.00
C190   C     0.26687   0.42498   0.00174   0.00000  Uiso   1.00
C191   C     0.27660   0.48385   0.08443   0.00000  Uiso   1.00
C192   C     0.02570   0.53464   0.45031   0.00000  Uiso   1.00
C193   C     0.05002   0.54500   0.00727   0.00000  Uiso   1.00
C194   C     0.10321   0.52616   0.02977   0.00000  Uiso   1.00
H195   H     0.26803   0.66323   0.25621   0.00000  Uiso   1.00
H196   H     0.15673   0.45757   0.20899   0.00000  Uiso   1.00
H197   H     0.28503   0.39632   0.47742   0.00000  Uiso   1.00
H198   H     0.21120   0.53634   0.08424   0.00000  Uiso   1.00
H199   H     0.32036   0.55334   0.43213   0.00000  Uiso   1.00
H200   H     0.12053   0.53602   0.07408   0.00000  Uiso   1.00
H201   H     0.02892   0.56952   0.03346   0.00000  Uiso   1.00
H202   H     0.09672   0.41794   0.37253   0.00000  Uiso   1.00
H203   H     0.06586   0.33687   0.24571   0.00000  Uiso   1.00
N204   N     0.14493   0.48556   0.23542   0.00000  Uiso   1.00
N205   N     0.18840   0.51444   0.26457   0.00000  Uiso   1.00
O206   O     0.29769   0.57963   0.25357   0.00000  Uiso   1.00
O207   O     0.05742   0.57038   0.24423   0.00000  Uiso   1.00
O208   O     0.31490   0.50691   0.33380   0.00000  Uiso   1.00
O209   O     0.07463   0.49766   0.32446   0.00000  Uiso   1.00
O210   O     0.27592   0.42962   0.25576   0.00000  Uiso   1.00
O211   O     0.03565   0.42037   0.24643   0.00000  Uiso   1.00
O212   O     0.25870   0.50234   0.17554   0.00000  Uiso   1.00
O213   O     0.01843   0.49309   0.16620   0.00000  Uiso   1.00
Zn214  Zn    0.27119   0.50618   0.25623   0.00000  Uiso   1.00
Zn215  Zn    0.06214   0.49382   0.24376   0.00000  Uiso   1.00
O216   O     0.01980   0.42739   0.07552   0.00000  Uiso   1.00
C217   C     0.01264   0.37499   0.09095   0.00000  Uiso   1.00
H218   H     0.32733   0.34827   0.05334   0.00000  Uiso   1.00
H219   H     0.31731   0.37155   0.12287   0.00000  Uiso   1.00
C220   C     0.07177   0.35717   0.11703   0.00000  Uiso   1.00
H221   H     0.09143   0.38231   0.15544   0.00000  Uiso   1.00
H222   H     0.06672   0.64928   0.12920   0.00000  Uiso   1.00
H223   H     0.10119   0.35974   0.08593   0.00000  Uiso   1.00
F224   F     0.17363   0.55178   0.29797   0.00000  Uiso   1.00
O225   O     0.19535   0.37573   0.40419   0.00000  Uiso   1.00
C226   C     0.15970   0.66218   0.40517   0.00000  Uiso   1.00
H227   H     0.13025   0.65466   0.36317   0.00000  Uiso   1.00
H228   H     0.13240   0.66266   0.43853   0.00000  Uiso   1.00
C229   C     0.19820   0.61698   0.41626   0.00000  Uiso   1.00
H230   H     0.22593   0.62259   0.45930   0.00000  Uiso   1.00
H231   H     0.17076   0.57945   0.41366   0.00000  Uiso   1.00
H232   H     0.22669   0.61512   0.38442   0.00000  Uiso   1.00
C233   C     0.34832   0.59827   0.24890   0.00000  Uiso   1.00
C234   C     0.46475   0.49423   0.49575   0.00000  Uiso   1.00
C235   C     0.43507   0.47701   0.44112   0.00000  Uiso   1.00
C236   C     0.52171   0.47938   0.01373   0.00000  Uiso   1.00
C237   C     0.54390   0.44029   0.48231   0.00000  Uiso   1.00
C238   C     0.50890   0.41627   0.43306   0.00000  Uiso   1.00
C239   C     0.45557   0.43581   0.41179   0.00000  Uiso   1.00
C240   C     0.55766   0.50351   0.06169   0.00000  Uiso   1.00
C241   C     0.63248   0.44474   0.05434   0.00000  Uiso   1.00
C242   C     0.38604   0.50229   0.41668   0.00000  Uiso   1.00
C243   C     0.35630   0.65291   0.24893   0.00000  Uiso   1.00
C244   C     0.36860   0.50163   0.35537   0.00000  Uiso   1.00
C245   C     0.64419   0.34718   0.25273   0.00000  Uiso   1.00
C246   C     0.65185   0.40176   0.25165   0.00000  Uiso   1.00
C247   C     0.63083   0.49569   0.14459   0.00000  Uiso   1.00
C248   C     0.60020   0.42498   0.00174   0.00000  Uiso   1.00
C249   C     0.60993   0.48385   0.08443   0.00000  Uiso   1.00
C250   C     0.35903   0.53464   0.45031   0.00000  Uiso   1.00
C251   C     0.38335   0.54500   0.00727   0.00000  Uiso   1.00
C252   C     0.43654   0.52616   0.02977   0.00000  Uiso   1.00
H253   H     0.60137   0.66323   0.25621   0.00000  Uiso   1.00
H254   H     0.49006   0.45757   0.20899   0.00000  Uiso   1.00
H255   H     0.61836   0.39632   0.47742   0.00000  Uiso   1.00
H256   H     0.54453   0.53634   0.08424   0.00000  Uiso   1.00
H257   H     0.65369   0.55334   0.43213   0.00000  Uiso   1.00
H258   H     0.45386   0.53602   0.07408   0.00000  Uiso   1.00
H259   H     0.36226   0.56952   0.03346   0.00000  Uiso   1.00
H260   H     0.43006   0.41794   0.37253   0.00000  Uiso   1.00
H261   H     0.39919   0.33687   0.24571   0.00000  Uiso   1.00
N262   N     0.47827   0.48556   0.23542   0.00000  Uiso   1.00
N263   N     0.52173   0.51444   0.26457   0.00000  Uiso   1.00
O264   O     0.63102   0.57963   0.25357   0.00000  Uiso   1.00
O265   O     0.39075   0.57038   0.24423   0.00000  Uiso   1.00
O266   O     0.64823   0.50691   0.33380   0.00000  Uiso   1.00
O267   O     0.40796   0.49766   0.32446   0.00000  Uiso   1.00
O268   O     0.60925   0.42962   0.25576   0.00000  Uiso   1.00
O269   O     0.36898   0.42037   0.24643   0.00000  Uiso   1.00
O270   O     0.59204   0.50234   0.17554   0.00000  Uiso   1.00
O271   O     0.35177   0.49309   0.16620   0.00000  Uiso   1.00
Zn272  Zn    0.60453   0.50618   0.25623   0.00000  Uiso   1.00
Zn273  Zn    0.39547   0.49382   0.24376   0.00000  Uiso   1.00
O274   O     0.35314   0.42739   0.07552   0.00000  Uiso   1.00
C275   C     0.34597   0.37499   0.09095   0.00000  Uiso   1.00
H276   H     0.66067   0.34827   0.05334   0.00000  Uiso   1.00
H277   H     0.65065   0.37155   0.12287   0.00000  Uiso   1.00
C278   C     0.40510   0.35717   0.11703   0.00000  Uiso   1.00
H279   H     0.42477   0.38231   0.15544   0.00000  Uiso   1.00
H280   H     0.40006   0.64928   0.12920   0.00000  Uiso   1.00
H281   H     0.43452   0.35974   0.08593   0.00000  Uiso   1.00
F282   F     0.50697   0.55178   0.29797   0.00000  Uiso   1.00
O283   O     0.52868   0.37573   0.40419   0.00000  Uiso   1.00
C284   C     0.49303   0.66218   0.40517   0.00000  Uiso   1.00
H285   H     0.46358   0.65466   0.36317   0.00000  Uiso   1.00
H286   H     0.46573   0.66266   0.43853   0.00000  Uiso   1.00
C287   C     0.53153   0.61698   0.41626   0.00000  Uiso   1.00
H288   H     0.55927   0.62259   0.45930   0.00000  Uiso   1.00
H289   H     0.50409   0.57945   0.41366   0.00000  Uiso   1.00
H290   H     0.56003   0.61512   0.38442   0.00000  Uiso   1.00
C291   C     0.68165   0.59827   0.24890   0.00000  Uiso   1.00
C292   C     0.79808   0.49423   0.49575   0.00000  Uiso   1.00
C293   C     0.76840   0.47701   0.44112   0.00000  Uiso   1.00
C294   C     0.85504   0.47938   0.01373   0.00000  Uiso   1.00
C295   C     0.87724   0.44029   0.48231   0.00000  Uiso   1.00
C296   C     0.84223   0.41627   0.43306   0.00000  Uiso   1.00
C297   C     0.78890   0.43581   0.41179   0.00000  Uiso   1.00
C298   C     0.89100   0.50351   0.06169   0.00000  Uiso   1.00
C299   C     0.96582   0.44474   0.05434   0.00000  Uiso   1.00
C300   C     0.71937   0.50229   0.41668   0.00000  Uiso   1.00
C301   C     0.68963   0.65291   0.24893   0.00000  Uiso   1.00
C302   C     0.70194   0.50163   0.35537   0.00000  Uiso   1.00
C303   C     0.97753   0.34718   0.25273   0.00000  Uiso   1.00
C304   C     0.98519   0.40176   0.25165   0.00000  Uiso   1.00
C305   C     0.96416   0.49569   0.14459   0.00000  Uiso   1.00
C306   C     0.93354   0.42498   0.00174   0.00000  Uiso   1.00
C307   C     0.94327   0.48385   0.08443   0.00000  Uiso   1.00
C308   C     0.69236   0.53464   0.45031   0.00000  Uiso   1.00
C309   C     0.71669   0.54500   0.00727   0.00000  Uiso   1.00
C310   C     0.76987   0.52616   0.02977   0.00000  Uiso   1.00
H311   H     0.93470   0.66323   0.25621   0.00000  Uiso   1.00
H312   H     0.82339   0.45757   0.20899   0.00000  Uiso   1.00
H313   H     0.95169   0.39632   0.47742   0.00000  Uiso   1.00
H314   H     0.87786   0.53634   0.08424   0.00000  Uiso   1.00
H315   H     0.98702   0.55334   0.43213   0.00000  Uiso   1.00
H316   H     0.78720   0.53602   0.07408   0.00000  Uiso   1.00
H317   H     0.69559   0.56952   0.03346   0.00000  Uiso   1.00
H318   H     0.76339   0.41794   0.37253   0.00000  Uiso   1.00
H319   H     0.73252   0.33687   0.24571   0.00000  Uiso   1.00
N320   N     0.81160   0.48556   0.23542   0.00000  Uiso   1.00
N321   N     0.85507   0.51444   0.26457   0.00000  Uiso   1.00
O322   O     0.96435   0.57963   0.25357   0.00000  Uiso   1.00
O323   O     0.72408   0.57038   0.24423   0.00000  Uiso   1.00
O324   O     0.98157   0.50691   0.33380   0.00000  Uiso   1.00
O325   O     0.74130   0.49766   0.32446   0.00000  Uiso   1.00
O326   O     0.94258   0.42962   0.25576   0.00000  Uiso   1.00
O327   O     0.70231   0.42037   0.24643   0.00000  Uiso   1.00
O328   O     0.92537   0.50234   0.17554   0.00000  Uiso   1.00
O329   O     0.68510   0.49309   0.16620   0.00000  Uiso   1.00
Zn330  Zn    0.93786   0.50618   0.25623   0.00000  Uiso   1.00
Zn331  Zn    0.72881   0.49382   0.24376   0.00000  Uiso   1.00
O332   O     0.68647   0.42739   0.07552   0.00000  Uiso   1.00
C333   C     0.67931   0.37499   0.09095   0.00000  Uiso   1.00
H334   H     0.99400   0.34827   0.05334   0.00000  Uiso   1.00
H335   H     0.98398   0.37155   0.12287   0.00000  Uiso   1.00
C336   C     0.73843   0.35717   0.11703   0.00000  Uiso   1.00
H337   H     0.75810   0.38231   0.15544   0.00000  Uiso   1.00
H338   H     0.73339   0.64928   0.12920   0.00000  Uiso   1.00
H339   H     0.76786   0.35974   0.08593   0.00000  Uiso   1.00
F340   F     0.84030   0.55178   0.29797   0.00000  Uiso   1.00
O341   O     0.86201   0.37573   0.40419   0.00000  Uiso   1.00
C342   C     0.82636   0.66218   0.40517   0.00000  Uiso   1.00
H343   H     0.79692   0.65466   0.36317   0.00000  Uiso   1.00
H344   H     0.79906   0.66266   0.43853   0.00000  Uiso   1.00
C345   C     0.86487   0.61698   0.41626   0.00000  Uiso   1.00
H346   H     0.89260   0.62259   0.45930   0.00000  Uiso   1.00
H347   H     0.83743   0.57945   0.41366   0.00000  Uiso   1.00
H348   H     0.89336   0.61512   0.38442   0.00000  Uiso   1.00
C349   C     0.01498   0.93160   0.24890   0.00000  Uiso   1.00
C350   C     0.13142   0.82756   0.49575   0.00000  Uiso   1.00
C351   C     0.10173   0.81034   0.44112   0.00000  Uiso   1.00
C352   C     0.18838   0.81271   0.01373   0.00000  Uiso   1.00
C353   C     0.21057   0.77363   0.48231   0.00000  Uiso   1.00
C354   C     0.17557   0.74960   0.43306   0.00000  Uiso   1.00
C355   C     0.12223   0.76915   0.41179   0.00000  Uiso   1.00
C356   C     0.22433   0.83684   0.06169   0.00000  Uiso   1.00
C357   C     0.29915   0.77808   0.05434   0.00000  Uiso   1.00
C358   C     0.05270   0.83563   0.41668   0.00000  Uiso   1.00
C359   C     0.02297   0.98625   0.24893   0.00000  Uiso   1.00
C360   C     0.03527   0.83497   0.35537   0.00000  Uiso   1.00
C361   C     0.31086   0.68051   0.25273   0.00000  Uiso   1.00
C362   C     0.31852   0.73509   0.25165   0.00000  Uiso   1.00
C363   C     0.29749   0.82903   0.14459   0.00000  Uiso   1.00
C364   C     0.26687   0.75831   0.00174   0.00000  Uiso   1.00
C365   C     0.27660   0.81718   0.08443   0.00000  Uiso   1.00
C366   C     0.02570   0.86798   0.45031   0.00000  Uiso   1.00
C367   C     0.05002   0.87833   0.00727   0.00000  Uiso   1.00
C368   C     0.10321   0.85950   0.02977   0.00000  Uiso   1.00
H369   H     0.26803   0.99656   0.25621   0.00000  Uiso   1.00
H370   H     0.15673   0.79090   0.20899   0.00000  Uiso   1.00
H371   H     0.28503   0.72966   0.47742   0.00000  Uiso   1.00
H372   H     0.21120   0.86967   0.08424   0.00000  Uiso   1.00
H373   H     0.32036   0.88667   0.43213   0.00000  Uiso   1.00
H374   H     0.12053   0.86936   0.07408   0.00000  Uiso   1.00
H375   H     0.02892   0.90285   0.03346   0.00000  Uiso   1.00
H376   H     0.09672   0.75128   0.37253   0.00000  Uiso   1.00
H377   H     0.06586   0.67020   0.24571   0.00000  Uiso   1.00
N378   N     0.14493   0.81890   0.23542   0.00000  Uiso   1.00
N379   N     0.18840   0.84777   0.26457   0.00000  Uiso   1.00
O380   O     0.29769   0.91296   0.25357   0.00000  Uiso   1.00
O381   O     0.05742   0.90371   0.24423   0.00000  Uiso   1.00
O382   O     0.31490   0.84024   0.33380   0.00000  Uiso   1.00
O383   O     0.07463   0.83099   0.32446   0.00000  Uiso   1.00
O384   O     0.27592   0.76296   0.25576   0.00000  Uiso   1.00
O385   O     0.03565   0.75371   0.24643   0.00000  Uiso   1.00
O386   O     0.25870   0.83567   0.17554   0.00000  Uiso   1.00
O387   O     0.01843   0.82642   0.16620   0.00000  Uiso   1.00
Zn388  Zn    0.27119   0.83951   0.25623   0.00000  Uiso   1.00
Zn389  Zn    0.06214   0.82716   0.24376   0.00000  Uiso   1.00
O390   O     0.01980   0.76072   0.07552   0.00000  Uiso   1.00
C391   C     0.01264   0.70833   0.09095   0.00000  Uiso   1.00
H392   H     0.32733   0.68160   0.05334   0.00000  Uiso   1.00
H393   H     0.31731   0.70488   0.12287   0.00000  Uiso   1.00
C394   C     0.07177   0.69051   0.11703   0.00000  Uiso   1.00
H395   H     0.09143   0.71565   0.15544   0.00000  Uiso   1.00
H396   H     0.06672   0.98262   0.12920   0.00000  Uiso   1.00
H397   H     0.10119   0.69308   0.08593   0.00000  Uiso   1.00
F398   F     0.17363   0.88511   0.29797   0.00000  Uiso   1.00
O399   O     0.19535   0.70907   0.40419   0.00000  Uiso   1.00
C400   C     0.15970   0.99551   0.40517   0.00000  Uiso   1.00
H401   H     0.13025   0.98800   0.36317   0.00000  Uiso   1.00
H402   H     0.13240   0.99599   0.43853   0.00000  Uiso   1.00
C403   C     0.19820   0.95031   0.41626   0.00000  Uiso   1.00
H404   H     0.22593   0.95592   0.45930   0.00000  Uiso   1.00
H405   H     0.17076   0.91278   0.41366   0.00000  Uiso   1.00
H406   H     0.22669   0.94845   0.38442   0.00000  Uiso   1.00
C407   C     0.34832   0.93160   0.24890   0.00000  Uiso   1.00
C408   C     0.46475   0.82756   0.49575   0.00000  Uiso   1.00
C409   C     0.43507   0.81034   0.44112   0.00000  Uiso   1.00
C410   C     0.52171   0.81271   0.01373   0.00000  Uiso   1.00
C411   C     0.54390   0.77363   0.48231   0.00000  Uiso   1.00
C412   C     0.50890   0.74960   0.43306   0.00000  Uiso   1.00
C413   C     0.45557   0.76915   0.41179   0.00000  Uiso   1.00
C414   C     0.55766   0.83684   0.06169   0.00000  Uiso   1.00
C415   C     0.63248   0.77808   0.05434   0.00000  Uiso   1.00
C416   C     0.38604   0.83563   0.41668   0.00000  Uiso   1.00
C417   C     0.35630   0.98625   0.24893   0.00000  Uiso   1.00
C418   C     0.36860   0.83497   0.35537   0.00000  Uiso   1.00
C419   C     0.64419   0.68051   0.25273   0.00000  Uiso   1.00
C420   C     0.65185   0.73509   0.25165   0.00000  Uiso   1.00
C421   C     0.63083   0.82903   0.14459   0.00000  Uiso   1.00
C422   C     0.60020   0.75831   0.00174   0.00000  Uiso   1.00
C423   C     0.60993   0.81718   0.08443   0.00000  Uiso   1.00
C424   C     0.35903   0.86798   0.45031   0.00000  Uiso   1.00
C425   C     0.38335   0.87833   0.00727   0.00000  Uiso   1.00
C426   C     0.43654   0.85950   0.02977   0.00000  Uiso   1.00
H427   H     0.60137   0.99656   0.25621   0.00000  Uiso   1.00
H428   H     0.49006   0.79090   0.20899   0.00000  Uiso   1.00
H429   H     0.61836   0.72966   0.47742   0.00000  Uiso   1.00
H430   H     0.54453   0.86967   0.08424   0.00000  Uiso   1.00
H431   H     0.65369   0.88667   0.43213   0.00000  Uiso   1.00
H432   H     0.45386   0.86936   0.07408   0.00000  Uiso   1.00
H433   H     0.36226   0.90285   0.03346   0.00000  Uiso   1.00
H434   H     0.43006   0.75128   0.37253   0.00000  Uiso   1.00
H435   H     0.39919   0.67020   0.24571   0.00000  Uiso   1.00
N436   N     0.47827   0.81890   0.23542   0.00000  Uiso   1.00
N437   N     0.52173   0.84777   0.26457   0.00000  Uiso   1.00
O438   O     0.63102   0.91296   0.25357   0.00000  Uiso   1.00
O439   O     0.39075   0.90371   0.24423   0.00000  Uiso   1.00
O440   O     0.64823   0.84024   0.33380   0.00000  Uiso   1.00
O441   O     0.40796   0.83099   0.32446   0.00000  Uiso   1.00
O442   O     0.60925   0.76296   0.25576   0.00000  Uiso   1.00
O443   O     0.36898   0.75371   0.24643   0.00000  Uiso   1.00
O444   O     0.59204   0.83567   0.17554   0.00000  Uiso   1.00
O445   O     0.35177   0.82642   0.16620   0.00000  Uiso   1.00
Zn446  Zn    0.60453   0.83951   0.25623   0.00000  Uiso   1.00
Zn447  Zn    0.39547   0.82716   0.24376   0.00000  Uiso   1.00
O448   O     0.35314   0.76072   0.07552   0.00000  Uiso   1.00
C449   C     0.34597   0.70833   0.09095   0.00000  Uiso   1.00
H450   H     0.66067   0.68160   0.05334   0.00000  Uiso   1.00
H451   H     0.65065   0.70488   0.12287   0.00000  Uiso   1.00
C452   C     0.40510   0.69051   0.11703   0.00000  Uiso   1.00
H453   H     0.42477   0.71565   0.15544   0.00000  Uiso   1.00
H454   H     0.40006   0.98262   0.12920   0.00000  Uiso   1.00
H455   H     0.43452   0.69308   0.08593   0.00000  Uiso   1.00
F456   F     0.50697   0.88511   0.29797   0.00000  Uiso   1.00
O457   O     0.52868   0.70907   0.40419   0.00000  Uiso   1.00
C458   C     0.49303   0.99551   0.40517   0.00000  Uiso   1.00
H459   H     0.46358   0.98800   0.36317   0.00000  Uiso   1.00
H460   H     0.46573   0.99599   0.43853   0.00000  Uiso   1.00
C461   C     0.53153   0.95031   0.41626   0.00000  Uiso   1.00
H462   H     0.55927   0.95592   0.45930   0.00000  Uiso   1.00
H463   H     0.50409   0.91278   0.41366   0.00000  Uiso   1.00
H464   H     0.56003   0.94845   0.38442   0.00000  Uiso   1.00
C465   C     0.68165   0.93160   0.24890   0.00000  Uiso   1.00
C466   C     0.79808   0.82756   0.49575   0.00000  Uiso   1.00
C467   C     0.76840   0.81034   0.44112   0.00000  Uiso   1.00
C468   C     0.85504   0.81271   0.01373   0.00000  Uiso   1.00
C469   C     0.87724   0.77363   0.48231   0.00000  Uiso   1.00
C470   C     0.84223   0.74960   0.43306   0.00000  Uiso   1.00
C471   C     0.78890   0.76915   0.41179   0.00000  Uiso   1.00
C472   C     0.89100   0.83684   0.06169   0.00000  Uiso   1.00
C473   C     0.96582   0.77808   0.05434   0.00000  Uiso   1.00
C474   C     0.71937   0.83563   0.41668   0.00000  Uiso   1.00
C475   C     0.68963   0.98625   0.24893   0.00000  Uiso   1.00
C476   C     0.70194   0.83497   0.35537   0.00000  Uiso   1.00
C477   C     0.97753   0.68051   0.25273   0.00000  Uiso   1.00
C478   C     0.98519   0.73509   0.25165   0.00000  Uiso   1.00
C479   C     0.96416   0.82903   0.14459   0.00000  Uiso   1.00
C480   C     0.93354   0.75831   0.00174   0.00000  Uiso   1.00
C481   C     0.94327   0.81718   0.08443   0.00000  Uiso   1.00
C482   C     0.69236   0.86798   0.45031   0.00000  Uiso   1.00
C483   C     0.71669   0.87833   0.00727   0.00000  Uiso   1.00
C484   C     0.76987   0.85950   0.02977   0.00000  Uiso   1.00
H485   H     0.93470   0.99656   0.25621   0.00000  Uiso   1.00
H486   H     0.82339   0.79090   0.20899   0.00000  Uiso   1.00
H487   H     0.95169   0.72966   0.47742   0.00000  Uiso   1.00
H488   H     0.87786   0.86967   0.08424   0.00000  Uiso   1.00
H489   H     0.98702   0.88667   0.43213   0.00000  Uiso   1.00
H490   H     0.78720   0.86936   0.07408   0.00000  Uiso   1.00
H491   H     0.69559   0.90285   0.03346   0.00000  Uiso   1.00
H492   H     0.76339   0.75128   0.37253   0.00000  Uiso   1.00
H493   H     0.73252   0.67020   0.24571   0.00000  Uiso   1.00
N494   N     0.81160   0.81890   0.23542   0.00000  Uiso   1.00
N495   N     0.85507   0.84777   0.26457   0.00000  Uiso   1.00
O496   O     0.96435   0.91296   0.25357   0.00000  Uiso   1.00
O497   O     0.72408   0.90371   0.24423   0.00000  Uiso   1.00
O498   O     0.98157   0.84024   0.33380   0.00000  Uiso   1.00
O499   O     0.74130   0.83099   0.32446   0.00000  Uiso   1.00
O500   O     0.94258   0.76296   0.25576   0.00000  Uiso   1.00
O501   O     0.70231   0.75371   0.24643   0.00000  Uiso   1.00
O502   O     0.92537   0.83567   0.17554   0.00000  Uiso   1.00
O503   O     0.68510   0.82642   0.16620   0.00000  Uiso   1.00
Zn504  Zn    0.93786   0.83951   0.25623   0.00000  Uiso   1.00
Zn505  Zn    0.72881   0.82716   0.24376   0.00000  Uiso   1.00
O506   O     0.68647   0.76072   0.07552   0.00000  Uiso   1.00
C507   C     0.67931   0.70833   0.09095   0.00000  Uiso   1.00
H508   H     0.99400   0.68160   0.05334   0.00000  Uiso   1.00
H509   H     0.98398   0.70488   0.12287   0.00000  Uiso   1.00
C510   C     0.73843   0.69051   0.11703   0.00000  Uiso   1.00
H511   H     0.75810   0.71565   0.15544   0.00000  Uiso   1.00
H512   H     0.73339   0.98262   0.12920   0.00000  Uiso   1.00
H513   H     0.76786   0.69308   0.08593   0.00000  Uiso   1.00
F514   F     0.84030   0.88511   0.29797   0.00000  Uiso   1.00
O515   O     0.86201   0.70907   0.40419   0.00000  Uiso   1.00
C516   C     0.82636   0.99551   0.40517   0.00000  Uiso   1.00
H517   H     0.79692   0.98800   0.36317   0.00000  Uiso   1.00
H518   H     0.79906   0.99599   0.43853   0.00000  Uiso   1.00
C519   C     0.86487   0.95031   0.41626   0.00000  Uiso   1.00
H520   H     0.89260   0.95592   0.45930   0.00000  Uiso   1.00
H521   H     0.83743   0.91278   0.41366   0.00000  Uiso   1.00
H522   H     0.89336   0.94845   0.38442   0.00000  Uiso   1.00
C523   C     0.01498   0.26494   0.74890   0.00000  Uiso   1.00
C524   C     0.13142   0.16089   0.99575   0.00000  Uiso   1.00
C525   C     0.10173   0.14367   0.94112   0.00000  Uiso   1.00
C526   C     0.18838   0.14604   0.51373   0.00000  Uiso   1.00
C527   C     0.21057   0.10696   0.98231   0.00000  Uiso   1.00
C528   C     0.17557   0.08294   0.93306   0.00000  Uiso   1.00
C529   C     0.12223   0.10248   0.91179   0.00000  Uiso   1.00
C530   C     0.22433   0.17018   0.56169   0.00000  Uiso   1.00
C531   C     0.29915   0.11141   0.55434   0.00000  Uiso   1.00
C532   C     0.05270   0.16896   0.91668   0.00000  Uiso   1.00
C533   C     0.02297   0.31958   0.74893   0.00000  Uiso   1.00
C534   C     0.03527   0.16830   0.85537   0.00000  Uiso   1.00
C535   C     0.31086   0.01384   0.75273   0.00000  Uiso   1.00
C536   C     0.31852   0.06843   0.75165   0.00000  Uiso   1.00
C537   C     0.29749   0.16236   0.64459   0.00000  Uiso   1.00
C538   C     0.26687   0.09165   0.50174   0.00000  Uiso   1.00
C539   C     0.27660   0.15052   0.58443   0.00000  Uiso   1.00
C540   C     0.02570   0.20131   0.95031   0.00000  Uiso   1.00
C541   C     0.05002   0.21167   0.50727   0.00000  Uiso   1.00
C542   C     0.10321   0.19283   0.52977   0.00000  Uiso   1.00
H543   H     0.26803   0.32990   0.75621   0.00000  Uiso   1.00
H544   H     0.15673   0.12423   0.70899   0.00000  Uiso   1.00
H545   H     0.28503   0.06299   0.97742   0.00000  Uiso   1.00
H546   H     0.21120   0.20301   0.58424   0.00000  Uiso   1.00
H547   H     0.32036   0.22000   0.93213   0.00000  Uiso   1.00
H548   H     0.12053   0.20269   0.57408   0.00000  Uiso   1.00
H549   H     0.02892   0.23618   0.53346   0.00000  Uiso   1.00
H550   H     0.09672   0.08461   0.87253   0.00000  Uiso   1.00
H551   H     0.06586   0.00354   0.74571   0.00000  Uiso   1.00
N552   N     0.14493   0.15223   0.73542   0.00000  Uiso   1.00
N553   N     0.18840   0.18110   0.76457   0.00000  Uiso   1.00
O554   O     0.29769   0.24629   0.75357   0.00000  Uiso   1.00
O555   O     0.05742   0.23704   0.74423   0.00000  Uiso   1.00
O556   O     0.31490   0.17358   0.83380   0.00000  Uiso   1.00
O557   O     0.07463   0.16433   0.82446   0.00000  Uiso   1.00
O558   O     0.27592   0.09629   0.75576   0.00000  Uiso   1.00
O559   O     0.03565   0.08704   0.74643   0.00000  Uiso   1.00
O560   O     0.25870   0.16901   0.67554   0.00000  Uiso   1.00
O561   O     0.01843   0.15976   0.66620   0.00000  Uiso   1.00
Zn562  Zn    0.27119   0.17284   0.75623   0.00000  Uiso   1.00
Zn563  Zn    0.06214   0.16049   0.74376   0.00000  Uiso   1.00
O564   O     0.01980   0.09405   0.57552   0.00000  Uiso   1.00
C565   C     0.01264   0.04166   0.59095   0.00000  Uiso   1.00
H566   H     0.32733   0.01493   0.55334   0.00000  Uiso   1.00
H567   H     0.31731   0.03822   0.62287   0.00000  Uiso   1.00
C568   C     0.07177   0.02384   0.61703   0.00000  Uiso   1.00
H569   H     0.09143   0.04898   0.65544   0.00000  Uiso   1.00
H570   H     0.06672   0.31595   0.62920   0.00000  Uiso   1.00
H571   H     0.10119   0.02641   0.58593   0.00000  Uiso   1.00
F572   F     0.17363   0.21844   0.79797   0.00000  Uiso   1.00
O573   O     0.19535   0.04240   0.90419   0.00000  Uiso   1.00
C574   C     0.15970   0.32884   0.90517   0.00000  Uiso   1.00
H575   H     0.13025   0.32133   0.86317   0.00000  Uiso   1.00
H576   H     0.13240   0.32932   0.93853   0.00000  Uiso   1.00
C577   C     0.19820   0.28364   0.91626   0.00000  Uiso   1.00
H578   H     0.22593   0.28925   0.95930   0.00000  Uiso   1.00
H579   H     0.17076   0.24611   0.91366   0.00000  Uiso   1.00
H580   H     0.22669   0.28178   0.88442   0.00000  Uiso   1.00
C581   C     0.34832   0.26494   0.74890   0.00000  Uiso   1.00
C582   C     0.46475   0.16089   0.99575   0.00000  Uiso   1.00
C583   C     0.43507   0.14367   0.94112   0.00000  Uiso   1.00
C584   C     0.52171   0.14604   0.51373   0.00000  Uiso   1.00
C585   C     0.54390   0.10696   0.98231   0.00000  Uiso   1.00
C586   C     0.50890   0.08294   0.93306   0.00000  Uiso   1.00
C587   C     0.45557   0.10248   0.91179   0.00000  Uiso   1.00
C588   C     0.55766   0.17018   0.56169   0.00000  Uiso   1.00
C589   C     0.63248   0.11141   0.55434   0.00000  Uiso   1.00
C590   C     0.38604   0.16896   0.91668   0.00000  Uiso   1.00
C591   C     0.35630   0.31958   0.74893   0.00000  Uiso   1.00
C592   C     0.36860   0.16830   0.85537   0.00000  Uiso   1.00
C593   C     0.64419   0.01384   0.75273   0.00000  Uiso   1.00
C594   C     0.65185   0.06843   0.75165   0.00000  Uiso   1.00
C595   C     0.63083   0.16236   0.64459   0.00000  Uiso   1.00
C596   C     0.60020   0.09165   0.50174   0.00000  Uiso   1.00
C597   C     0.60993   0.15052   0.58443   0.00000  Uiso   1.00
C598   C     0.35903   0.20131   0.95031   0.00000  Uiso   1.00
C599   C     0.38335   0.21167   0.50727   0.00000  Uiso   1.00
C600   C     0.43654   0.19283   0.52977   0.00000  Uiso   1.00
H601   H     0.60137   0.32990   0.75621   0.00000  Uiso   1.00
H602   H     0.49006   0.12423   0.70899   0.00000  Uiso   1.00
H603   H     0.61836   0.06299   0.97742   0.00000  Uiso   1.00
H604   H     0.54453   0.20301   0.58424   0.00000  Uiso   1.00
H605   H     0.65369   0.22000   0.93213   0.00000  Uiso   1.00
H606   H     0.45386   0.20269   0.57408   0.00000  Uiso   1.00
H607   H     0.36226   0.23618   0.53346   0.00000  Uiso   1.00
H608   H     0.43006   0.08461   0.87253   0.00000  Uiso   1.00
H609   H     0.39919   0.00354   0.74571   0.00000  Uiso   1.00
N610   N     0.47827   0.15223   0.73542   0.00000  Uiso   1.00
N611   N     0.52173   0.18110   0.76457   0.00000  Uiso   1.00
O612   O     0.63102   0.24629   0.75357   0.00000  Uiso   1.00
O613   O     0.39075   0.23704   0.74423   0.00000  Uiso   1.00
O614   O     0.64823   0.17358   0.83380   0.00000  Uiso   1.00
O615   O     0.40796   0.16433   0.82446   0.00000  Uiso   1.00
O616   O     0.60925   0.09629   0.75576   0.00000  Uiso   1.00
O617   O     0.36898   0.08704   0.74643   0.00000  Uiso   1.00
O618   O     0.59204   0.16901   0.67554   0.00000  Uiso   1.00
O619   O     0.35177   0.15976   0.66620   0.00000  Uiso   1.00
Zn620  Zn    0.60453   0.17284   0.75623   0.00000  Uiso   1.00
Zn621  Zn    0.39547   0.16049   0.74376   0.00000  Uiso   1.00
O622   O     0.35314   0.09405   0.57552   0.00000  Uiso   1.00
C623   C     0.34597   0.04166   0.59095   0.00000  Uiso   1.00
H624   H     0.66067   0.01493   0.55334   0.00000  Uiso   1.00
H625   H     0.65065   0.03822   0.62287   0.00000  Uiso   1.00
C626   C     0.40510   0.02384   0.61703   0.00000  Uiso   1.00
H627   H     0.42477   0.04898   0.65544   0.00000  Uiso   1.00
H628   H     0.40006   0.31595   0.62920   0.00000  Uiso   1.00
H629   H     0.43452   0.02641   0.58593   0.00000  Uiso   1.00
F630   F     0.50697   0.21844   0.79797   0.00000  Uiso   1.00
O631   O     0.52868   0.04240   0.90419   0.00000  Uiso   1.00
C632   C     0.49303   0.32884   0.90517   0.00000  Uiso   1.00
H633   H     0.46358   0.32133   0.86317   0.00000  Uiso   1.00
H634   H     0.46573   0.32932   0.93853   0.00000  Uiso   1.00
C635   C     0.53153   0.28364   0.91626   0.00000  Uiso   1.00
H636   H     0.55927   0.28925   0.95930   0.00000  Uiso   1.00
H637   H     0.50409   0.24611   0.91366   0.00000  Uiso   1.00
H638   H     0.56003   0.28178   0.88442   0.00000  Uiso   1.00
C639   C     0.68165   0.26494   0.74890   0.00000  Uiso   1.00
C640   C     0.79808   0.16089   0.99575   0.00000  Uiso   1.00
C641   C     0.76840   0.14367   0.94112   0.00000  Uiso   1.00
C642   C     0.85504   0.14604   0.51373   0.00000  Uiso   1.00
C643   C     0.87724   0.10696   0.98231   0.00000  Uiso   1.00
C644   C     0.84223   0.08294   0.93306   0.00000  Uiso   1.00
C645   C     0.78890   0.10248   0.91179   0.00000  Uiso   1.00
C646   C     0.89100   0.17018   0.56169   0.00000  Uiso   1.00
C647   C     0.96582   0.11141   0.55434   0.00000  Uiso   1.00
C648   C     0.71937   0.16896   0.91668   0.00000  Uiso   1.00
C649   C     0.68963   0.31958   0.74893   0.00000  Uiso   1.00
C650   C     0.70194   0.16830   0.85537   0.00000  Uiso   1.00
C651   C     0.97753   0.01384   0.75273   0.00000  Uiso   1.00
C652   C     0.98519   0.06843   0.75165   0.00000  Uiso   1.00
C653   C     0.96416   0.16236   0.64459   0.00000  Uiso   1.00
C654   C     0.93354   0.09165   0.50174   0.00000  Uiso   1.00
C655   C     0.94327   0.15052   0.58443   0.00000  Uiso   1.00
C656   C     0.69236   0.20131   0.95031   0.00000  Uiso   1.00
C657   C     0.71669   0.21167   0.50727   0.00000  Uiso   1.00
C658   C     0.76987   0.19283   0.52977   0.00000  Uiso   1.00
H659   H     0.93470   0.32990   0.75621   0.00000  Uiso   1.00
H660   H     0.82339   0.12423   0.70899   0.00000  Uiso   1.00
H661   H     0.95169   0.06299   0.97742   0.00000  Uiso   1.00
H662   H     0.87786   0.20301   0.58424   0.00000  Uiso   1.00
H663   H     0.98702   0.22000   0.93213   0.00000  Uiso   1.00
H664   H     0.78720   0.20269   0.57408   0.00000  Uiso   1.00
H665   H     0.69559   0.23618   0.53346   0.00000  Uiso   1.00
H666   H     0.76339   0.08461   0.87253   0.00000  Uiso   1.00
H667   H     0.73252   0.00354   0.74571   0.00000  Uiso   1.00
N668   N     0.81160   0.15223   0.73542   0.00000  Uiso   1.00
N669   N     0.85507   0.18110   0.76457   0.00000  Uiso   1.00
O670   O     0.96435   0.24629   0.75357   0.00000  Uiso   1.00
O671   O     0.72408   0.23704   0.74423   0.00000  Uiso   1.00
O672   O     0.98157   0.17358   0.83380   0.00000  Uiso   1.00
O673   O     0.74130   0.16433   0.82446   0.00000  Uiso   1.00
O674   O     0.94258   0.09629   0.75576   0.00000  Uiso   1.00
O675   O     0.70231   0.08704   0.74643   0.00000  Uiso   1.00
O676   O     0.92537   0.16901   0.67554   0.00000  Uiso   1.00
O677   O     0.68510   0.15976   0.66620   0.00000  Uiso   1.00
Zn678  Zn    0.93786   0.17284   0.75623   0.00000  Uiso   1.00
Zn679  Zn    0.72881   0.16049   0.74376   0.00000  Uiso   1.00
O680   O     0.68647   0.09405   0.57552   0.00000  Uiso   1.00
C681   C     0.67931   0.04166   0.59095   0.00000  Uiso   1.00
H682   H     0.99400   0.01493   0.55334   0.00000  Uiso   1.00
H683   H     0.98398   0.03822   0.62287   0.00000  Uiso   1.00
C684   C     0.73843   0.02384   0.61703   0.00000  Uiso   1.00
H685   H     0.75810   0.04898   0.65544   0.00000  Uiso   1.00
H686   H     0.73339   0.31595   0.62920   0.00000  Uiso   1.00
H687   H     0.76786   0.02641   0.58593   0.00000  Uiso   1.00
F688   F     0.84030   0.21844   0.79797   0.00000  Uiso   1.00
O689   O     0.86201   0.04240   0.90419   0.00000  Uiso   1.00
C690   C     0.82636   0.32884   0.90517   0.00000  Uiso   1.00
H691   H     0.79692   0.32133   0.86317   0.00000  Uiso   1.00
H692   H     0.79906   0.32932   0.93853   0.00000  Uiso   1.00
C693   C     0.86487   0.28364   0.91626   0.00000  Uiso   1.00
H694   H     0.89260   0.28925   0.95930   0.00000  Uiso   1.00
H695   H     0.83743   0.24611   0.91366   0.00000  Uiso   1.00
H696   H     0.89336   0.28178   0.88442   0.00000  Uiso   1.00
C697   C     0.01498   0.59827   0.74890   0.00000  Uiso   1.00
C698   C     0.13142   0.49423   0.99575   0.00000  Uiso   1.00
C699   C     0.10173   0.47701   0.94112   0.00000  Uiso   1.00
C700   C     0.18838   0.47938   0.51373   0.00000  Uiso   1.00
C701   C     0.21057   0.44029   0.98231   0.00000  Uiso   1.00
C702   C     0.17557   0.41627   0.93306   0.00000  Uiso   1.00
C703   C     0.12223   0.43581   0.91179   0.00000  Uiso   1.00
C704   C     0.22433   0.50351   0.56169   0.00000  Uiso   1.00
C705   C     0.29915   0.44474   0.55434   0.00000  Uiso   1.00
C706   C     0.05270   0.50229   0.91668   0.00000  Uiso   1.00
C707   C     0.02297   0.65291   0.74893   0.00000  Uiso   1.00
C708   C     0.03527   0.50163   0.85537   0.00000  Uiso   1.00
C709   C     0.31086   0.34718   0.75273   0.00000  Uiso   1.00
C710   C     0.31852   0.40176   0.75165   0.00000  Uiso   1.00
C711   C     0.29749   0.49569   0.64459   0.00000  Uiso   1.00
C712   C     0.26687   0.42498   0.50174   0.00000  Uiso   1.00
C713   C     0.27660   0.48385   0.58443   0.00000  Uiso   1.00
C714   C     0.02570   0.53464   0.95031   0.00000  Uiso   1.00
C715   C     0.05002   0.54500   0.50727   0.00000  Uiso   1.00
C716   C     0.10321   0.52616   0.52977   0.00000  Uiso   1.00
H717   H     0.26803   0.66323   0.75621   0.00000  Uiso   1.00
H718   H     0.15673   0.45757   0.70899   0.00000  Uiso   1.00
H719   H     0.28503   0.39632   0.97742   0.00000  Uiso   1.00
H720   H     0.21120   0.53634   0.58424   0.00000  Uiso   1.00
H721   H     0.32036   0.55334   0.93213   0.00000  Uiso   1.00
H722   H     0.12053   0.53602   0.57408   0.00000  Uiso   1.00
H723   H     0.02892   0.56952   0.53346   0.00000  Uiso   1.00
H724   H     0.09672   0.41794   0.87253   0.00000  Uiso   1.00
H725   H     0.06586   0.33687   0.74571   0.00000  Uiso   1.00
N726   N     0.14493   0.48556   0.73542   0.00000  Uiso   1.00
N727   N     0.18840   0.51444   0.76457   0.00000  Uiso   1.00
O728   O     0.29769   0.57963   0.75357   0.00000  Uiso   1.00
O729   O     0.05742   0.57038   0.74423   0.00000  Uiso   1.00
O730   O     0.31490   0.50691   0.83380   0.00000  Uiso   1.00
O731   O     0.07463   0.49766   0.82446   0.00000  Uiso   1.00
O732   O     0.27592   0.42962   0.75576   0.00000  Uiso   1.00
O733   O     0.03565   0.42037   0.74643   0.00000  Uiso   1.00
O734   O     0.25870   0.50234   0.67554   0.00000  Uiso   1.00
O735   O     0.01843   0.49309   0.66620   0.00000  Uiso   1.00
Zn736  Zn    0.27119   0.50618   0.75623   0.00000  Uiso   1.00
Zn737  Zn    0.06214   0.49382   0.74376   0.00000  Uiso   1.00
O738   O     0.01980   0.42739   0.57552   0.00000  Uiso   1.00
C739   C     0.01264   0.37499   0.59095   0.00000  Uiso   1.00
H740   H     0.32733   0.34827   0.55334   0.00000  Uiso   1.00
H741   H     0.31731   0.37155   0.62287   0.00000  Uiso   1.00
C742   C     0.07177   0.35717   0.61703   0.00000  Uiso   1.00
H743   H     0.09143   0.38231   0.65544   0.00000  Uiso   1.00
H744   H     0.06672   0.64928   0.62920   0.00000  Uiso   1.00
H745   H     0.10119   0.35974   0.58593   0.00000  Uiso   1.00
F746   F     0.17363   0.55178   0.79797   0.00000  Uiso   1.00
O747   O     0.19535   0.37573   0.90419   0.00000  Uiso   1.00
C748   C     0.15970   0.66218   0.90517   0.00000  Uiso   1.00
H749   H     0.13025   0.65466   0.86317   0.00000  Uiso   1.00
H750   H     0.13240   0.66266   0.93853   0.00000  Uiso   1.00
C751   C     0.19820   0.61698   0.91626   0.00000  Uiso   1.00
H752   H     0.22593   0.62259   0.95930   0.00000  Uiso   1.00
H753   H     0.17076   0.57945   0.91366   0.00000  Uiso   1.00
H754   H     0.22669   0.61512   0.88442   0.00000  Uiso   1.00
C755   C     0.34832   0.59827   0.74890   0.00000  Uiso   1.00
C756   C     0.46475   0.49423   0.99575   0.00000  Uiso   1.00
C757   C     0.43507   0.47701   0.94112   0.00000  Uiso   1.00
C758   C     0.52171   0.47938   0.51373   0.00000  Uiso   1.00
C759   C     0.54390   0.44029   0.98231   0.00000  Uiso   1.00
C760   C     0.50890   0.41627   0.93306   0.00000  Uiso   1.00
C761   C     0.45557   0.43581   0.91179   0.00000  Uiso   1.00
C762   C     0.55766   0.50351   0.56169   0.00000  Uiso   1.00
C763   C     0.63248   0.44474   0.55434   0.00000  Uiso   1.00
C764   C     0.38604   0.50229   0.91668   0.00000  Uiso   1.00
C765   C     0.35630   0.65291   0.74893   0.00000  Uiso   1.00
C766   C     0.36860   0.50163   0.85537   0.00000  Uiso   1.00
C767   C     0.64419   0.34718   0.75273   0.00000  Uiso   1.00
C768   C     0.65185   0.40176   0.75165   0.00000  Uiso   1.00
C769   C     0.63083   0.49569   0.64459   0.00000  Uiso   1.00
C770   C     0.60020   0.42498   0.50174   0.00000  Uiso   1.00
C771   C     0.60993   0.48385   0.58443   0.00000  Uiso   1.00
C772   C     0.35903   0.53464   0.95031   0.00000  Uiso   1.00
C773   C     0.38335   0.54500   0.50727   0.00000  Uiso   1.00
C774   C     0.43654   0.52616   0.52977   0.00000  Uiso   1.00
H775   H     0.60137   0.66323   0.75621   0.00000  Uiso   1.00
H776   H     0.49006   0.45757   0.70899   0.00000  Uiso   1.00
H777   H     0.61836   0.39632   0.97742   0.00000  Uiso   1.00
H778   H     0.54453   0.53634   0.58424   0.00000  Uiso   1.00
H779   H     0.65369   0.55334   0.93213   0.00000  Uiso   1.00
H780   H     0.45386   0.53602   0.57408   0.00000  Uiso   1.00
H781   H     0.36226   0.56952   0.53346   0.00000  Uiso   1.00
H782   H     0.43006   0.41794   0.87253   0.00000  Uiso   1.00
H783   H     0.39919   0.33687   0.74571   0.00000  Uiso   1.00
N784   N     0.47827   0.48556   0.73542   0.00000  Uiso   1.00
N785   N     0.52173   0.51444   0.76457   0.00000  Uiso   1.00
O786   O     0.63102   0.57963   0.75357   0.00000  Uiso   1.00
O787   O     0.39075   0.57038   0.74423   0.00000  Uiso   1.00
O788   O     0.64823   0.50691   0.83380   0.00000  Uiso   1.00
O789   O     0.40796   0.49766   0.82446   0.00000  Uiso   1.00
O790   O     0.60925   0.42962   0.75576   0.00000  Uiso   1.00
O791   O     0.36898   0.42037   0.74643   0.00000  Uiso   1.00
O792   O     0.59204   0.50234   0.67554   0.00000  Uiso   1.00
O793   O     0.35177   0.49309   0.66620   0.00000  Uiso   1.00
Zn794  Zn    0.60453   0.50618   0.75623   0.00000  Uiso   1.00
Zn795  Zn    0.39547   0.49382   0.74376   0.00000  Uiso   1.00
O796   O     0.35314   0.42739   0.57552   0.00000  Uiso   1.00
C797   C     0.34597   0.37499   0.59095   0.00000  Uiso   1.00
H798   H     0.66067   0.34827   0.55334   0.00000  Uiso   1.00
H799   H     0.65065   0.37155   0.62287   0.00000  Uiso   1.00
C800   C     0.40510   0.35717   0.61703   0.00000  Uiso   1.00
H801   H     0.42477   0.38231   0.65544   0.00000  Uiso   1.00
H802   H     0.40006   0.64928   0.62920   0.00000  Uiso   1.00
H803   H     0.43452   0.35974   0.58593   0.00000  Uiso   1.00
F804   F     0.50697   0.55178   0.79797   0.00000  Uiso   1.00
O805   O     0.52868   0.37573   0.90419   0.00000  Uiso   1.00
C806   C     0.49303   0.66218   0.90517   0.00000  Uiso   1.00
H807   H     0.46358   0.65466   0.86317   0.00000  Uiso   1.00
H808   H     0.46573   0.66266   0.93853   0.00000  Uiso   1.00
C809   C     0.53153   0.61698   0.91626   0.00000  Uiso   1.00
H810   H     0.55927   0.62259   0.95930   0.00000  Uiso   1.00
H811   H     0.50409   0.57945   0.91366   0.00000  Uiso   1.00
H812   H     0.56003   0.61512   0.88442   0.00000  Uiso   1.00
C813   C     0.68165   0.59827   0.74890   0.00000  Uiso   1.00
C814   C     0.79808   0.49423   0.99575   0.00000  Uiso   1.00
C815   C     0.76840   0.47701   0.94112   0.00000  Uiso   1.00
C816   C     0.85504   0.47938   0.51373   0.00000  Uiso   1.00
C817   C     0.87724   0.44029   0.98231   0.00000  Uiso   1.00
C818   C     0.84223   0.41627   0.93306   0.00000  Uiso   1.00
C819   C     0.78890   0.43581   0.91179   0.00000  Uiso   1.00
C820   C     0.89100   0.50351   0.56169   0.00000  Uiso   1.00
C821   C     0.96582   0.44474   0.55434   0.00000  Uiso   1.00
C822   C     0.71937   0.50229   0.91668   0.00000  Uiso   1.00
C823   C     0.68963   0.65291   0.74893   0.00000  Uiso   1.00
C824   C     0.70194   0.50163   0.85537   0.00000  Uiso   1.00
C825   C     0.97753   0.34718   0.75273   0.00000  Uiso   1.00
C826   C     0.98519   0.40176   0.75165   0.00000  Uiso   1.00
C827   C     0.96416   0.49569   0.64459   0.00000  Uiso   1.00
C828   C     0.93354   0.42498   0.50174   0.00000  Uiso   1.00
C829   C     0.94327   0.48385   0.58443   0.00000  Uiso   1.00
C830   C     0.69236   0.53464   0.95031   0.00000  Uiso   1.00
C831   C     0.71669   0.54500   0.50727   0.00000  Uiso   1.00
C832   C     0.76987   0.52616   0.52977   0.00000  Uiso   1.00
H833   H     0.93470   0.66323   0.75621   0.00000  Uiso   1.00
H834   H     0.82339   0.45757   0.70899   0.00000  Uiso   1.00
H835   H     0.95169   0.39632   0.97742   0.00000  Uiso   1.00
H836   H     0.87786   0.53634   0.58424   0.00000  Uiso   1.00
H837   H     0.98702   0.55334   0.93213   0.00000  Uiso   1.00
H838   H     0.78720   0.53602   0.57408   0.00000  Uiso   1.00
H839   H     0.69559   0.56952   0.53346   0.00000  Uiso   1.00
H840   H     0.76339   0.41794   0.87253   0.00000  Uiso   1.00
H841   H     0.73252   0.33687   0.74571   0.00000  Uiso   1.00
N842   N     0.81160   0.48556   0.73542   0.00000  Uiso   1.00
N843   N     0.85507   0.51444   0.76457   0.00000  Uiso   1.00
O844   O     0.96435   0.57963   0.75357   0.00000  Uiso   1.00
O845   O     0.72408   0.57038   0.74423   0.00000  Uiso   1.00
O846   O     0.98157   0.50691   0.83380   0.00000  Uiso   1.00
O847   O     0.74130   0.49766   0.82446   0.00000  Uiso   1.00
O848   O     0.94258   0.42962   0.75576   0.00000  Uiso   1.00
O849   O     0.70231   0.42037   0.74643   0.00000  Uiso   1.00
O850   O     0.92537   0.50234   0.67554   0.00000  Uiso   1.00
O851   O     0.68510   0.49309   0.66620   0.00000  Uiso   1.00
Zn852  Zn    0.93786   0.50618   0.75623   0.00000  Uiso   1.00
Zn853  Zn    0.72881   0.49382   0.74376   0.00000  Uiso   1.00
O854   O     0.68647   0.42739   0.57552   0.00000  Uiso   1.00
C855   C     0.67931   0.37499   0.59095   0.00000  Uiso   1.00
H856   H     0.99400   0.34827   0.55334   0.00000  Uiso   1.00
H857   H     0.98398   0.37155   0.62287   0.00000  Uiso   1.00
C858   C     0.73843   0.35717   0.61703   0.00000  Uiso   1.00
H859   H     0.75810   0.38231   0.65544   0.00000  Uiso   1.00
H860   H     0.73339   0.64928   0.62920   0.00000  Uiso   1.00
H861   H     0.76786   0.35974   0.58593   0.00000  Uiso   1.00
F862   F     0.84030   0.55178   0.79797   0.00000  Uiso   1.00
O863   O     0.86201   0.37573   0.90419   0.00000  Uiso   1.00
C864   C     0.82636   0.66218   0.90517   0.00000  Uiso   1.00
H865   H     0.79692   0.65466   0.86317   0.00000  Uiso   1.00
H866   H     0.79906   0.66266   0.93853   0.00000  Uiso   1.00
C867   C     0.86487   0.61698   0.91626   0.00000  Uiso   1.00
H868   H     0.89260   0.62259   0.95930   0.00000  Uiso   1.00
H869   H     0.83743   0.57945   0.91366   0.00000  Uiso   1.00
H870   H     0.89336   0.61512   0.88442   0.00000  Uiso   1.00
C871   C     0.01498   0.93160   0.74890   0.00000  Uiso   1.00
C872   C     0.13142   0.82756   0.99575   0.00000  Uiso   1.00
C873   C     0.10173   0.81034   0.94112   0.00000  Uiso   1.00
C874   C     0.18838   0.81271   0.51373   0.00000  Uiso   1.00
C875   C     0.21057   0.77363   0.98231   0.00000  Uiso   1.00
C876   C     0.17557   0.74960   0.93306   0.00000  Uiso   1.00
C877   C     0.12223   0.76915   0.91179   0.00000  Uiso   1.00
C878   C     0.22433   0.83684   0.56169   0.00000  Uiso   1.00
C879   C     0.29915   0.77808   0.55434   0.00000  Uiso   1.00
C880   C     0.05270   0.83563   0.91668   0.00000  Uiso   1.00
C881   C     0.02297   0.98625   0.74893   0.00000  Uiso   1.00
C882   C     0.03527   0.83497   0.85537   0.00000  Uiso   1.00
C883   C     0.31086   0.68051   0.75273   0.00000  Uiso   1.00
C884   C     0.31852   0.73509   0.75165   0.00000  Uiso   1.00
C885   C     0.29749   0.82903   0.64459   0.00000  Uiso   1.00
C886   C     0.26687   0.75831   0.50174   0.00000  Uiso   1.00
C887   C     0.27660   0.81718   0.58443   0.00000  Uiso   1.00
C888   C     0.02570   0.86798   0.95031   0.00000  Uiso   1.00
C889   C     0.05002   0.87833   0.50727   0.00000  Uiso   1.00
C890   C     0.10321   0.85950   0.52977   0.00000  Uiso   1.00
H891   H     0.26803   0.99656   0.75621   0.00000  Uiso   1.00
H892   H     0.15673   0.79090   0.70899   0.00000  Uiso   1.00
H893   H     0.28503   0.72966   0.97742   0.00000  Uiso   1.00
H894   H     0.21120   0.86967   0.58424   0.00000  Uiso   1.00
H895   H     0.32036   0.88667   0.93213   0.00000  Uiso   1.00
H896   H     0.12053   0.86936   0.57408   0.00000  Uiso   1.00
H897   H     0.02892   0.90285   0.53346   0.00000  Uiso   1.00
H898   H     0.09672   0.75128   0.87253   0.00000  Uiso   1.00
H899   H     0.06586   0.67020   0.74571   0.00000  Uiso   1.00
N900   N     0.14493   0.81890   0.73542   0.00000  Uiso   1.00
N901   N     0.18840   0.84777   0.76457   0.00000  Uiso   1.00
O902   O     0.29769   0.91296   0.75357   0.00000  Uiso   1.00
O903   O     0.05742   0.90371   0.74423   0.00000  Uiso   1.00
O904   O     0.31490   0.84024   0.83380   0.00000  Uiso   1.00
O905   O     0.07463   0.83099   0.82446   0.00000  Uiso   1.00
O906   O     0.27592   0.76296   0.75576   0.00000  Uiso   1.00
O907   O     0.03565   0.75371   0.74643   0.00000  Uiso   1.00
O908   O     0.25870   0.83567   0.67554   0.00000  Uiso   1.00
O909   O     0.01843   0.82642   0.66620   0.00000  Uiso   1.00
Zn910  Zn    0.27119   0.83951   0.75623   0.00000  Uiso   1.00
Zn911  Zn    0.06214   0.82716   0.74376   0.00000  Uiso   1.00
O912   O     0.01980   0.76072   0.57552   0.00000  Uiso   1.00
C913   C     0.01264   0.70833   0.59095   0.00000  Uiso   1.00
H914   H     0.32733   0.68160   0.55334   0.00000  Uiso   1.00
H915   H     0.31731   0.70488   0.62287   0.00000  Uiso   1.00
C916   C     0.07177   0.69051   0.61703   0.00000  Uiso   1.00
H917   H     0.09143   0.71565   0.65544   0.00000  Uiso   1.00
H918   H     0.06672   0.98262   0.62920   0.00000  Uiso   1.00
H919   H     0.10119   0.69308   0.58593   0.00000  Uiso   1.00
F920   F     0.17363   0.88511   0.79797   0.00000  Uiso   1.00
O921   O     0.19535   0.70907   0.90419   0.00000  Uiso   1.00
C922   C     0.15970   0.99551   0.90517   0.00000  Uiso   1.00
H923   H     0.13025   0.98800   0.86317   0.00000  Uiso   1.00
H924   H     0.13240   0.99599   0.93853   0.00000  Uiso   1.00
C925   C     0.19820   0.95031   0.91626   0.00000  Uiso   1.00
H926   H     0.22593   0.95592   0.95930   0.00000  Uiso   1.00
H927   H     0.17076   0.91278   0.91366   0.00000  Uiso   1.00
H928   H     0.22669   0.94845   0.88442   0.00000  Uiso   1.00
C929   C     0.34832   0.93160   0.74890   0.00000  Uiso   1.00
C930   C     0.46475   0.82756   0.99575   0.00000  Uiso   1.00
C931   C     0.43507   0.81034   0.94112   0.00000  Uiso   1.00
C932   C     0.52171   0.81271   0.51373   0.00000  Uiso   1.00
C933   C     0.54390   0.77363   0.98231   0.00000  Uiso   1.00
C934   C     0.50890   0.74960   0.93306   0.00000  Uiso   1.00
C935   C     0.45557   0.76915   0.91179   0.00000  Uiso   1.00
C936   C     0.55766   0.83684   0.56169   0.00000  Uiso   1.00
C937   C     0.63248   0.77808   0.55434   0.00000  Uiso   1.00
C938   C     0.38604   0.83563   0.91668   0.00000  Uiso   1.00
C939   C     0.35630   0.98625   0.74893   0.00000  Uiso   1.00
C940   C     0.36860   0.83497   0.85537   0.00000  Uiso   1.00
C941   C     0.64419   0.68051   0.75273   0.00000  Uiso   1.00
C942   C     0.65185   0.73509   0.75165   0.00000  Uiso   1.00
C943   C     0.63083   0.82903   0.64459   0.00000  Uiso   1.00
C944   C     0.60020   0.75831   0.50174   0.00000  Uiso   1.00
C945   C     0.60993   0.81718   0.58443   0.00000  Uiso   1.00
C946   C     0.35903   0.86798   0.95031   0.00000  Uiso   1.00
C947   C     0.38335   0.87833   0.50727   0.00000  Uiso   1.00
C948   C     0.43654   0.85950   0.52977   0.00000  Uiso   1.00
H949   H     0.60137   0.99656   0.75621   0.00000  Uiso   1.00
H950   H     0.49006   0.79090   0.70899   0.00000  Uiso   1.00
H951   H     0.61836   0.72966   0.97742   0.00000  Uiso   1.00
H952   H     0.54453   0.86967   0.58424   0.00000  Uiso   1.00
H953   H     0.65369   0.88667   0.93213   0.00000  Uiso   1.00
H954   H     0.45386   0.86936   0.57408   0.00000  Uiso   1.00
H955   H     0.36226   0.90285   0.53346   0.00000  Uiso   1.00
H956   H     0.43006   0.75128   0.87253   0.00000  Uiso   1.00
H957   H     0.39919   0.67020   0.74571   0.00000  Uiso   1.00
N958   N     0.47827   0.81890   0.73542   0.00000  Uiso   1.00
N959   N     0.52173   0.84777   0.76457   0.00000  Uiso   1.00
O960   O     0.63102   0.91296   0.75357   0.00000  Uiso   1.00
O961   O     0.39075   0.90371   0.74423   0.00000  Uiso   1.00
O962   O     0.64823   0.84024   0.83380   0.00000  Uiso   1.00
O963   O     0.40796   0.83099   0.82446   0.00000  Uiso   1.00
O964   O     0.60925   0.76296   0.75576   0.00000  Uiso   1.00
O965   O     0.36898   0.75371   0.74643   0.00000  Uiso   1.00
O966   O     0.59204   0.83567   0.67554   0.00000  Uiso   1.00
O967   O     0.35177   0.82642   0.66620   0.00000  Uiso   1.00
Zn968  Zn    0.60453   0.83951   0.75623   0.00000  Uiso   1.00
Zn969  Zn    0.39547   0.82716   0.74376   0.00000  Uiso   1.00
O970   O     0.35314   0.76072   0.57552   0.00000  Uiso   1.00
C971   C     0.34597   0.70833   0.59095   0.00000  Uiso   1.00
H972   H     0.66067   0.68160   0.55334   0.00000  Uiso   1.00
H973   H     0.65065   0.70488   0.62287   0.00000  Uiso   1.00
C974   C     0.40510   0.69051   0.61703   0.00000  Uiso   1.00
H975   H     0.42477   0.71565   0.65544   0.00000  Uiso   1.00
H976   H     0.40006   0.98262   0.62920   0.00000  Uiso   1.00
H977   H     0.43452   0.69308   0.58593   0.00000  Uiso   1.00
F978   F     0.50697   0.88511   0.79797   0.00000  Uiso   1.00
O979   O     0.52868   0.70907   0.90419   0.00000  Uiso   1.00
C980   C     0.49303   0.99551   0.90517   0.00000  Uiso   1.00
H981   H     0.46358   0.98800   0.86317   0.00000  Uiso   1.00
H982   H     0.46573   0.99599   0.93853   0.00000  Uiso   1.00
C983   C     0.53153   0.95031   0.91626   0.00000  Uiso   1.00
H984   H     0.55927   0.95592   0.95930   0.00000  Uiso   1.00
H985   H     0.50409   0.91278   0.91366   0.00000  Uiso   1.00
H986   H     0.56003   0.94845   0.88442   0.00000  Uiso   1.00
C987   C     0.68165   0.93160   0.74890   0.00000  Uiso   1.00
C988   C     0.79808   0.82756   0.99575   0.00000  Uiso   1.00
C989   C     0.76840   0.81034   0.94112   0.00000  Uiso   1.00
C990   C     0.85504   0.81271   0.51373   0.00000  Uiso   1.00
C991   C     0.87724   0.77363   0.98231   0.00000  Uiso   1.00
C992   C     0.84223   0.74960   0.93306   0.00000  Uiso   1.00
C993   C     0.78890   0.76915   0.91179   0.00000  Uiso   1.00
C994   C     0.89100   0.83684   0.56169   0.00000  Uiso   1.00
C995   C     0.96582   0.77808   0.55434   0.00000  Uiso   1.00
C996   C     0.71937   0.83563   0.91668   0.00000  Uiso   1.00
C997   C     0.68963   0.98625   0.74893   0.00000  Uiso   1.00
C998   C     0.70194   0.83497   0.85537   0.00000  Uiso   1.00
C999   C     0.97753   0.68051   0.75273   0.00000  Uiso   1.00
C1000  C     0.98519   0.73509   0.75165   0.00000  Uiso   1.00
C1001  C     0.96416   0.82903   0.64459   0.00000  Uiso   1.00
C1002  C     0.93354   0.75831   0.50174   0.00000  Uiso   1.00
C1003  C     0.94327   0.81718   0.58443   0.00000  Uiso   1.00
C1004  C     0.69236   0.86798   0.95031   0.00000  Uiso   1.00
C1005  C     0.71669   0.87833   0.50727   0.00000  Uiso   1.00
C1006  C     0.76987   0.85950   0.52977   0.00000  Uiso   1.00
H1007  H     0.93470   0.99656   0.75621   0.00000  Uiso   1.00
H1008  H     0.82339   0.79090   0.70899   0.00000  Uiso   1.00
H1009  H     0.95169   0.72966   0.97742   0.00000  Uiso   1.00
H1010  H     0.87786   0.86967   0.58424   0.00000  Uiso   1.00
H1011  H     0.98702   0.88667   0.93213   0.00000  Uiso   1.00
H1012  H     0.78720   0.86936   0.57408   0.00000  Uiso   1.00
H1013  H     0.69559   0.90285   0.53346   0.00000  Uiso   1.00
H1014  H     0.76339   0.75128   0.87253   0.00000  Uiso   1.00
H1015  H     0.73252   0.67020   0.74571   0.00000  Uiso   1.00
N1016  N     0.81160   0.81890   0.73542   0.00000  Uiso   1.00
N1017  N     0.85507   0.84777   0.76457   0.00000  Uiso   1.00
O1018  O     0.96435   0.91296   0.75357   0.00000  Uiso   1.00
O1019  O     0.72408   0.90371   0.74423   0.00000  Uiso   1.00
O1020  O     0.98157   0.84024   0.83380   0.00000  Uiso   1.00
O1021  O     0.74130   0.83099   0.82446   0.00000  Uiso   1.00
O1022  O     0.94258   0.76296   0.75576   0.00000  Uiso   1.00
O1023  O     0.70231   0.75371   0.74643   0.00000  Uiso   1.00
O1024  O     0.92537   0.83567   0.67554   0.00000  Uiso   1.00
O1025  O     0.68510   0.82642   0.66620   0.00000  Uiso   1.00
Zn1026 Zn    0.93786   0.83951   0.75623   0.00000  Uiso   1.00
Zn1027 Zn    0.72881   0.82716   0.74376   0.00000  Uiso   1.00
O1028  O     0.68647   0.76072   0.57552   0.00000  Uiso   1.00
C1029  C     0.67931   0.70833   0.59095   0.00000  Uiso   1.00
H1030  H     0.99400   0.68160   0.55334   0.00000  Uiso   1.00
H1031  H     0.98398   0.70488   0.62287   0.00000  Uiso   1.00
C1032  C     0.73843   0.69051   0.61703   0.00000  Uiso   1.00
H1033  H     0.75810   0.71565   0.65544   0.00000  Uiso   1.00
H1034  H     0.73339   0.98262   0.62920   0.00000  Uiso   1.00
H1035  H     0.76786   0.69308   0.58593   0.00000  Uiso   1.00
F1036  F     0.84030   0.88511   0.79797   0.00000  Uiso   1.00
O1037  O     0.86201   0.70907   0.90419   0.00000  Uiso   1.00
C1038  C     0.82636   0.99551   0.90517   0.00000  Uiso   1.00
H1039  H     0.79692   0.98800   0.86317   0.00000  Uiso   1.00
H1040  H     0.79906   0.99599   0.93853   0.00000  Uiso   1.00
C1041  C     0.86487   0.95031   0.91626   0.00000  Uiso   1.00
H1042  H     0.89260   0.95592   0.95930   0.00000  Uiso   1.00
H1043  H     0.83743   0.91278   0.91366   0.00000  Uiso   1.00
H1044  H     0.89336   0.94845   0.88442   0.00000  Uiso   1.00
loop_
_geom_bond_atom_site_label_1
_geom_bond_atom_site_label_2
_geom_bond_distance
_geom_bond_site_symmetry_2
_ccdc_geom_bond_type
C1     C11     1.400   .     S
C1     O33     1.288   .     A
C1     O148    1.275   1_455 S
C2     C3      1.403   .     A
C2     C526    1.410   .     S
C2     C542    1.420   .     S
C3     C10     1.404   .     A
C3     C7      1.412   .     A
C4     C8      1.388   .     A
C4     C524    1.410   1_554 S
C4     C527    1.420   1_554 S
C5     C6      1.400   .     A
C5     C526    1.420   .     S
C5     C538    1.405   .     S
C6     C7      1.396   .     A
C6     O51     1.385   .     S
C7     H28     1.083   .     S
C8     H24     1.080   .     S
C8     C17     1.384   .     A
C9     C17     1.407   .     A
C9     C16     1.401   .     A
C9     O100    1.385   .     S
C10    C12     1.452   .     S
C10    C18     1.403   .     A
C11    C303    1.338   1_455 S
C11    H203    1.088   .     S
C12    O35     1.299   .     A
C12    O150    1.288   1_455 S
C13    C14     1.399   .     S
C13    C417    1.338   1_545 S
C13    H369    1.088   1_545 S
C14    O36     1.288   .     A
C14    O95     1.275   .     S
C15    O38     1.298   .     A
C15    C17     1.449   .     S
C15    O97     1.289   .     S
C16    C527    1.405   1_554 S
C16    H545    1.083   1_554 S
C18    C541    1.388   .     S
C18    H141    1.083   1_455 S
C19    C20     1.392   .     A
C19    H27     1.083   .     S
C19    C540    1.388   1_554 S
C20    H26     1.079   .     S
C20    C524    1.420   1_554 S
H21    C187    1.088   .     S
H22    N30     1.029   .     S
H23    C538    1.083   .     S
H25    C76     1.083   .     S
H29    C359    1.088   1_545 S
N30    N31     1.288   .     D
N30    Zn41    2.018   .     S
N31    F50     1.334   .     S
N31    Zn40    2.018   .     S
O32    Zn40    1.946   .     S
O32    C59     1.275   .     S
O33    Zn41    1.974   .     S
O34    Zn40    1.949   .     S
O34    C70     1.288   .     S
O35    Zn41    1.904   .     S
O36    Zn40    1.974   .     S
O37    Zn41    1.946   .     S
O37    C130    1.275   1_455 S
O38    Zn40    1.904   .     S
O39    Zn41    1.949   .     S
O39    C131    1.289   1_455 S
O42    C43     1.413   .     S
O42    C125    1.385   1_455 S
C43    C46     1.521   .     S
C43    H160    1.113   1_455 S
C43    H161    1.115   1_455 S
H44    C101    1.113   .     S
H45    C101    1.115   .     S
C46    H49     1.111   .     S
C46    H47     1.110   .     S
C46    H396    1.111   1_545 S
H48    C220    1.111   .     S
O51    C400    1.417   1_545 S
C52    C55     1.522   .     S
C52    H54     1.118   .     S
C52    H53     1.112   .     S
C52    O225    1.417   .     S
C55    H56     1.111   .     S
C55    H57     1.111   .     S
C55    H58     1.110   .     S
C59    C69     1.400   .     S
C59    O91     1.288   .     A
C60    C61     1.403   .     A
C60    C584    1.410   .     S
C60    C600    1.420   .     S
C61    C68     1.404   .     A
C61    C65     1.412   .     A
C62    C66     1.388   .     A
C62    C582    1.410   1_554 S
C62    C585    1.420   1_554 S
C63    C64     1.400   .     A
C63    C584    1.420   .     S
C63    C596    1.405   .     S
C64    C65     1.396   .     A
C64    O109    1.385   .     S
C65    H86     1.083   .     S
C66    H82     1.080   .     S
C66    C75     1.384   .     A
C67    C75     1.407   .     A
C67    C74     1.401   .     A
C67    O158    1.385   .     S
C68    C70     1.452   .     S
C68    C76     1.403   .     A
C69    C187    1.338   .     S
C69    H261    1.088   .     S
C70    O93     1.299   .     A
C71    C72     1.399   .     S
C71    C475    1.338   1_545 S
C71    H427    1.088   1_545 S
C72    O94     1.288   .     A
C72    O153    1.275   .     S
C73    O96     1.298   .     A
C73    C75     1.449   .     S
C73    O155    1.289   .     S
C74    C585    1.405   1_554 S
C74    H603    1.083   1_554 S
C76    C599    1.388   .     S
C77    C78     1.392   .     A
C77    H85     1.083   .     S
C77    C598    1.388   1_554 S
C78    H84     1.079   .     S
C78    C582    1.420   1_554 S
H79    C245    1.088   .     S
H80    N88     1.029   .     S
H81    C596    1.083   .     S
H83    C134    1.083   .     S
H87    C417    1.088   1_545 S
N88    N89     1.288   .     D
N88    Zn99    2.018   .     S
N89    F108    1.334   .     S
N89    Zn98    2.018   .     S
O90    Zn98    1.946   .     S
O90    C117    1.275   .     S
O91    Zn99    1.974   .     S
O92    Zn98    1.949   .     S
O92    C128    1.288   .     S
O93    Zn99    1.904   .     S
O94    Zn98    1.974   .     S
O95    Zn99    1.946   .     S
O96    Zn98    1.904   .     S
O97    Zn99    1.949   .     S
O100   C101    1.413   .     S
C101   C104    1.521   .     S
H102   C159    1.113   .     S
H103   C159    1.115   .     S
C104   H107    1.111   .     S
C104   H105    1.110   .     S
C104   H454    1.111   1_545 S
H106   C278    1.111   .     S
O109   C458    1.417   1_545 S
C110   C113    1.522   .     S
C110   H112    1.118   .     S
C110   H111    1.112   .     S
C110   O283    1.417   .     S
C113   H114    1.111   .     S
C113   H115    1.111   .     S
C113   H116    1.110   .     S
C117   C127    1.400   .     S
C117   O149    1.288   .     A
C118   C119    1.403   .     A
C118   C642    1.410   .     S
C118   C658    1.420   .     S
C119   C126    1.404   .     A
C119   C123    1.412   .     A
C120   C124    1.388   .     A
C120   C640    1.410   1_554 S
C120   C643    1.420   1_554 S
C121   C122    1.400   .     A
C121   C642    1.420   .     S
C121   C654    1.405   .     S
C122   C123    1.396   .     A
C122   O167    1.385   .     S
C123   H144    1.083   .     S
C124   H140    1.080   .     S
C124   C133    1.384   .     A
C125   C133    1.407   .     A
C125   C132    1.401   .     A
C125   O42     1.385   1_655 S
C126   C128    1.452   .     S
C126   C134    1.403   .     A
C127   C245    1.338   .     S
C127   H319    1.088   .     S
C128   O151    1.299   .     A
C129   C130    1.399   .     S
C129   C359    1.338   1_645 S
C129   H485    1.088   1_545 S
C130   O152    1.288   .     A
C130   O37     1.275   1_655 S
C131   O154    1.298   .     A
C131   C133    1.449   .     S
C131   O39     1.289   1_655 S
C132   C643    1.405   1_554 S
C132   H661    1.083   1_554 S
C134   C657    1.388   .     S
C135   C136    1.392   .     A
C135   H143    1.083   .     S
C135   C656    1.388   1_554 S
C136   H142    1.079   .     S
C136   C640    1.420   1_554 S
H137   C303    1.088   .     S
H138   N146    1.029   .     S
H139   C654    1.083   .     S
H141   C18     1.083   1_655 S
H145   C475    1.088   1_545 S
N146   N147    1.288   .     D
N146   Zn157   2.018   .     S
N147   F166    1.334   .     S
N147   Zn156   2.018   .     S
O148   Zn156   1.946   .     S
O148   C1      1.275   1_655 S
O149   Zn157   1.974   .     S
O150   Zn156   1.949   .     S
O150   C12     1.288   1_655 S
O151   Zn157   1.904   .     S
O152   Zn156   1.974   .     S
O153   Zn157   1.946   .     S
O154   Zn156   1.904   .     S
O155   Zn157   1.949   .     S
O158   C159    1.413   .     S
C159   C162    1.521   .     S
H160   C43     1.113   1_655 S
H161   C43     1.115   1_655 S
C162   H165    1.111   .     S
C162   H163    1.110   .     S
C162   H512    1.111   1_545 S
H164   C336    1.111   .     S
O167   C516    1.417   1_545 S
C168   C171    1.522   .     S
C168   H170    1.118   .     S
C168   H169    1.112   .     S
C168   O341    1.417   .     S
C171   H172    1.111   .     S
C171   H173    1.111   .     S
C171   H174    1.110   .     S
C175   C185    1.400   .     S
C175   O207    1.288   .     A
C175   O322    1.275   1_455 S
C176   C177    1.403   .     A
C176   C700    1.410   .     S
C176   C716    1.420   .     S
C177   C184    1.404   .     A
C177   C181    1.412   .     A
C178   C182    1.388   .     A
C178   C698    1.410   1_554 S
C178   C701    1.420   1_554 S
C179   C180    1.400   .     A
C179   C700    1.420   .     S
C179   C712    1.405   .     S
C180   C181    1.396   .     A
C180   O225    1.385   .     S
C181   H202    1.083   .     S
C182   H198    1.080   .     S
C182   C191    1.384   .     A
C183   C191    1.407   .     A
C183   C190    1.401   .     A
C183   O274    1.385   .     S
C184   C186    1.452   .     S
C184   C192    1.403   .     A
C185   C477    1.338   1_455 S
C185   H377    1.088   .     S
C186   O209    1.299   .     A
C186   O324    1.288   1_455 S
C187   C188    1.399   .     S
C188   O210    1.288   .     A
C188   O269    1.275   .     S
C189   O212    1.298   .     A
C189   C191    1.449   .     S
C189   O271    1.289   .     S
C190   C701    1.405   1_554 S
C190   H719    1.083   1_554 S
C192   C715    1.388   .     S
C192   H315    1.083   1_455 S
C193   C194    1.392   .     A
C193   H201    1.083   .     S
C193   C714    1.388   1_554 S
C194   H200    1.079   .     S
C194   C698    1.420   1_554 S
H195   C361    1.088   .     S
H196   N204    1.029   .     S
H197   C712    1.083   .     S
H199   C250    1.083   .     S
N204   N205    1.288   .     D
N204   Zn215   2.018   .     S
N205   F224    1.334   .     S
N205   Zn214   2.018   .     S
O206   Zn214   1.946   .     S
O206   C233    1.275   .     S
O207   Zn215   1.974   .     S
O208   Zn214   1.949   .     S
O208   C244    1.288   .     S
O209   Zn215   1.904   .     S
O210   Zn214   1.974   .     S
O211   Zn215   1.946   .     S
O211   C304    1.275   1_455 S
O212   Zn214   1.904   .     S
O213   Zn215   1.949   .     S
O213   C305    1.289   1_455 S
O216   C217    1.413   .     S
O216   C299    1.385   1_455 S
C217   C220    1.521   .     S
C217   H334    1.113   1_455 S
C217   H335    1.115   1_455 S
H218   C275    1.113   .     S
H219   C275    1.115   .     S
C220   H223    1.111   .     S
C220   H221    1.110   .     S
H222   C394    1.111   .     S
C226   C229    1.522   .     S
C226   H228    1.118   .     S
C226   H227    1.112   .     S
C226   O399    1.417   .     S
C229   H230    1.111   .     S
C229   H231    1.111   .     S
C229   H232    1.110   .     S
C233   C243    1.400   .     S
C233   O265    1.288   .     A
C234   C235    1.403   .     A
C234   C758    1.410   .     S
C234   C774    1.420   .     S
C235   C242    1.404   .     A
C235   C239    1.412   .     A
C236   C240    1.388   .     A
C236   C756    1.410   1_554 S
C236   C759    1.420   1_554 S
C237   C238    1.400   .     A
C237   C758    1.420   .     S
C237   C770    1.405   .     S
C238   C239    1.396   .     A
C238   O283    1.385   .     S
C239   H260    1.083   .     S
C240   H256    1.080   .     S
C240   C249    1.384   .     A
C241   C249    1.407   .     A
C241   C248    1.401   .     A
C241   O332    1.385   .     S
C242   C244    1.452   .     S
C242   C250    1.403   .     A
C243   C361    1.338   .     S
C243   H435    1.088   .     S
C244   O267    1.299   .     A
C245   C246    1.399   .     S
C246   O268    1.288   .     A
C246   O327    1.275   .     S
C247   O270    1.298   .     A
C247   C249    1.449   .     S
C247   O329    1.289   .     S
C248   C759    1.405   1_554 S
C248   H777    1.083   1_554 S
C250   C773    1.388   .     S
C251   C252    1.392   .     A
C251   H259    1.083   .     S
C251   C772    1.388   1_554 S
C252   H258    1.079   .     S
C252   C756    1.420   1_554 S
H253   C419    1.088   .     S
H254   N262    1.029   .     S
H255   C770    1.083   .     S
H257   C308    1.083   .     S
N262   N263    1.288   .     D
N262   Zn273   2.018   .     S
N263   F282    1.334   .     S
N263   Zn272   2.018   .     S
O264   Zn272   1.946   .     S
O264   C291    1.275   .     S
O265   Zn273   1.974   .     S
O266   Zn272   1.949   .     S
O266   C302    1.288   .     S
O267   Zn273   1.904   .     S
O268   Zn272   1.974   .     S
O269   Zn273   1.946   .     S
O270   Zn272   1.904   .     S
O271   Zn273   1.949   .     S
O274   C275    1.413   .     S
C275   C278    1.521   .     S
H276   C333    1.113   .     S
H277   C333    1.115   .     S
C278   H281    1.111   .     S
C278   H279    1.110   .     S
H280   C452    1.111   .     S
C284   C287    1.522   .     S
C284   H286    1.118   .     S
C284   H285    1.112   .     S
C284   O457    1.417   .     S
C287   H288    1.111   .     S
C287   H289    1.111   .     S
C287   H290    1.110   .     S
C291   C301    1.400   .     S
C291   O323    1.288   .     A
C292   C293    1.403   .     A
C292   C816    1.410   .     S
C292   C832    1.420   .     S
C293   C300    1.404   .     A
C293   C297    1.412   .     A
C294   C298    1.388   .     A
C294   C814    1.410   1_554 S
C294   C817    1.420   1_554 S
C295   C296    1.400   .     A
C295   C816    1.420   .     S
C295   C828    1.405   .     S
C296   C297    1.396   .     A
C296   O341    1.385   .     S
C297   H318    1.083   .     S
C298   H314    1.080   .     S
C298   C307    1.384   .     A
C299   C307    1.407   .     A
C299   C306    1.401   .     A
C299   O216    1.385   1_655 S
C300   C302    1.452   .     S
C300   C308    1.403   .     A
C301   C419    1.338   .     S
C301   H493    1.088   .     S
C302   O325    1.299   .     A
C303   C304    1.399   .     S
C303   C11     1.338   1_655 S
C304   O326    1.288   .     A
C304   O211    1.275   1_655 S
C305   O328    1.298   .     A
C305   C307    1.449   .     S
C305   O213    1.289   1_655 S
C306   C817    1.405   1_554 S
C306   H835    1.083   1_554 S
C308   C831    1.388   .     S
C309   C310    1.392   .     A
C309   H317    1.083   .     S
C309   C830    1.388   1_554 S
C310   H316    1.079   .     S
C310   C814    1.420   1_554 S
H311   C477    1.088   .     S
H312   N320    1.029   .     S
H313   C828    1.083   .     S
H315   C192    1.083   1_655 S
N320   N321    1.288   .     D
N320   Zn331   2.018   .     S
N321   F340    1.334   .     S
N321   Zn330   2.018   .     S
O322   Zn330   1.946   .     S
O322   C175    1.275   1_655 S
O323   Zn331   1.974   .     S
O324   Zn330   1.949   .     S
O324   C186    1.288   1_655 S
O325   Zn331   1.904   .     S
O326   Zn330   1.974   .     S
O327   Zn331   1.946   .     S
O328   Zn330   1.904   .     S
O329   Zn331   1.949   .     S
O332   C333    1.413   .     S
C333   C336    1.521   .     S
H334   C217    1.113   1_655 S
H335   C217    1.115   1_655 S
C336   H339    1.111   .     S
C336   H337    1.110   .     S
H338   C510    1.111   .     S
C342   C345    1.522   .     S
C342   H344    1.118   .     S
C342   H343    1.112   .     S
C342   O515    1.417   .     S
C345   H346    1.111   .     S
C345   H347    1.111   .     S
C345   H348    1.110   .     S
C349   C359    1.400   .     S
C349   O381    1.288   .     A
C349   O496    1.275   1_455 S
C350   C351    1.403   .     A
C350   C874    1.410   .     S
C350   C890    1.420   .     S
C351   C358    1.404   .     A
C351   C355    1.412   .     A
C352   C356    1.388   .     A
C352   C872    1.410   1_554 S
C352   C875    1.420   1_554 S
C353   C354    1.400   .     A
C353   C874    1.420   .     S
C353   C886    1.405   .     S
C354   C355    1.396   .     A
C354   O399    1.385   .     S
C355   H376    1.083   .     S
C356   H372    1.080   .     S
C356   C365    1.384   .     A
C357   C365    1.407   .     A
C357   C364    1.401   .     A
C357   O448    1.385   .     S
C358   C360    1.452   .     S
C358   C366    1.403   .     A
C359   C129    1.338   1_465 S
C359   H29     1.088   1_565 S
C360   O383    1.299   .     A
C360   O498    1.288   1_455 S
C361   C362    1.399   .     S
C362   O384    1.288   .     A
C362   O443    1.275   .     S
C363   O386    1.298   .     A
C363   C365    1.449   .     S
C363   O445    1.289   .     S
C364   C875    1.405   1_554 S
C364   H893    1.083   1_554 S
C366   C889    1.388   .     S
C366   H489    1.083   1_455 S
C367   C368    1.392   .     A
C367   H375    1.083   .     S
C367   C888    1.388   1_554 S
C368   H374    1.079   .     S
C368   C872    1.420   1_554 S
H369   C13     1.088   1_565 S
H370   N378    1.029   .     S
H371   C886    1.083   .     S
H373   C424    1.083   .     S
N378   N379    1.288   .     D
N378   Zn389   2.018   .     S
N379   F398    1.334   .     S
N379   Zn388   2.018   .     S
O380   Zn388   1.946   .     S
O380   C407    1.275   .     S
O381   Zn389   1.974   .     S
O382   Zn388   1.949   .     S
O382   C418    1.288   .     S
O383   Zn389   1.904   .     S
O384   Zn388   1.974   .     S
O385   Zn389   1.946   .     S
O385   C478    1.275   1_455 S
O386   Zn388   1.904   .     S
O387   Zn389   1.949   .     S
O387   C479    1.289   1_455 S
O390   C391    1.413   .     S
O390   C473    1.385   1_455 S
C391   C394    1.521   .     S
C391   H508    1.113   1_455 S
C391   H509    1.115   1_455 S
H392   C449    1.113   .     S
H393   C449    1.115   .     S
C394   H397    1.111   .     S
C394   H395    1.110   .     S
H396   C46     1.111   1_565 S
C400   C403    1.522   .     S
C400   H402    1.118   .     S
C400   H401    1.112   .     S
C400   O51     1.417   1_565 S
C403   H404    1.111   .     S
C403   H405    1.111   .     S
C403   H406    1.110   .     S
C407   C417    1.400   .     S
C407   O439    1.288   .     A
C408   C409    1.403   .     A
C408   C932    1.410   .     S
C408   C948    1.420   .     S
C409   C416    1.404   .     A
C409   C413    1.412   .     A
C410   C414    1.388   .     A
C410   C930    1.410   1_554 S
C410   C933    1.420   1_554 S
C411   C412    1.400   .     A
C411   C932    1.420   .     S
C411   C944    1.405   .     S
C412   C413    1.396   .     A
C412   O457    1.385   .     S
C413   H434    1.083   .     S
C414   H430    1.080   .     S
C414   C423    1.384   .     A
C415   C423    1.407   .     A
C415   C422    1.401   .     A
C415   O506    1.385   .     S
C416   C418    1.452   .     S
C416   C424    1.403   .     A
C417   C13     1.338   1_565 S
C417   H87     1.088   1_565 S
C418   O441    1.299   .     A
C419   C420    1.399   .     S
C420   O442    1.288   .     A
C420   O501    1.275   .     S
C421   O444    1.298   .     A
C421   C423    1.449   .     S
C421   O503    1.289   .     S
C422   C933    1.405   1_554 S
C422   H951    1.083   1_554 S
C424   C947    1.388   .     S
C425   C426    1.392   .     A
C425   H433    1.083   .     S
C425   C946    1.388   1_554 S
C426   H432    1.079   .     S
C426   C930    1.420   1_554 S
H427   C71     1.088   1_565 S
H428   N436    1.029   .     S
H429   C944    1.083   .     S
H431   C482    1.083   .     S
N436   N437    1.288   .     D
N436   Zn447   2.018   .     S
N437   F456    1.334   .     S
N437   Zn446   2.018   .     S
O438   Zn446   1.946   .     S
O438   C465    1.275   .     S
O439   Zn447   1.974   .     S
O440   Zn446   1.949   .     S
O440   C476    1.288   .     S
O441   Zn447   1.904   .     S
O442   Zn446   1.974   .     S
O443   Zn447   1.946   .     S
O444   Zn446   1.904   .     S
O445   Zn447   1.949   .     S
O448   C449    1.413   .     S
C449   C452    1.521   .     S
H450   C507    1.113   .     S
H451   C507    1.115   .     S
C452   H455    1.111   .     S
C452   H453    1.110   .     S
H454   C104    1.111   1_565 S
C458   C461    1.522   .     S
C458   H460    1.118   .     S
C458   H459    1.112   .     S
C458   O109    1.417   1_565 S
C461   H462    1.111   .     S
C461   H463    1.111   .     S
C461   H464    1.110   .     S
C465   C475    1.400   .     S
C465   O497    1.288   .     A
C466   C467    1.403   .     A
C466   C990    1.410   .     S
C466   C1006   1.420   .     S
C467   C474    1.404   .     A
C467   C471    1.412   .     A
C468   C472    1.388   .     A
C468   C988    1.410   1_554 S
C468   C991    1.420   1_554 S
C469   C470    1.400   .     A
C469   C990    1.420   .     S
C469   C1002   1.405   .     S
C470   C471    1.396   .     A
C470   O515    1.385   .     S
C471   H492    1.083   .     S
C472   H488    1.080   .     S
C472   C481    1.384   .     A
C473   C481    1.407   .     A
C473   C480    1.401   .     A
C473   O390    1.385   1_655 S
C474   C476    1.452   .     S
C474   C482    1.403   .     A
C475   C71     1.338   1_565 S
C475   H145    1.088   1_565 S
C476   O499    1.299   .     A
C477   C478    1.399   .     S
C477   C185    1.338   1_655 S
C478   O500    1.288   .     A
C478   O385    1.275   1_655 S
C479   O502    1.298   .     A
C479   C481    1.449   .     S
C479   O387    1.289   1_655 S
C480   C991    1.405   1_554 S
C480   H1009   1.083   1_554 S
C482   C1005   1.388   .     S
C483   C484    1.392   .     A
C483   H491    1.083   .     S
C483   C1004   1.388   1_554 S
C484   H490    1.079   .     S
C484   C988    1.420   1_554 S
H485   C129    1.088   1_565 S
H486   N494    1.029   .     S
H487   C1002   1.083   .     S
H489   C366    1.083   1_655 S
N494   N495    1.288   .     D
N494   Zn505   2.018   .     S
N495   F514    1.334   .     S
N495   Zn504   2.018   .     S
O496   Zn504   1.946   .     S
O496   C349    1.275   1_655 S
O497   Zn505   1.974   .     S
O498   Zn504   1.949   .     S
O498   C360    1.288   1_655 S
O499   Zn505   1.904   .     S
O500   Zn504   1.974   .     S
O501   Zn505   1.946   .     S
O502   Zn504   1.904   .     S
O503   Zn505   1.949   .     S
O506   C507    1.413   .     S
C507   C510    1.521   .     S
H508   C391    1.113   1_655 S
H509   C391    1.115   1_655 S
C510   H513    1.111   .     S
C510   H511    1.110   .     S
H512   C162    1.111   1_565 S
C516   C519    1.522   .     S
C516   H518    1.118   .     S
C516   H517    1.112   .     S
C516   O167    1.417   1_565 S
C519   H520    1.111   .     S
C519   H521    1.111   .     S
C519   H522    1.110   .     S
C523   C533    1.400   .     S
C523   O555    1.288   .     A
C523   O670    1.275   1_455 S
C524   C525    1.403   .     A
C524   C4      1.410   1_556 S
C524   C20     1.420   1_556 S
C525   C532    1.404   .     A
C525   C529    1.412   .     A
C526   C530    1.388   .     A
C527   C528    1.400   .     A
C527   C4      1.420   1_556 S
C527   C16     1.405   1_556 S
C528   C529    1.396   .     A
C528   O573    1.385   .     S
C529   H550    1.083   .     S
C530   H546    1.080   .     S
C530   C539    1.384   .     A
C531   C539    1.407   .     A
C531   C538    1.401   .     A
C531   O622    1.385   .     S
C532   C534    1.452   .     S
C532   C540    1.403   .     A
C533   C825    1.338   1_455 S
C533   H725    1.088   .     S
C534   O557    1.299   .     A
C534   O672    1.288   1_455 S
C535   C536    1.399   .     S
C535   C939    1.338   1_545 S
C535   H891    1.088   1_545 S
C536   O558    1.288   .     A
C536   O617    1.275   .     S
C537   O560    1.298   .     A
C537   C539    1.449   .     S
C537   O619    1.289   .     S
C540   C19     1.388   1_556 S
C540   H663    1.083   1_455 S
C541   C542    1.392   .     A
C541   H549    1.083   .     S
C542   H548    1.079   .     S
H543   C709    1.088   .     S
H544   N552    1.029   .     S
H545   C16     1.083   1_556 S
H547   C598    1.083   .     S
H551   C881    1.088   1_545 S
N552   N553    1.288   .     D
N552   Zn563   2.018   .     S
N553   F572    1.334   .     S
N553   Zn562   2.018   .     S
O554   Zn562   1.946   .     S
O554   C581    1.275   .     S
O555   Zn563   1.974   .     S
O556   Zn562   1.949   .     S
O556   C592    1.288   .     S
O557   Zn563   1.904   .     S
O558   Zn562   1.974   .     S
O559   Zn563   1.946   .     S
O559   C652    1.275   1_455 S
O560   Zn562   1.904   .     S
O561   Zn563   1.949   .     S
O561   C653    1.289   1_455 S
O564   C565    1.413   .     S
O564   C647    1.385   1_455 S
C565   C568    1.521   .     S
C565   H682    1.113   1_455 S
C565   H683    1.115   1_455 S
H566   C623    1.113   .     S
H567   C623    1.115   .     S
C568   H571    1.111   .     S
C568   H569    1.110   .     S
C568   H918    1.111   1_545 S
H570   C742    1.111   .     S
O573   C922    1.417   1_545 S
C574   C577    1.522   .     S
C574   H576    1.118   .     S
C574   H575    1.112   .     S
C574   O747    1.417   .     S
C577   H578    1.111   .     S
C577   H579    1.111   .     S
C577   H580    1.110   .     S
C581   C591    1.400   .     S
C581   O613    1.288   .     A
C582   C583    1.403   .     A
C582   C62     1.410   1_556 S
C582   C78     1.420   1_556 S
C583   C590    1.404   .     A
C583   C587    1.412   .     A
C584   C588    1.388   .     A
C585   C586    1.400   .     A
C585   C62     1.420   1_556 S
C585   C74     1.405   1_556 S
C586   C587    1.396   .     A
C586   O631    1.385   .     S
C587   H608    1.083   .     S
C588   H604    1.080   .     S
C588   C597    1.384   .     A
C589   C597    1.407   .     A
C589   C596    1.401   .     A
C589   O680    1.385   .     S
C590   C592    1.452   .     S
C590   C598    1.403   .     A
C591   C709    1.338   .     S
C591   H783    1.088   .     S
C592   O615    1.299   .     A
C593   C594    1.399   .     S
C593   C997    1.338   1_545 S
C593   H949    1.088   1_545 S
C594   O616    1.288   .     A
C594   O675    1.275   .     S
C595   O618    1.298   .     A
C595   C597    1.449   .     S
C595   O677    1.289   .     S
C598   C77     1.388   1_556 S
C599   C600    1.392   .     A
C599   H607    1.083   .     S
C600   H606    1.079   .     S
H601   C767    1.088   .     S
H602   N610    1.029   .     S
H603   C74     1.083   1_556 S
H605   C656    1.083   .     S
H609   C939    1.088   1_545 S
N610   N611    1.288   .     D
N610   Zn621   2.018   .     S
N611   F630    1.334   .     S
N611   Zn620   2.018   .     S
O612   Zn620   1.946   .     S
O612   C639    1.275   .     S
O613   Zn621   1.974   .     S
O614   Zn620   1.949   .     S
O614   C650    1.288   .     S
O615   Zn621   1.904   .     S
O616   Zn620   1.974   .     S
O617   Zn621   1.946   .     S
O618   Zn620   1.904   .     S
O619   Zn621   1.949   .     S
O622   C623    1.413   .     S
C623   C626    1.521   .     S
H624   C681    1.113   .     S
H625   C681    1.115   .     S
C626   H629    1.111   .     S
C626   H627    1.110   .     S
C626   H976    1.111   1_545 S
H628   C800    1.111   .     S
O631   C980    1.417   1_545 S
C632   C635    1.522   .     S
C632   H634    1.118   .     S
C632   H633    1.112   .     S
C632   O805    1.417   .     S
C635   H636    1.111   .     S
C635   H637    1.111   .     S
C635   H638    1.110   .     S
C639   C649    1.400   .     S
C639   O671    1.288   .     A
C640   C641    1.403   .     A
C640   C120    1.410   1_556 S
C640   C136    1.420   1_556 S
C641   C648    1.404   .     A
C641   C645    1.412   .     A
C642   C646    1.388   .     A
C643   C644    1.400   .     A
C643   C120    1.420   1_556 S
C643   C132    1.405   1_556 S
C644   C645    1.396   .     A
C644   O689    1.385   .     S
C645   H666    1.083   .     S
C646   H662    1.080   .     S
C646   C655    1.384   .     A
C647   C655    1.407   .     A
C647   C654    1.401   .     A
C647   O564    1.385   1_655 S
C648   C650    1.452   .     S
C648   C656    1.403   .     A
C649   C767    1.338   .     S
C649   H841    1.088   .     S
C650   O673    1.299   .     A
C651   C652    1.399   .     S
C651   C881    1.338   1_645 S
C651   H1007   1.088   1_545 S
C652   O674    1.288   .     A
C652   O559    1.275   1_655 S
C653   O676    1.298   .     A
C653   C655    1.449   .     S
C653   O561    1.289   1_655 S
C656   C135    1.388   1_556 S
C657   C658    1.392   .     A
C657   H665    1.083   .     S
C658   H664    1.079   .     S
H659   C825    1.088   .     S
H660   N668    1.029   .     S
H661   C132    1.083   1_556 S
H663   C540    1.083   1_655 S
H667   C997    1.088   1_545 S
N668   N669    1.288   .     D
N668   Zn679   2.018   .     S
N669   F688    1.334   .     S
N669   Zn678   2.018   .     S
O670   Zn678   1.946   .     S
O670   C523    1.275   1_655 S
O671   Zn679   1.974   .     S
O672   Zn678   1.949   .     S
O672   C534    1.288   1_655 S
O673   Zn679   1.904   .     S
O674   Zn678   1.974   .     S
O675   Zn679   1.946   .     S
O676   Zn678   1.904   .     S
O677   Zn679   1.949   .     S
O680   C681    1.413   .     S
C681   C684    1.521   .     S
H682   C565    1.113   1_655 S
H683   C565    1.115   1_655 S
C684   H687    1.111   .     S
C684   H685    1.110   .     S
C684   H1034   1.111   1_545 S
H686   C858    1.111   .     S
O689   C1038   1.417   1_545 S
C690   C693    1.522   .     S
C690   H692    1.118   .     S
C690   H691    1.112   .     S
C690   O863    1.417   .     S
C693   H694    1.111   .     S
C693   H695    1.111   .     S
C693   H696    1.110   .     S
C697   C707    1.400   .     S
C697   O729    1.288   .     A
C697   O844    1.275   1_455 S
C698   C699    1.403   .     A
C698   C178    1.410   1_556 S
C698   C194    1.420   1_556 S
C699   C706    1.404   .     A
C699   C703    1.412   .     A
C700   C704    1.388   .     A
C701   C702    1.400   .     A
C701   C178    1.420   1_556 S
C701   C190    1.405   1_556 S
C702   C703    1.396   .     A
C702   O747    1.385   .     S
C703   H724    1.083   .     S
C704   H720    1.080   .     S
C704   C713    1.384   .     A
C705   C713    1.407   .     A
C705   C712    1.401   .     A
C705   O796    1.385   .     S
C706   C708    1.452   .     S
C706   C714    1.403   .     A
C707   C999    1.338   1_455 S
C707   H899    1.088   .     S
C708   O731    1.299   .     A
C708   O846    1.288   1_455 S
C709   C710    1.399   .     S
C710   O732    1.288   .     A
C710   O791    1.275   .     S
C711   O734    1.298   .     A
C711   C713    1.449   .     S
C711   O793    1.289   .     S
C714   C193    1.388   1_556 S
C714   H837    1.083   1_455 S
C715   C716    1.392   .     A
C715   H723    1.083   .     S
C716   H722    1.079   .     S
H717   C883    1.088   .     S
H718   N726    1.029   .     S
H719   C190    1.083   1_556 S
H721   C772    1.083   .     S
N726   N727    1.288   .     D
N726   Zn737   2.018   .     S
N727   F746    1.334   .     S
N727   Zn736   2.018   .     S
O728   Zn736   1.946   .     S
O728   C755    1.275   .     S
O729   Zn737   1.974   .     S
O730   Zn736   1.949   .     S
O730   C766    1.288   .     S
O731   Zn737   1.904   .     S
O732   Zn736   1.974   .     S
O733   Zn737   1.946   .     S
O733   C826    1.275   1_455 S
O734   Zn736   1.904   .     S
O735   Zn737   1.949   .     S
O735   C827    1.289   1_455 S
O738   C739    1.413   .     S
O738   C821    1.385   1_455 S
C739   C742    1.521   .     S
C739   H856    1.113   1_455 S
C739   H857    1.115   1_455 S
H740   C797    1.113   .     S
H741   C797    1.115   .     S
C742   H745    1.111   .     S
C742   H743    1.110   .     S
H744   C916    1.111   .     S
C748   C751    1.522   .     S
C748   H750    1.118   .     S
C748   H749    1.112   .     S
C748   O921    1.417   .     S
C751   H752    1.111   .     S
C751   H753    1.111   .     S
C751   H754    1.110   .     S
C755   C765    1.400   .     S
C755   O787    1.288   .     A
C756   C757    1.403   .     A
C756   C236    1.410   1_556 S
C756   C252    1.420   1_556 S
C757   C764    1.404   .     A
C757   C761    1.412   .     A
C758   C762    1.388   .     A
C759   C760    1.400   .     A
C759   C236    1.420   1_556 S
C759   C248    1.405   1_556 S
C760   C761    1.396   .     A
C760   O805    1.385   .     S
C761   H782    1.083   .     S
C762   H778    1.080   .     S
C762   C771    1.384   .     A
C763   C771    1.407   .     A
C763   C770    1.401   .     A
C763   O854    1.385   .     S
C764   C766    1.452   .     S
C764   C772    1.403   .     A
C765   C883    1.338   .     S
C765   H957    1.088   .     S
C766   O789    1.299   .     A
C767   C768    1.399   .     S
C768   O790    1.288   .     A
C768   O849    1.275   .     S
C769   O792    1.298   .     A
C769   C771    1.449   .     S
C769   O851    1.289   .     S
C772   C251    1.388   1_556 S
C773   C774    1.392   .     A
C773   H781    1.083   .     S
C774   H780    1.079   .     S
H775   C941    1.088   .     S
H776   N784    1.029   .     S
H777   C248    1.083   1_556 S
H779   C830    1.083   .     S
N784   N785    1.288   .     D
N784   Zn795   2.018   .     S
N785   F804    1.334   .     S
N785   Zn794   2.018   .     S
O786   Zn794   1.946   .     S
O786   C813    1.275   .     S
O787   Zn795   1.974   .     S
O788   Zn794   1.949   .     S
O788   C824    1.288   .     S
O789   Zn795   1.904   .     S
O790   Zn794   1.974   .     S
O791   Zn795   1.946   .     S
O792   Zn794   1.904   .     S
O793   Zn795   1.949   .     S
O796   C797    1.413   .     S
C797   C800    1.521   .     S
H798   C855    1.113   .     S
H799   C855    1.115   .     S
C800   H803    1.111   .     S
C800   H801    1.110   .     S
H802   C974    1.111   .     S
C806   C809    1.522   .     S
C806   H808    1.118   .     S
C806   H807    1.112   .     S
C806   O979    1.417   .     S
C809   H810    1.111   .     S
C809   H811    1.111   .     S
C809   H812    1.110   .     S
C813   C823    1.400   .     S
C813   O845    1.288   .     A
C814   C815    1.403   .     A
C814   C294    1.410   1_556 S
C814   C310    1.420   1_556 S
C815   C822    1.404   .     A
C815   C819    1.412   .     A
C816   C820    1.388   .     A
C817   C818    1.400   .     A
C817   C294    1.420   1_556 S
C817   C306    1.405   1_556 S
C818   C819    1.396   .     A
C818   O863    1.385   .     S
C819   H840    1.083   .     S
C820   H836    1.080   .     S
C820   C829    1.384   .     A
C821   C829    1.407   .     A
C821   C828    1.401   .     A
C821   O738    1.385   1_655 S
C822   C824    1.452   .     S
C822   C830    1.403   .     A
C823   C941    1.338   .     S
C823   H1015   1.088   .     S
C824   O847    1.299   .     A
C825   C826    1.399   .     S
C825   C533    1.338   1_655 S
C826   O848    1.288   .     A
C826   O733    1.275   1_655 S
C827   O850    1.298   .     A
C827   C829    1.449   .     S
C827   O735    1.289   1_655 S
C830   C309    1.388   1_556 S
C831   C832    1.392   .     A
C831   H839    1.083   .     S
C832   H838    1.079   .     S
H833   C999    1.088   .     S
H834   N842    1.029   .     S
H835   C306    1.083   1_556 S
H837   C714    1.083   1_655 S
N842   N843    1.288   .     D
N842   Zn853   2.018   .     S
N843   F862    1.334   .     S
N843   Zn852   2.018   .     S
O844   Zn852   1.946   .     S
O844   C697    1.275   1_655 S
O845   Zn853   1.974   .     S
O846   Zn852   1.949   .     S
O846   C708    1.288   1_655 S
O847   Zn853   1.904   .     S
O848   Zn852   1.974   .     S
O849   Zn853   1.946   .     S
O850   Zn852   1.904   .     S
O851   Zn853   1.949   .     S
O854   C855    1.413   .     S
C855   C858    1.521   .     S
H856   C739    1.113   1_655 S
H857   C739    1.115   1_655 S
C858   H861    1.111   .     S
C858   H859    1.110   .     S
H860   C1032   1.111   .     S
C864   C867    1.522   .     S
C864   H866    1.118   .     S
C864   H865    1.112   .     S
C864   O1037   1.417   .     S
C867   H868    1.111   .     S
C867   H869    1.111   .     S
C867   H870    1.110   .     S
C871   C881    1.400   .     S
C871   O903    1.288   .     A
C871   O1018   1.275   1_455 S
C872   C873    1.403   .     A
C872   C352    1.410   1_556 S
C872   C368    1.420   1_556 S
C873   C880    1.404   .     A
C873   C877    1.412   .     A
C874   C878    1.388   .     A
C875   C876    1.400   .     A
C875   C352    1.420   1_556 S
C875   C364    1.405   1_556 S
C876   C877    1.396   .     A
C876   O921    1.385   .     S
C877   H898    1.083   .     S
C878   H894    1.080   .     S
C878   C887    1.384   .     A
C879   C887    1.407   .     A
C879   C886    1.401   .     A
C879   O970    1.385   .     S
C880   C882    1.452   .     S
C880   C888    1.403   .     A
C881   C651    1.338   1_465 S
C881   H551    1.088   1_565 S
C882   O905    1.299   .     A
C882   O1020   1.288   1_455 S
C883   C884    1.399   .     S
C884   O906    1.288   .     A
C884   O965    1.275   .     S
C885   O908    1.298   .     A
C885   C887    1.449   .     S
C885   O967    1.289   .     S
C888   C367    1.388   1_556 S
C888   H1011   1.083   1_455 S
C889   C890    1.392   .     A
C889   H897    1.083   .     S
C890   H896    1.079   .     S
H891   C535    1.088   1_565 S
H892   N900    1.029   .     S
H893   C364    1.083   1_556 S
H895   C946    1.083   .     S
N900   N901    1.288   .     D
N900   Zn911   2.018   .     S
N901   F920    1.334   .     S
N901   Zn910   2.018   .     S
O902   Zn910   1.946   .     S
O902   C929    1.275   .     S
O903   Zn911   1.974   .     S
O904   Zn910   1.949   .     S
O904   C940    1.288   .     S
O905   Zn911   1.904   .     S
O906   Zn910   1.974   .     S
O907   Zn911   1.946   .     S
O907   C1000   1.275   1_455 S
O908   Zn910   1.904   .     S
O909   Zn911   1.949   .     S
O909   C1001   1.289   1_455 S
O912   C913    1.413   .     S
O912   C995    1.385   1_455 S
C913   C916    1.521   .     S
C913   H1030   1.113   1_455 S
C913   H1031   1.115   1_455 S
H914   C971    1.113   .     S
H915   C971    1.115   .     S
C916   H919    1.111   .     S
C916   H917    1.110   .     S
H918   C568    1.111   1_565 S
C922   C925    1.522   .     S
C922   H924    1.118   .     S
C922   H923    1.112   .     S
C922   O573    1.417   1_565 S
C925   H926    1.111   .     S
C925   H927    1.111   .     S
C925   H928    1.110   .     S
C929   C939    1.400   .     S
C929   O961    1.288   .     A
C930   C931    1.403   .     A
C930   C410    1.410   1_556 S
C930   C426    1.420   1_556 S
C931   C938    1.404   .     A
C931   C935    1.412   .     A
C932   C936    1.388   .     A
C933   C934    1.400   .     A
C933   C410    1.420   1_556 S
C933   C422    1.405   1_556 S
C934   C935    1.396   .     A
C934   O979    1.385   .     S
C935   H956    1.083   .     S
C936   H952    1.080   .     S
C936   C945    1.384   .     A
C937   C945    1.407   .     A
C937   C944    1.401   .     A
C937   O1028   1.385   .     S
C938   C940    1.452   .     S
C938   C946    1.403   .     A
C939   C535    1.338   1_565 S
C939   H609    1.088   1_565 S
C940   O963    1.299   .     A
C941   C942    1.399   .     S
C942   O964    1.288   .     A
C942   O1023   1.275   .     S
C943   O966    1.298   .     A
C943   C945    1.449   .     S
C943   O1025   1.289   .     S
C946   C425    1.388   1_556 S
C947   C948    1.392   .     A
C947   H955    1.083   .     S
C948   H954    1.079   .     S
H949   C593    1.088   1_565 S
H950   N958    1.029   .     S
H951   C422    1.083   1_556 S
H953   C1004   1.083   .     S
N958   N959    1.288   .     D
N958   Zn969   2.018   .     S
N959   F978    1.334   .     S
N959   Zn968   2.018   .     S
O960   Zn968   1.946   .     S
O960   C987    1.275   .     S
O961   Zn969   1.974   .     S
O962   Zn968   1.949   .     S
O962   C998    1.288   .     S
O963   Zn969   1.904   .     S
O964   Zn968   1.974   .     S
O965   Zn969   1.946   .     S
O966   Zn968   1.904   .     S
O967   Zn969   1.949   .     S
O970   C971    1.413   .     S
C971   C974    1.521   .     S
H972   C1029   1.113   .     S
H973   C1029   1.115   .     S
C974   H977    1.111   .     S
C974   H975    1.110   .     S
H976   C626    1.111   1_565 S
C980   C983    1.522   .     S
C980   H982    1.118   .     S
C980   H981    1.112   .     S
C980   O631    1.417   1_565 S
C983   H984    1.111   .     S
C983   H985    1.111   .     S
C983   H986    1.110   .     S
C987   C997    1.400   .     S
C987   O1019   1.288   .     A
C988   C989    1.403   .     A
C988   C468    1.410   1_556 S
C988   C484    1.420   1_556 S
C989   C996    1.404   .     A
C989   C993    1.412   .     A
C990   C994    1.388   .     A
C991   C992    1.400   .     A
C991   C468    1.420   1_556 S
C991   C480    1.405   1_556 S
C992   C993    1.396   .     A
C992   O1037   1.385   .     S
C993   H1014   1.083   .     S
C994   H1010   1.080   .     S
C994   C1003   1.384   .     A
C995   C1003   1.407   .     A
C995   C1002   1.401   .     A
C995   O912    1.385   1_655 S
C996   C998    1.452   .     S
C996   C1004   1.403   .     A
C997   C593    1.338   1_565 S
C997   H667    1.088   1_565 S
C998   O1021   1.299   .     A
C999   C1000   1.399   .     S
C999   C707    1.338   1_655 S
C1000  O1022   1.288   .     A
C1000  O907    1.275   1_655 S
C1001  O1024   1.298   .     A
C1001  C1003   1.449   .     S
C1001  O909    1.289   1_655 S
C1004  C483    1.388   1_556 S
C1005  C1006   1.392   .     A
C1005  H1013   1.083   .     S
C1006  H1012   1.079   .     S
H1007  C651    1.088   1_565 S
H1008  N1016   1.029   .     S
H1009  C480    1.083   1_556 S
H1011  C888    1.083   1_655 S
N1016  N1017   1.288   .     D
N1016  Zn1027  2.018   .     S
N1017  F1036   1.334   .     S
N1017  Zn1026  2.018   .     S
O1018  Zn1026  1.946   .     S
O1018  C871    1.275   1_655 S
O1019  Zn1027  1.974   .     S
O1020  Zn1026  1.949   .     S
O1020  C882    1.288   1_655 S
O1021  Zn1027  1.904   .     S
O1022  Zn1026  1.974   .     S
O1023  Zn1027  1.946   .     S
O1024  Zn1026  1.904   .     S
O1025  Zn1027  1.949   .     S
O1028  C1029   1.413   .     S
C1029  C1032   1.521   .     S
H1030  C913    1.113   1_655 S
H1031  C913    1.115   1_655 S
C1032  H1035   1.111   .     S
C1032  H1033   1.110   .     S
H1034  C684    1.111   1_565 S
C1038  C1041   1.522   .     S
C1038  H1040   1.118   .     S
C1038  H1039   1.112   .     S
C1038  O689    1.417   1_565 S
C1041  H1042   1.111   .     S
C1041  H1043   1.111   .     S
C1041  H1044   1.110   .     S
