data_str_m3_o2_o10_pcu_sym.102
_audit_creation_date              2020-01-03
_audit_creation_method            'Materials Studio'
_symmetry_space_group_name_H-M    'P1'
_symmetry_Int_Tables_number       1
_symmetry_cell_setting            triclinic
loop_
_symmetry_equiv_pos_as_xyz
  x,y,z
_cell_length_a                    25.7792
_cell_length_b                    29.8918
_cell_length_c                    28.3500
_cell_angle_alpha                 90.1506
_cell_angle_beta                  98.6531
_cell_angle_gamma                 90.0137
loop_
_atom_site_label
_atom_site_type_symbol
_atom_site_fract_x
_atom_site_fract_y
_atom_site_fract_z
_atom_site_U_iso_or_equiv
_atom_site_adp_type
_atom_site_occupancy
C1     C     0.16597   0.16383   0.24983   0.00000  Uiso   1.00
C2     C     0.12511   0.23092   0.44167   0.00000  Uiso   1.00
C3     C     0.16673   0.24998   0.02670   0.00000  Uiso   1.00
C4     C     0.16672   0.24999   0.47333   0.00000  Uiso   1.00
C5     C     0.06700   0.25000   0.23753   0.00000  Uiso   1.00
C6     C     0.26633   0.25003   0.26247   0.00000  Uiso   1.00
C7     C     0.01198   0.25003   0.23081   0.00000  Uiso   1.00
C8     C     0.32135   0.25004   0.26921   0.00000  Uiso   1.00
C9     C     0.17589   0.04535   0.28849   0.00000  Uiso   1.00
C10    C     0.17688   0.45461   0.21435   0.00000  Uiso   1.00
C11    C     0.18129   0.09128   0.28924   0.00000  Uiso   1.00
C12    C     0.16602   0.33616   0.24997   0.00000  Uiso   1.00
C13    C     0.18230   0.40869   0.21522   0.00000  Uiso   1.00
C14    C     0.16095   0.11597   0.24896   0.00000  Uiso   1.00
C15    C     0.16105   0.38400   0.24941   0.00000  Uiso   1.00
C16    C     0.13388   0.09503   0.20833   0.00000  Uiso   1.00
C17    C     0.13303   0.40489   0.28191   0.00000  Uiso   1.00
C18    C     0.12746   0.04899   0.20767   0.00000  Uiso   1.00
C19    C     0.12654   0.45092   0.28063   0.00000  Uiso   1.00
C20    C     0.14922   0.02415   0.24788   0.00000  Uiso   1.00
C21    C     0.14925   0.47577   0.24695   0.00000  Uiso   1.00
C22    C     0.09829   0.02802   0.16591   0.00000  Uiso   1.00
C23    C     0.14285   0.21522   0.04927   0.00000  Uiso   1.00
C24    C     0.09631   0.47185   0.31359   0.00000  Uiso   1.00
C25    C     0.20831   0.26908   0.45312   0.00000  Uiso   1.00
C26    C     0.14313   0.21595   0.09892   0.00000  Uiso   1.00
C27    C     0.20742   0.26885   0.40338   0.00000  Uiso   1.00
C28    C     0.19027   0.28401   0.10557   0.00000  Uiso   1.00
C29    C     0.12595   0.23114   0.39217   0.00000  Uiso   1.00
C30    C     0.19062   0.28473   0.05601   0.00000  Uiso   1.00
H31    H     0.32468   0.25003   0.19439   0.00000  Uiso   1.00
H32    H     0.24184   0.28358   0.47549   0.00000  Uiso   1.00
H33    H     0.12458   0.18906   0.11567   0.00000  Uiso   1.00
H34    H     0.23959   0.28368   0.38845   0.00000  Uiso   1.00
H35    H     0.20884   0.31088   0.12755   0.00000  Uiso   1.00
H36    H     0.09378   0.21624   0.36843   0.00000  Uiso   1.00
H37    H     0.20887   0.31275   0.04084   0.00000  Uiso   1.00
H38    H     0.09160   0.21640   0.45480   0.00000  Uiso   1.00
H39    H     0.00865   0.25006   0.30563   0.00000  Uiso   1.00
H40    H     0.19339   0.02615   0.31918   0.00000  Uiso   1.00
H41    H     0.19509   0.47383   0.18890   0.00000  Uiso   1.00
H42    H     0.20218   0.10740   0.32077   0.00000  Uiso   1.00
H43    H     0.20391   0.39256   0.18994   0.00000  Uiso   1.00
H44    H     0.11716   0.11459   0.17758   0.00000  Uiso   1.00
H45    H     0.11560   0.38530   0.30763   0.00000  Uiso   1.00
H46    H     0.12463   0.18719   0.02894   0.00000  Uiso   1.00
N47    N     0.16667   0.24999   0.12624   0.00000  Uiso   1.00
N48    N     0.16667   0.25001   0.37376   0.00000  Uiso   1.00
N49    N     0.07494   0.01121   0.13247   0.00000  Uiso   1.00
N50    N     0.07210   0.48862   0.33998   0.00000  Uiso   1.00
O51    O     0.16667   0.18454   0.28974   0.00000  Uiso   1.00
O52    O     0.16666   0.31547   0.21026   0.00000  Uiso   1.00
O53    O     0.16667   0.18453   0.21026   0.00000  Uiso   1.00
O54    O     0.16666   0.31547   0.28974   0.00000  Uiso   1.00
O55    O     0.09058   0.25000   0.28044   0.00000  Uiso   1.00
O56    O     0.24275   0.25000   0.21956   0.00000  Uiso   1.00
O57    O     0.09058   0.25000   0.20096   0.00000  Uiso   1.00
O58    O     0.24275   0.25001   0.29904   0.00000  Uiso   1.00
Zn59   Zn    0.16667   0.25001   0.30307   0.00000  Uiso   1.00
Zn60   Zn    0.16667   0.25000   0.19693   0.00000  Uiso   1.00
C61    C     0.49930   0.16383   0.24983   0.00000  Uiso   1.00
C62    C     0.45844   0.23092   0.44167   0.00000  Uiso   1.00
C63    C     0.50007   0.24998   0.02670   0.00000  Uiso   1.00
C64    C     0.50005   0.24999   0.47333   0.00000  Uiso   1.00
C65    C     0.40034   0.25000   0.23753   0.00000  Uiso   1.00
C66    C     0.59967   0.25003   0.26247   0.00000  Uiso   1.00
C67    C     0.34532   0.25003   0.23081   0.00000  Uiso   1.00
C68    C     0.65469   0.25004   0.26921   0.00000  Uiso   1.00
C69    C     0.50922   0.04535   0.28849   0.00000  Uiso   1.00
C70    C     0.51021   0.45461   0.21435   0.00000  Uiso   1.00
C71    C     0.51462   0.09128   0.28924   0.00000  Uiso   1.00
C72    C     0.49935   0.33616   0.24997   0.00000  Uiso   1.00
C73    C     0.51564   0.40869   0.21522   0.00000  Uiso   1.00
C74    C     0.49428   0.11597   0.24896   0.00000  Uiso   1.00
C75    C     0.49439   0.38400   0.24941   0.00000  Uiso   1.00
C76    C     0.46721   0.09503   0.20833   0.00000  Uiso   1.00
C77    C     0.46636   0.40489   0.28191   0.00000  Uiso   1.00
C78    C     0.46079   0.04899   0.20767   0.00000  Uiso   1.00
C79    C     0.45987   0.45092   0.28063   0.00000  Uiso   1.00
C80    C     0.48256   0.02415   0.24788   0.00000  Uiso   1.00
C81    C     0.48258   0.47577   0.24695   0.00000  Uiso   1.00
C82    C     0.43163   0.02802   0.16591   0.00000  Uiso   1.00
C83    C     0.47618   0.21522   0.04927   0.00000  Uiso   1.00
C84    C     0.42965   0.47185   0.31359   0.00000  Uiso   1.00
C85    C     0.54165   0.26908   0.45312   0.00000  Uiso   1.00
C86    C     0.47647   0.21595   0.09892   0.00000  Uiso   1.00
C87    C     0.54075   0.26885   0.40338   0.00000  Uiso   1.00
C88    C     0.52361   0.28401   0.10557   0.00000  Uiso   1.00
C89    C     0.45929   0.23114   0.39217   0.00000  Uiso   1.00
C90    C     0.52395   0.28473   0.05601   0.00000  Uiso   1.00
H91    H     0.65801   0.25003   0.19439   0.00000  Uiso   1.00
H92    H     0.57517   0.28358   0.47549   0.00000  Uiso   1.00
H93    H     0.45792   0.18906   0.11567   0.00000  Uiso   1.00
H94    H     0.57293   0.28368   0.38845   0.00000  Uiso   1.00
H95    H     0.54217   0.31088   0.12755   0.00000  Uiso   1.00
H96    H     0.42711   0.21624   0.36843   0.00000  Uiso   1.00
H97    H     0.54220   0.31275   0.04084   0.00000  Uiso   1.00
H98    H     0.42493   0.21640   0.45480   0.00000  Uiso   1.00
H99    H     0.34198   0.25006   0.30563   0.00000  Uiso   1.00
H100   H     0.52673   0.02615   0.31918   0.00000  Uiso   1.00
H101   H     0.52843   0.47383   0.18890   0.00000  Uiso   1.00
H102   H     0.53551   0.10740   0.32077   0.00000  Uiso   1.00
H103   H     0.53724   0.39256   0.18994   0.00000  Uiso   1.00
H104   H     0.45050   0.11459   0.17758   0.00000  Uiso   1.00
H105   H     0.44893   0.38530   0.30763   0.00000  Uiso   1.00
H106   H     0.45797   0.18719   0.02894   0.00000  Uiso   1.00
N107   N     0.50000   0.24999   0.12624   0.00000  Uiso   1.00
N108   N     0.50000   0.25001   0.37376   0.00000  Uiso   1.00
N109   N     0.40827   0.01121   0.13247   0.00000  Uiso   1.00
N110   N     0.40543   0.48862   0.33998   0.00000  Uiso   1.00
O111   O     0.50000   0.18454   0.28974   0.00000  Uiso   1.00
O112   O     0.50000   0.31547   0.21026   0.00000  Uiso   1.00
O113   O     0.50000   0.18453   0.21026   0.00000  Uiso   1.00
O114   O     0.50000   0.31547   0.28974   0.00000  Uiso   1.00
O115   O     0.42392   0.25000   0.28044   0.00000  Uiso   1.00
O116   O     0.57608   0.25000   0.21956   0.00000  Uiso   1.00
O117   O     0.42392   0.25000   0.20096   0.00000  Uiso   1.00
O118   O     0.57608   0.25001   0.29904   0.00000  Uiso   1.00
Zn119  Zn    0.50000   0.25001   0.30307   0.00000  Uiso   1.00
Zn120  Zn    0.50000   0.25000   0.19693   0.00000  Uiso   1.00
C121   C     0.83263   0.16383   0.24983   0.00000  Uiso   1.00
C122   C     0.79177   0.23092   0.44167   0.00000  Uiso   1.00
C123   C     0.83340   0.24998   0.02670   0.00000  Uiso   1.00
C124   C     0.83339   0.24999   0.47333   0.00000  Uiso   1.00
C125   C     0.73367   0.25000   0.23753   0.00000  Uiso   1.00
C126   C     0.93300   0.25003   0.26247   0.00000  Uiso   1.00
C127   C     0.67865   0.25003   0.23081   0.00000  Uiso   1.00
C128   C     0.98802   0.25004   0.26921   0.00000  Uiso   1.00
C129   C     0.84256   0.04535   0.28849   0.00000  Uiso   1.00
C130   C     0.84355   0.45461   0.21435   0.00000  Uiso   1.00
C131   C     0.84795   0.09128   0.28924   0.00000  Uiso   1.00
C132   C     0.83269   0.33616   0.24997   0.00000  Uiso   1.00
C133   C     0.84897   0.40869   0.21522   0.00000  Uiso   1.00
C134   C     0.82762   0.11597   0.24896   0.00000  Uiso   1.00
C135   C     0.82772   0.38400   0.24941   0.00000  Uiso   1.00
C136   C     0.80055   0.09503   0.20833   0.00000  Uiso   1.00
C137   C     0.79970   0.40489   0.28191   0.00000  Uiso   1.00
C138   C     0.79413   0.04899   0.20767   0.00000  Uiso   1.00
C139   C     0.79321   0.45092   0.28063   0.00000  Uiso   1.00
C140   C     0.81589   0.02415   0.24788   0.00000  Uiso   1.00
C141   C     0.81591   0.47577   0.24695   0.00000  Uiso   1.00
C142   C     0.76496   0.02802   0.16591   0.00000  Uiso   1.00
C143   C     0.80951   0.21522   0.04927   0.00000  Uiso   1.00
C144   C     0.76298   0.47185   0.31359   0.00000  Uiso   1.00
C145   C     0.87498   0.26908   0.45312   0.00000  Uiso   1.00
C146   C     0.80980   0.21595   0.09892   0.00000  Uiso   1.00
C147   C     0.87409   0.26885   0.40338   0.00000  Uiso   1.00
C148   C     0.85694   0.28401   0.10557   0.00000  Uiso   1.00
C149   C     0.79262   0.23114   0.39217   0.00000  Uiso   1.00
C150   C     0.85728   0.28473   0.05601   0.00000  Uiso   1.00
H151   H     0.99135   0.25003   0.19439   0.00000  Uiso   1.00
H152   H     0.90851   0.28358   0.47549   0.00000  Uiso   1.00
H153   H     0.79125   0.18906   0.11567   0.00000  Uiso   1.00
H154   H     0.90626   0.28368   0.38845   0.00000  Uiso   1.00
H155   H     0.87550   0.31088   0.12755   0.00000  Uiso   1.00
H156   H     0.76045   0.21624   0.36843   0.00000  Uiso   1.00
H157   H     0.87553   0.31275   0.04084   0.00000  Uiso   1.00
H158   H     0.75827   0.21640   0.45480   0.00000  Uiso   1.00
H159   H     0.67532   0.25006   0.30563   0.00000  Uiso   1.00
H160   H     0.86006   0.02615   0.31918   0.00000  Uiso   1.00
H161   H     0.86176   0.47383   0.18890   0.00000  Uiso   1.00
H162   H     0.86884   0.10740   0.32077   0.00000  Uiso   1.00
H163   H     0.87058   0.39256   0.18994   0.00000  Uiso   1.00
H164   H     0.78383   0.11459   0.17758   0.00000  Uiso   1.00
H165   H     0.78227   0.38530   0.30763   0.00000  Uiso   1.00
H166   H     0.79130   0.18719   0.02894   0.00000  Uiso   1.00
N167   N     0.83333   0.24999   0.12624   0.00000  Uiso   1.00
N168   N     0.83333   0.25001   0.37376   0.00000  Uiso   1.00
N169   N     0.74160   0.01121   0.13247   0.00000  Uiso   1.00
N170   N     0.73877   0.48862   0.33998   0.00000  Uiso   1.00
O171   O     0.83334   0.18454   0.28974   0.00000  Uiso   1.00
O172   O     0.83333   0.31547   0.21026   0.00000  Uiso   1.00
O173   O     0.83334   0.18453   0.21026   0.00000  Uiso   1.00
O174   O     0.83333   0.31547   0.28974   0.00000  Uiso   1.00
O175   O     0.75725   0.25000   0.28044   0.00000  Uiso   1.00
O176   O     0.90942   0.25000   0.21956   0.00000  Uiso   1.00
O177   O     0.75725   0.25000   0.20096   0.00000  Uiso   1.00
O178   O     0.90942   0.25001   0.29904   0.00000  Uiso   1.00
Zn179  Zn    0.83333   0.25001   0.30307   0.00000  Uiso   1.00
Zn180  Zn    0.83333   0.25000   0.19693   0.00000  Uiso   1.00
C181   C     0.16597   0.66383   0.24983   0.00000  Uiso   1.00
C182   C     0.12511   0.73092   0.44167   0.00000  Uiso   1.00
C183   C     0.16673   0.74998   0.02670   0.00000  Uiso   1.00
C184   C     0.16672   0.74999   0.47333   0.00000  Uiso   1.00
C185   C     0.06700   0.75000   0.23753   0.00000  Uiso   1.00
C186   C     0.26633   0.75003   0.26247   0.00000  Uiso   1.00
C187   C     0.01198   0.75003   0.23081   0.00000  Uiso   1.00
C188   C     0.32135   0.75004   0.26921   0.00000  Uiso   1.00
C189   C     0.17589   0.54535   0.28849   0.00000  Uiso   1.00
C190   C     0.17688   0.95461   0.21435   0.00000  Uiso   1.00
C191   C     0.18129   0.59128   0.28924   0.00000  Uiso   1.00
C192   C     0.16602   0.83616   0.24997   0.00000  Uiso   1.00
C193   C     0.18230   0.90869   0.21522   0.00000  Uiso   1.00
C194   C     0.16095   0.61597   0.24896   0.00000  Uiso   1.00
C195   C     0.16105   0.88400   0.24941   0.00000  Uiso   1.00
C196   C     0.13388   0.59503   0.20833   0.00000  Uiso   1.00
C197   C     0.13303   0.90489   0.28191   0.00000  Uiso   1.00
C198   C     0.12746   0.54899   0.20767   0.00000  Uiso   1.00
C199   C     0.12654   0.95092   0.28063   0.00000  Uiso   1.00
C200   C     0.14922   0.52415   0.24788   0.00000  Uiso   1.00
C201   C     0.14925   0.97577   0.24695   0.00000  Uiso   1.00
C202   C     0.09829   0.52802   0.16591   0.00000  Uiso   1.00
C203   C     0.14285   0.71522   0.04927   0.00000  Uiso   1.00
C204   C     0.09631   0.97185   0.31359   0.00000  Uiso   1.00
C205   C     0.20831   0.76908   0.45312   0.00000  Uiso   1.00
C206   C     0.14313   0.71595   0.09892   0.00000  Uiso   1.00
C207   C     0.20742   0.76885   0.40338   0.00000  Uiso   1.00
C208   C     0.19027   0.78401   0.10557   0.00000  Uiso   1.00
C209   C     0.12595   0.73114   0.39217   0.00000  Uiso   1.00
C210   C     0.19062   0.78473   0.05601   0.00000  Uiso   1.00
H211   H     0.32468   0.75003   0.19439   0.00000  Uiso   1.00
H212   H     0.24184   0.78358   0.47549   0.00000  Uiso   1.00
H213   H     0.12458   0.68906   0.11567   0.00000  Uiso   1.00
H214   H     0.23959   0.78368   0.38845   0.00000  Uiso   1.00
H215   H     0.20884   0.81088   0.12755   0.00000  Uiso   1.00
H216   H     0.09378   0.71624   0.36843   0.00000  Uiso   1.00
H217   H     0.20887   0.81275   0.04084   0.00000  Uiso   1.00
H218   H     0.09160   0.71640   0.45480   0.00000  Uiso   1.00
H219   H     0.00865   0.75006   0.30563   0.00000  Uiso   1.00
H220   H     0.19339   0.52615   0.31918   0.00000  Uiso   1.00
H221   H     0.19509   0.97383   0.18890   0.00000  Uiso   1.00
H222   H     0.20218   0.60740   0.32077   0.00000  Uiso   1.00
H223   H     0.20391   0.89256   0.18994   0.00000  Uiso   1.00
H224   H     0.11716   0.61459   0.17758   0.00000  Uiso   1.00
H225   H     0.11560   0.88530   0.30763   0.00000  Uiso   1.00
H226   H     0.12463   0.68719   0.02894   0.00000  Uiso   1.00
N227   N     0.16667   0.74999   0.12624   0.00000  Uiso   1.00
N228   N     0.16667   0.75001   0.37376   0.00000  Uiso   1.00
N229   N     0.07494   0.51121   0.13247   0.00000  Uiso   1.00
N230   N     0.07210   0.98862   0.33998   0.00000  Uiso   1.00
O231   O     0.16667   0.68454   0.28974   0.00000  Uiso   1.00
O232   O     0.16666   0.81547   0.21026   0.00000  Uiso   1.00
O233   O     0.16667   0.68453   0.21026   0.00000  Uiso   1.00
O234   O     0.16666   0.81547   0.28974   0.00000  Uiso   1.00
O235   O     0.09058   0.75000   0.28044   0.00000  Uiso   1.00
O236   O     0.24275   0.75000   0.21956   0.00000  Uiso   1.00
O237   O     0.09058   0.75000   0.20096   0.00000  Uiso   1.00
O238   O     0.24275   0.75001   0.29904   0.00000  Uiso   1.00
Zn239  Zn    0.16667   0.75001   0.30307   0.00000  Uiso   1.00
Zn240  Zn    0.16667   0.75000   0.19693   0.00000  Uiso   1.00
C241   C     0.49930   0.66383   0.24983   0.00000  Uiso   1.00
C242   C     0.45844   0.73092   0.44167   0.00000  Uiso   1.00
C243   C     0.50007   0.74998   0.02670   0.00000  Uiso   1.00
C244   C     0.50005   0.74999   0.47333   0.00000  Uiso   1.00
C245   C     0.40034   0.75000   0.23753   0.00000  Uiso   1.00
C246   C     0.59967   0.75003   0.26247   0.00000  Uiso   1.00
C247   C     0.34532   0.75003   0.23081   0.00000  Uiso   1.00
C248   C     0.65469   0.75004   0.26921   0.00000  Uiso   1.00
C249   C     0.50922   0.54535   0.28849   0.00000  Uiso   1.00
C250   C     0.51021   0.95461   0.21435   0.00000  Uiso   1.00
C251   C     0.51462   0.59128   0.28924   0.00000  Uiso   1.00
C252   C     0.49935   0.83616   0.24997   0.00000  Uiso   1.00
C253   C     0.51564   0.90869   0.21522   0.00000  Uiso   1.00
C254   C     0.49428   0.61597   0.24896   0.00000  Uiso   1.00
C255   C     0.49439   0.88400   0.24941   0.00000  Uiso   1.00
C256   C     0.46721   0.59503   0.20833   0.00000  Uiso   1.00
C257   C     0.46636   0.90489   0.28191   0.00000  Uiso   1.00
C258   C     0.46079   0.54899   0.20767   0.00000  Uiso   1.00
C259   C     0.45987   0.95092   0.28063   0.00000  Uiso   1.00
C260   C     0.48256   0.52415   0.24788   0.00000  Uiso   1.00
C261   C     0.48258   0.97577   0.24695   0.00000  Uiso   1.00
C262   C     0.43163   0.52802   0.16591   0.00000  Uiso   1.00
C263   C     0.47618   0.71522   0.04927   0.00000  Uiso   1.00
C264   C     0.42965   0.97185   0.31359   0.00000  Uiso   1.00
C265   C     0.54165   0.76908   0.45312   0.00000  Uiso   1.00
C266   C     0.47647   0.71595   0.09892   0.00000  Uiso   1.00
C267   C     0.54075   0.76885   0.40338   0.00000  Uiso   1.00
C268   C     0.52361   0.78401   0.10557   0.00000  Uiso   1.00
C269   C     0.45929   0.73114   0.39217   0.00000  Uiso   1.00
C270   C     0.52395   0.78473   0.05601   0.00000  Uiso   1.00
H271   H     0.65801   0.75003   0.19439   0.00000  Uiso   1.00
H272   H     0.57517   0.78358   0.47549   0.00000  Uiso   1.00
H273   H     0.45792   0.68906   0.11567   0.00000  Uiso   1.00
H274   H     0.57293   0.78368   0.38845   0.00000  Uiso   1.00
H275   H     0.54217   0.81088   0.12755   0.00000  Uiso   1.00
H276   H     0.42711   0.71624   0.36843   0.00000  Uiso   1.00
H277   H     0.54220   0.81275   0.04084   0.00000  Uiso   1.00
H278   H     0.42493   0.71640   0.45480   0.00000  Uiso   1.00
H279   H     0.34198   0.75006   0.30563   0.00000  Uiso   1.00
H280   H     0.52673   0.52615   0.31918   0.00000  Uiso   1.00
H281   H     0.52843   0.97383   0.18890   0.00000  Uiso   1.00
H282   H     0.53551   0.60740   0.32077   0.00000  Uiso   1.00
H283   H     0.53724   0.89256   0.18994   0.00000  Uiso   1.00
H284   H     0.45050   0.61459   0.17758   0.00000  Uiso   1.00
H285   H     0.44893   0.88530   0.30763   0.00000  Uiso   1.00
H286   H     0.45797   0.68719   0.02894   0.00000  Uiso   1.00
N287   N     0.50000   0.74999   0.12624   0.00000  Uiso   1.00
N288   N     0.50000   0.75001   0.37376   0.00000  Uiso   1.00
N289   N     0.40827   0.51121   0.13247   0.00000  Uiso   1.00
N290   N     0.40543   0.98862   0.33998   0.00000  Uiso   1.00
O291   O     0.50000   0.68454   0.28974   0.00000  Uiso   1.00
O292   O     0.50000   0.81547   0.21026   0.00000  Uiso   1.00
O293   O     0.50000   0.68453   0.21026   0.00000  Uiso   1.00
O294   O     0.50000   0.81547   0.28974   0.00000  Uiso   1.00
O295   O     0.42392   0.75000   0.28044   0.00000  Uiso   1.00
O296   O     0.57608   0.75000   0.21956   0.00000  Uiso   1.00
O297   O     0.42392   0.75000   0.20096   0.00000  Uiso   1.00
O298   O     0.57608   0.75001   0.29904   0.00000  Uiso   1.00
Zn299  Zn    0.50000   0.75001   0.30307   0.00000  Uiso   1.00
Zn300  Zn    0.50000   0.75000   0.19693   0.00000  Uiso   1.00
C301   C     0.83263   0.66383   0.24983   0.00000  Uiso   1.00
C302   C     0.79177   0.73092   0.44167   0.00000  Uiso   1.00
C303   C     0.83340   0.74998   0.02670   0.00000  Uiso   1.00
C304   C     0.83339   0.74999   0.47333   0.00000  Uiso   1.00
C305   C     0.73367   0.75000   0.23753   0.00000  Uiso   1.00
C306   C     0.93300   0.75003   0.26247   0.00000  Uiso   1.00
C307   C     0.67865   0.75003   0.23081   0.00000  Uiso   1.00
C308   C     0.98802   0.75004   0.26921   0.00000  Uiso   1.00
C309   C     0.84256   0.54535   0.28849   0.00000  Uiso   1.00
C310   C     0.84355   0.95461   0.21435   0.00000  Uiso   1.00
C311   C     0.84795   0.59128   0.28924   0.00000  Uiso   1.00
C312   C     0.83269   0.83616   0.24997   0.00000  Uiso   1.00
C313   C     0.84897   0.90869   0.21522   0.00000  Uiso   1.00
C314   C     0.82762   0.61597   0.24896   0.00000  Uiso   1.00
C315   C     0.82772   0.88400   0.24941   0.00000  Uiso   1.00
C316   C     0.80055   0.59503   0.20833   0.00000  Uiso   1.00
C317   C     0.79970   0.90489   0.28191   0.00000  Uiso   1.00
C318   C     0.79413   0.54899   0.20767   0.00000  Uiso   1.00
C319   C     0.79321   0.95092   0.28063   0.00000  Uiso   1.00
C320   C     0.81589   0.52415   0.24788   0.00000  Uiso   1.00
C321   C     0.81591   0.97577   0.24695   0.00000  Uiso   1.00
C322   C     0.76496   0.52802   0.16591   0.00000  Uiso   1.00
C323   C     0.80951   0.71522   0.04927   0.00000  Uiso   1.00
C324   C     0.76298   0.97185   0.31359   0.00000  Uiso   1.00
C325   C     0.87498   0.76908   0.45312   0.00000  Uiso   1.00
C326   C     0.80980   0.71595   0.09892   0.00000  Uiso   1.00
C327   C     0.87409   0.76885   0.40338   0.00000  Uiso   1.00
C328   C     0.85694   0.78401   0.10557   0.00000  Uiso   1.00
C329   C     0.79262   0.73114   0.39217   0.00000  Uiso   1.00
C330   C     0.85728   0.78473   0.05601   0.00000  Uiso   1.00
H331   H     0.99135   0.75003   0.19439   0.00000  Uiso   1.00
H332   H     0.90851   0.78358   0.47549   0.00000  Uiso   1.00
H333   H     0.79125   0.68906   0.11567   0.00000  Uiso   1.00
H334   H     0.90626   0.78368   0.38845   0.00000  Uiso   1.00
H335   H     0.87550   0.81088   0.12755   0.00000  Uiso   1.00
H336   H     0.76045   0.71624   0.36843   0.00000  Uiso   1.00
H337   H     0.87553   0.81275   0.04084   0.00000  Uiso   1.00
H338   H     0.75827   0.71640   0.45480   0.00000  Uiso   1.00
H339   H     0.67532   0.75006   0.30563   0.00000  Uiso   1.00
H340   H     0.86006   0.52615   0.31918   0.00000  Uiso   1.00
H341   H     0.86176   0.97383   0.18890   0.00000  Uiso   1.00
H342   H     0.86884   0.60740   0.32077   0.00000  Uiso   1.00
H343   H     0.87058   0.89256   0.18994   0.00000  Uiso   1.00
H344   H     0.78383   0.61459   0.17758   0.00000  Uiso   1.00
H345   H     0.78227   0.88530   0.30763   0.00000  Uiso   1.00
H346   H     0.79130   0.68719   0.02894   0.00000  Uiso   1.00
N347   N     0.83333   0.74999   0.12624   0.00000  Uiso   1.00
N348   N     0.83333   0.75001   0.37376   0.00000  Uiso   1.00
N349   N     0.74160   0.51121   0.13247   0.00000  Uiso   1.00
N350   N     0.73877   0.98862   0.33998   0.00000  Uiso   1.00
O351   O     0.83334   0.68454   0.28974   0.00000  Uiso   1.00
O352   O     0.83333   0.81547   0.21026   0.00000  Uiso   1.00
O353   O     0.83334   0.68453   0.21026   0.00000  Uiso   1.00
O354   O     0.83333   0.81547   0.28974   0.00000  Uiso   1.00
O355   O     0.75725   0.75000   0.28044   0.00000  Uiso   1.00
O356   O     0.90942   0.75000   0.21956   0.00000  Uiso   1.00
O357   O     0.75725   0.75000   0.20096   0.00000  Uiso   1.00
O358   O     0.90942   0.75001   0.29904   0.00000  Uiso   1.00
Zn359  Zn    0.83333   0.75001   0.30307   0.00000  Uiso   1.00
Zn360  Zn    0.83333   0.75000   0.19693   0.00000  Uiso   1.00
C361   C     0.16597   0.16383   0.74983   0.00000  Uiso   1.00
C362   C     0.12511   0.23092   0.94167   0.00000  Uiso   1.00
C363   C     0.16673   0.24998   0.52670   0.00000  Uiso   1.00
C364   C     0.16672   0.24999   0.97333   0.00000  Uiso   1.00
C365   C     0.06700   0.25000   0.73753   0.00000  Uiso   1.00
C366   C     0.26633   0.25003   0.76247   0.00000  Uiso   1.00
C367   C     0.01198   0.25003   0.73081   0.00000  Uiso   1.00
C368   C     0.32135   0.25004   0.76921   0.00000  Uiso   1.00
C369   C     0.17589   0.04535   0.78849   0.00000  Uiso   1.00
C370   C     0.17688   0.45461   0.71435   0.00000  Uiso   1.00
C371   C     0.18129   0.09128   0.78924   0.00000  Uiso   1.00
C372   C     0.16602   0.33616   0.74997   0.00000  Uiso   1.00
C373   C     0.18230   0.40869   0.71522   0.00000  Uiso   1.00
C374   C     0.16095   0.11597   0.74896   0.00000  Uiso   1.00
C375   C     0.16105   0.38400   0.74941   0.00000  Uiso   1.00
C376   C     0.13388   0.09503   0.70833   0.00000  Uiso   1.00
C377   C     0.13303   0.40489   0.78191   0.00000  Uiso   1.00
C378   C     0.12746   0.04899   0.70767   0.00000  Uiso   1.00
C379   C     0.12654   0.45092   0.78063   0.00000  Uiso   1.00
C380   C     0.14922   0.02415   0.74788   0.00000  Uiso   1.00
C381   C     0.14925   0.47577   0.74695   0.00000  Uiso   1.00
C382   C     0.09829   0.02802   0.66591   0.00000  Uiso   1.00
C383   C     0.14285   0.21522   0.54927   0.00000  Uiso   1.00
C384   C     0.09631   0.47185   0.81359   0.00000  Uiso   1.00
C385   C     0.20831   0.26908   0.95312   0.00000  Uiso   1.00
C386   C     0.14313   0.21595   0.59892   0.00000  Uiso   1.00
C387   C     0.20742   0.26885   0.90338   0.00000  Uiso   1.00
C388   C     0.19027   0.28401   0.60557   0.00000  Uiso   1.00
C389   C     0.12595   0.23114   0.89217   0.00000  Uiso   1.00
C390   C     0.19062   0.28473   0.55601   0.00000  Uiso   1.00
H391   H     0.32468   0.25003   0.69439   0.00000  Uiso   1.00
H392   H     0.24184   0.28358   0.97549   0.00000  Uiso   1.00
H393   H     0.12458   0.18906   0.61567   0.00000  Uiso   1.00
H394   H     0.23959   0.28368   0.88845   0.00000  Uiso   1.00
H395   H     0.20884   0.31088   0.62755   0.00000  Uiso   1.00
H396   H     0.09378   0.21624   0.86843   0.00000  Uiso   1.00
H397   H     0.20887   0.31275   0.54084   0.00000  Uiso   1.00
H398   H     0.09160   0.21640   0.95480   0.00000  Uiso   1.00
H399   H     0.00865   0.25006   0.80563   0.00000  Uiso   1.00
H400   H     0.19339   0.02615   0.81918   0.00000  Uiso   1.00
H401   H     0.19509   0.47383   0.68890   0.00000  Uiso   1.00
H402   H     0.20218   0.10740   0.82077   0.00000  Uiso   1.00
H403   H     0.20391   0.39256   0.68994   0.00000  Uiso   1.00
H404   H     0.11716   0.11459   0.67758   0.00000  Uiso   1.00
H405   H     0.11560   0.38530   0.80763   0.00000  Uiso   1.00
H406   H     0.12463   0.18719   0.52894   0.00000  Uiso   1.00
N407   N     0.16667   0.24999   0.62624   0.00000  Uiso   1.00
N408   N     0.16667   0.25001   0.87376   0.00000  Uiso   1.00
N409   N     0.07494   0.01121   0.63247   0.00000  Uiso   1.00
N410   N     0.07210   0.48862   0.83998   0.00000  Uiso   1.00
O411   O     0.16667   0.18454   0.78974   0.00000  Uiso   1.00
O412   O     0.16666   0.31547   0.71026   0.00000  Uiso   1.00
O413   O     0.16667   0.18453   0.71026   0.00000  Uiso   1.00
O414   O     0.16666   0.31547   0.78974   0.00000  Uiso   1.00
O415   O     0.09058   0.25000   0.78044   0.00000  Uiso   1.00
O416   O     0.24275   0.25000   0.71956   0.00000  Uiso   1.00
O417   O     0.09058   0.25000   0.70096   0.00000  Uiso   1.00
O418   O     0.24275   0.25001   0.79904   0.00000  Uiso   1.00
Zn419  Zn    0.16667   0.25001   0.80307   0.00000  Uiso   1.00
Zn420  Zn    0.16667   0.25000   0.69693   0.00000  Uiso   1.00
C421   C     0.49930   0.16383   0.74983   0.00000  Uiso   1.00
C422   C     0.45844   0.23092   0.94167   0.00000  Uiso   1.00
C423   C     0.50007   0.24998   0.52670   0.00000  Uiso   1.00
C424   C     0.50005   0.24999   0.97333   0.00000  Uiso   1.00
C425   C     0.40034   0.25000   0.73753   0.00000  Uiso   1.00
C426   C     0.59967   0.25003   0.76247   0.00000  Uiso   1.00
C427   C     0.34532   0.25003   0.73081   0.00000  Uiso   1.00
C428   C     0.65469   0.25004   0.76921   0.00000  Uiso   1.00
C429   C     0.50922   0.04535   0.78849   0.00000  Uiso   1.00
C430   C     0.51021   0.45461   0.71435   0.00000  Uiso   1.00
C431   C     0.51462   0.09128   0.78924   0.00000  Uiso   1.00
C432   C     0.49935   0.33616   0.74997   0.00000  Uiso   1.00
C433   C     0.51564   0.40869   0.71522   0.00000  Uiso   1.00
C434   C     0.49428   0.11597   0.74896   0.00000  Uiso   1.00
C435   C     0.49439   0.38400   0.74941   0.00000  Uiso   1.00
C436   C     0.46721   0.09503   0.70833   0.00000  Uiso   1.00
C437   C     0.46636   0.40489   0.78191   0.00000  Uiso   1.00
C438   C     0.46079   0.04899   0.70767   0.00000  Uiso   1.00
C439   C     0.45987   0.45092   0.78063   0.00000  Uiso   1.00
C440   C     0.48256   0.02415   0.74788   0.00000  Uiso   1.00
C441   C     0.48258   0.47577   0.74695   0.00000  Uiso   1.00
C442   C     0.43163   0.02802   0.66591   0.00000  Uiso   1.00
C443   C     0.47618   0.21522   0.54927   0.00000  Uiso   1.00
C444   C     0.42965   0.47185   0.81359   0.00000  Uiso   1.00
C445   C     0.54165   0.26908   0.95312   0.00000  Uiso   1.00
C446   C     0.47647   0.21595   0.59892   0.00000  Uiso   1.00
C447   C     0.54075   0.26885   0.90338   0.00000  Uiso   1.00
C448   C     0.52361   0.28401   0.60557   0.00000  Uiso   1.00
C449   C     0.45929   0.23114   0.89217   0.00000  Uiso   1.00
C450   C     0.52395   0.28473   0.55601   0.00000  Uiso   1.00
H451   H     0.65801   0.25003   0.69439   0.00000  Uiso   1.00
H452   H     0.57517   0.28358   0.97549   0.00000  Uiso   1.00
H453   H     0.45792   0.18906   0.61567   0.00000  Uiso   1.00
H454   H     0.57293   0.28368   0.88845   0.00000  Uiso   1.00
H455   H     0.54217   0.31088   0.62755   0.00000  Uiso   1.00
H456   H     0.42711   0.21624   0.86843   0.00000  Uiso   1.00
H457   H     0.54220   0.31275   0.54084   0.00000  Uiso   1.00
H458   H     0.42493   0.21640   0.95480   0.00000  Uiso   1.00
H459   H     0.34198   0.25006   0.80563   0.00000  Uiso   1.00
H460   H     0.52673   0.02615   0.81918   0.00000  Uiso   1.00
H461   H     0.52843   0.47383   0.68890   0.00000  Uiso   1.00
H462   H     0.53551   0.10740   0.82077   0.00000  Uiso   1.00
H463   H     0.53724   0.39256   0.68994   0.00000  Uiso   1.00
H464   H     0.45050   0.11459   0.67758   0.00000  Uiso   1.00
H465   H     0.44893   0.38530   0.80763   0.00000  Uiso   1.00
H466   H     0.45797   0.18719   0.52894   0.00000  Uiso   1.00
N467   N     0.50000   0.24999   0.62624   0.00000  Uiso   1.00
N468   N     0.50000   0.25001   0.87376   0.00000  Uiso   1.00
N469   N     0.40827   0.01121   0.63247   0.00000  Uiso   1.00
N470   N     0.40543   0.48862   0.83998   0.00000  Uiso   1.00
O471   O     0.50000   0.18454   0.78974   0.00000  Uiso   1.00
O472   O     0.50000   0.31547   0.71026   0.00000  Uiso   1.00
O473   O     0.50000   0.18453   0.71026   0.00000  Uiso   1.00
O474   O     0.50000   0.31547   0.78974   0.00000  Uiso   1.00
O475   O     0.42392   0.25000   0.78044   0.00000  Uiso   1.00
O476   O     0.57608   0.25000   0.71956   0.00000  Uiso   1.00
O477   O     0.42392   0.25000   0.70096   0.00000  Uiso   1.00
O478   O     0.57608   0.25001   0.79904   0.00000  Uiso   1.00
Zn479  Zn    0.50000   0.25001   0.80307   0.00000  Uiso   1.00
Zn480  Zn    0.50000   0.25000   0.69693   0.00000  Uiso   1.00
C481   C     0.83263   0.16383   0.74983   0.00000  Uiso   1.00
C482   C     0.79177   0.23092   0.94167   0.00000  Uiso   1.00
C483   C     0.83340   0.24998   0.52670   0.00000  Uiso   1.00
C484   C     0.83339   0.24999   0.97333   0.00000  Uiso   1.00
C485   C     0.73367   0.25000   0.73753   0.00000  Uiso   1.00
C486   C     0.93300   0.25003   0.76247   0.00000  Uiso   1.00
C487   C     0.67865   0.25003   0.73081   0.00000  Uiso   1.00
C488   C     0.98802   0.25004   0.76921   0.00000  Uiso   1.00
C489   C     0.84256   0.04535   0.78849   0.00000  Uiso   1.00
C490   C     0.84355   0.45461   0.71435   0.00000  Uiso   1.00
C491   C     0.84795   0.09128   0.78924   0.00000  Uiso   1.00
C492   C     0.83269   0.33616   0.74997   0.00000  Uiso   1.00
C493   C     0.84897   0.40869   0.71522   0.00000  Uiso   1.00
C494   C     0.82762   0.11597   0.74896   0.00000  Uiso   1.00
C495   C     0.82772   0.38400   0.74941   0.00000  Uiso   1.00
C496   C     0.80055   0.09503   0.70833   0.00000  Uiso   1.00
C497   C     0.79970   0.40489   0.78191   0.00000  Uiso   1.00
C498   C     0.79413   0.04899   0.70767   0.00000  Uiso   1.00
C499   C     0.79321   0.45092   0.78063   0.00000  Uiso   1.00
C500   C     0.81589   0.02415   0.74788   0.00000  Uiso   1.00
C501   C     0.81591   0.47577   0.74695   0.00000  Uiso   1.00
C502   C     0.76496   0.02802   0.66591   0.00000  Uiso   1.00
C503   C     0.80951   0.21522   0.54927   0.00000  Uiso   1.00
C504   C     0.76298   0.47185   0.81359   0.00000  Uiso   1.00
C505   C     0.87498   0.26908   0.95312   0.00000  Uiso   1.00
C506   C     0.80980   0.21595   0.59892   0.00000  Uiso   1.00
C507   C     0.87409   0.26885   0.90338   0.00000  Uiso   1.00
C508   C     0.85694   0.28401   0.60557   0.00000  Uiso   1.00
C509   C     0.79262   0.23114   0.89217   0.00000  Uiso   1.00
C510   C     0.85728   0.28473   0.55601   0.00000  Uiso   1.00
H511   H     0.99135   0.25003   0.69439   0.00000  Uiso   1.00
H512   H     0.90851   0.28358   0.97549   0.00000  Uiso   1.00
H513   H     0.79125   0.18906   0.61567   0.00000  Uiso   1.00
H514   H     0.90626   0.28368   0.88845   0.00000  Uiso   1.00
H515   H     0.87550   0.31088   0.62755   0.00000  Uiso   1.00
H516   H     0.76045   0.21624   0.86843   0.00000  Uiso   1.00
H517   H     0.87553   0.31275   0.54084   0.00000  Uiso   1.00
H518   H     0.75827   0.21640   0.95480   0.00000  Uiso   1.00
H519   H     0.67532   0.25006   0.80563   0.00000  Uiso   1.00
H520   H     0.86006   0.02615   0.81918   0.00000  Uiso   1.00
H521   H     0.86176   0.47383   0.68890   0.00000  Uiso   1.00
H522   H     0.86884   0.10740   0.82077   0.00000  Uiso   1.00
H523   H     0.87058   0.39256   0.68994   0.00000  Uiso   1.00
H524   H     0.78383   0.11459   0.67758   0.00000  Uiso   1.00
H525   H     0.78227   0.38530   0.80763   0.00000  Uiso   1.00
H526   H     0.79130   0.18719   0.52894   0.00000  Uiso   1.00
N527   N     0.83333   0.24999   0.62624   0.00000  Uiso   1.00
N528   N     0.83333   0.25001   0.87376   0.00000  Uiso   1.00
N529   N     0.74160   0.01121   0.63247   0.00000  Uiso   1.00
N530   N     0.73877   0.48862   0.83998   0.00000  Uiso   1.00
O531   O     0.83334   0.18454   0.78974   0.00000  Uiso   1.00
O532   O     0.83333   0.31547   0.71026   0.00000  Uiso   1.00
O533   O     0.83334   0.18453   0.71026   0.00000  Uiso   1.00
O534   O     0.83333   0.31547   0.78974   0.00000  Uiso   1.00
O535   O     0.75725   0.25000   0.78044   0.00000  Uiso   1.00
O536   O     0.90942   0.25000   0.71956   0.00000  Uiso   1.00
O537   O     0.75725   0.25000   0.70096   0.00000  Uiso   1.00
O538   O     0.90942   0.25001   0.79904   0.00000  Uiso   1.00
Zn539  Zn    0.83333   0.25001   0.80307   0.00000  Uiso   1.00
Zn540  Zn    0.83333   0.25000   0.69693   0.00000  Uiso   1.00
C541   C     0.16597   0.66383   0.74983   0.00000  Uiso   1.00
C542   C     0.12511   0.73092   0.94167   0.00000  Uiso   1.00
C543   C     0.16673   0.74998   0.52670   0.00000  Uiso   1.00
C544   C     0.16672   0.74999   0.97333   0.00000  Uiso   1.00
C545   C     0.06700   0.75000   0.73753   0.00000  Uiso   1.00
C546   C     0.26633   0.75003   0.76247   0.00000  Uiso   1.00
C547   C     0.01198   0.75003   0.73081   0.00000  Uiso   1.00
C548   C     0.32135   0.75004   0.76921   0.00000  Uiso   1.00
C549   C     0.17589   0.54535   0.78849   0.00000  Uiso   1.00
C550   C     0.17688   0.95461   0.71435   0.00000  Uiso   1.00
C551   C     0.18129   0.59128   0.78924   0.00000  Uiso   1.00
C552   C     0.16602   0.83616   0.74997   0.00000  Uiso   1.00
C553   C     0.18230   0.90869   0.71522   0.00000  Uiso   1.00
C554   C     0.16095   0.61597   0.74896   0.00000  Uiso   1.00
C555   C     0.16105   0.88400   0.74941   0.00000  Uiso   1.00
C556   C     0.13388   0.59503   0.70833   0.00000  Uiso   1.00
C557   C     0.13303   0.90489   0.78191   0.00000  Uiso   1.00
C558   C     0.12746   0.54899   0.70767   0.00000  Uiso   1.00
C559   C     0.12654   0.95092   0.78063   0.00000  Uiso   1.00
C560   C     0.14922   0.52415   0.74788   0.00000  Uiso   1.00
C561   C     0.14925   0.97577   0.74695   0.00000  Uiso   1.00
C562   C     0.09829   0.52802   0.66591   0.00000  Uiso   1.00
C563   C     0.14285   0.71522   0.54927   0.00000  Uiso   1.00
C564   C     0.09631   0.97185   0.81359   0.00000  Uiso   1.00
C565   C     0.20831   0.76908   0.95312   0.00000  Uiso   1.00
C566   C     0.14313   0.71595   0.59892   0.00000  Uiso   1.00
C567   C     0.20742   0.76885   0.90338   0.00000  Uiso   1.00
C568   C     0.19027   0.78401   0.60557   0.00000  Uiso   1.00
C569   C     0.12595   0.73114   0.89217   0.00000  Uiso   1.00
C570   C     0.19062   0.78473   0.55601   0.00000  Uiso   1.00
H571   H     0.32468   0.75003   0.69439   0.00000  Uiso   1.00
H572   H     0.24184   0.78358   0.97549   0.00000  Uiso   1.00
H573   H     0.12458   0.68906   0.61567   0.00000  Uiso   1.00
H574   H     0.23959   0.78368   0.88845   0.00000  Uiso   1.00
H575   H     0.20884   0.81088   0.62755   0.00000  Uiso   1.00
H576   H     0.09378   0.71624   0.86843   0.00000  Uiso   1.00
H577   H     0.20887   0.81275   0.54084   0.00000  Uiso   1.00
H578   H     0.09160   0.71640   0.95480   0.00000  Uiso   1.00
H579   H     0.00865   0.75006   0.80563   0.00000  Uiso   1.00
H580   H     0.19339   0.52615   0.81918   0.00000  Uiso   1.00
H581   H     0.19509   0.97383   0.68890   0.00000  Uiso   1.00
H582   H     0.20218   0.60740   0.82077   0.00000  Uiso   1.00
H583   H     0.20391   0.89256   0.68994   0.00000  Uiso   1.00
H584   H     0.11716   0.61459   0.67758   0.00000  Uiso   1.00
H585   H     0.11560   0.88530   0.80763   0.00000  Uiso   1.00
H586   H     0.12463   0.68719   0.52894   0.00000  Uiso   1.00
N587   N     0.16667   0.74999   0.62624   0.00000  Uiso   1.00
N588   N     0.16667   0.75001   0.87376   0.00000  Uiso   1.00
N589   N     0.07494   0.51121   0.63247   0.00000  Uiso   1.00
N590   N     0.07210   0.98862   0.83998   0.00000  Uiso   1.00
O591   O     0.16667   0.68454   0.78974   0.00000  Uiso   1.00
O592   O     0.16666   0.81547   0.71026   0.00000  Uiso   1.00
O593   O     0.16667   0.68453   0.71026   0.00000  Uiso   1.00
O594   O     0.16666   0.81547   0.78974   0.00000  Uiso   1.00
O595   O     0.09058   0.75000   0.78044   0.00000  Uiso   1.00
O596   O     0.24275   0.75000   0.71956   0.00000  Uiso   1.00
O597   O     0.09058   0.75000   0.70096   0.00000  Uiso   1.00
O598   O     0.24275   0.75001   0.79904   0.00000  Uiso   1.00
Zn599  Zn    0.16667   0.75001   0.80307   0.00000  Uiso   1.00
Zn600  Zn    0.16667   0.75000   0.69693   0.00000  Uiso   1.00
C601   C     0.49930   0.66383   0.74983   0.00000  Uiso   1.00
C602   C     0.45844   0.73092   0.94167   0.00000  Uiso   1.00
C603   C     0.50007   0.74998   0.52670   0.00000  Uiso   1.00
C604   C     0.50005   0.74999   0.97333   0.00000  Uiso   1.00
C605   C     0.40034   0.75000   0.73753   0.00000  Uiso   1.00
C606   C     0.59967   0.75003   0.76247   0.00000  Uiso   1.00
C607   C     0.34532   0.75003   0.73081   0.00000  Uiso   1.00
C608   C     0.65469   0.75004   0.76921   0.00000  Uiso   1.00
C609   C     0.50922   0.54535   0.78849   0.00000  Uiso   1.00
C610   C     0.51021   0.95461   0.71435   0.00000  Uiso   1.00
C611   C     0.51462   0.59128   0.78924   0.00000  Uiso   1.00
C612   C     0.49935   0.83616   0.74997   0.00000  Uiso   1.00
C613   C     0.51564   0.90869   0.71522   0.00000  Uiso   1.00
C614   C     0.49428   0.61597   0.74896   0.00000  Uiso   1.00
C615   C     0.49439   0.88400   0.74941   0.00000  Uiso   1.00
C616   C     0.46721   0.59503   0.70833   0.00000  Uiso   1.00
C617   C     0.46636   0.90489   0.78191   0.00000  Uiso   1.00
C618   C     0.46079   0.54899   0.70767   0.00000  Uiso   1.00
C619   C     0.45987   0.95092   0.78063   0.00000  Uiso   1.00
C620   C     0.48256   0.52415   0.74788   0.00000  Uiso   1.00
C621   C     0.48258   0.97577   0.74695   0.00000  Uiso   1.00
C622   C     0.43163   0.52802   0.66591   0.00000  Uiso   1.00
C623   C     0.47618   0.71522   0.54927   0.00000  Uiso   1.00
C624   C     0.42965   0.97185   0.81359   0.00000  Uiso   1.00
C625   C     0.54165   0.76908   0.95312   0.00000  Uiso   1.00
C626   C     0.47647   0.71595   0.59892   0.00000  Uiso   1.00
C627   C     0.54075   0.76885   0.90338   0.00000  Uiso   1.00
C628   C     0.52361   0.78401   0.60557   0.00000  Uiso   1.00
C629   C     0.45929   0.73114   0.89217   0.00000  Uiso   1.00
C630   C     0.52395   0.78473   0.55601   0.00000  Uiso   1.00
H631   H     0.65801   0.75003   0.69439   0.00000  Uiso   1.00
H632   H     0.57517   0.78358   0.97549   0.00000  Uiso   1.00
H633   H     0.45792   0.68906   0.61567   0.00000  Uiso   1.00
H634   H     0.57293   0.78368   0.88845   0.00000  Uiso   1.00
H635   H     0.54217   0.81088   0.62755   0.00000  Uiso   1.00
H636   H     0.42711   0.71624   0.86843   0.00000  Uiso   1.00
H637   H     0.54220   0.81275   0.54084   0.00000  Uiso   1.00
H638   H     0.42493   0.71640   0.95480   0.00000  Uiso   1.00
H639   H     0.34198   0.75006   0.80563   0.00000  Uiso   1.00
H640   H     0.52673   0.52615   0.81918   0.00000  Uiso   1.00
H641   H     0.52843   0.97383   0.68890   0.00000  Uiso   1.00
H642   H     0.53551   0.60740   0.82077   0.00000  Uiso   1.00
H643   H     0.53724   0.89256   0.68994   0.00000  Uiso   1.00
H644   H     0.45050   0.61459   0.67758   0.00000  Uiso   1.00
H645   H     0.44893   0.88530   0.80763   0.00000  Uiso   1.00
H646   H     0.45797   0.68719   0.52894   0.00000  Uiso   1.00
N647   N     0.50000   0.74999   0.62624   0.00000  Uiso   1.00
N648   N     0.50000   0.75001   0.87376   0.00000  Uiso   1.00
N649   N     0.40827   0.51121   0.63247   0.00000  Uiso   1.00
N650   N     0.40543   0.98862   0.83998   0.00000  Uiso   1.00
O651   O     0.50000   0.68454   0.78974   0.00000  Uiso   1.00
O652   O     0.50000   0.81547   0.71026   0.00000  Uiso   1.00
O653   O     0.50000   0.68453   0.71026   0.00000  Uiso   1.00
O654   O     0.50000   0.81547   0.78974   0.00000  Uiso   1.00
O655   O     0.42392   0.75000   0.78044   0.00000  Uiso   1.00
O656   O     0.57608   0.75000   0.71956   0.00000  Uiso   1.00
O657   O     0.42392   0.75000   0.70096   0.00000  Uiso   1.00
O658   O     0.57608   0.75001   0.79904   0.00000  Uiso   1.00
Zn659  Zn    0.50000   0.75001   0.80307   0.00000  Uiso   1.00
Zn660  Zn    0.50000   0.75000   0.69693   0.00000  Uiso   1.00
C661   C     0.83263   0.66383   0.74983   0.00000  Uiso   1.00
C662   C     0.79177   0.73092   0.94167   0.00000  Uiso   1.00
C663   C     0.83340   0.74998   0.52670   0.00000  Uiso   1.00
C664   C     0.83339   0.74999   0.97333   0.00000  Uiso   1.00
C665   C     0.73367   0.75000   0.73753   0.00000  Uiso   1.00
C666   C     0.93300   0.75003   0.76247   0.00000  Uiso   1.00
C667   C     0.67865   0.75003   0.73081   0.00000  Uiso   1.00
C668   C     0.98802   0.75004   0.76921   0.00000  Uiso   1.00
C669   C     0.84256   0.54535   0.78849   0.00000  Uiso   1.00
C670   C     0.84355   0.95461   0.71435   0.00000  Uiso   1.00
C671   C     0.84795   0.59128   0.78924   0.00000  Uiso   1.00
C672   C     0.83269   0.83616   0.74997   0.00000  Uiso   1.00
C673   C     0.84897   0.90869   0.71522   0.00000  Uiso   1.00
C674   C     0.82762   0.61597   0.74896   0.00000  Uiso   1.00
C675   C     0.82772   0.88400   0.74941   0.00000  Uiso   1.00
C676   C     0.80055   0.59503   0.70833   0.00000  Uiso   1.00
C677   C     0.79970   0.90489   0.78191   0.00000  Uiso   1.00
C678   C     0.79413   0.54899   0.70767   0.00000  Uiso   1.00
C679   C     0.79321   0.95092   0.78063   0.00000  Uiso   1.00
C680   C     0.81589   0.52415   0.74788   0.00000  Uiso   1.00
C681   C     0.81591   0.97577   0.74695   0.00000  Uiso   1.00
C682   C     0.76496   0.52802   0.66591   0.00000  Uiso   1.00
C683   C     0.80951   0.71522   0.54927   0.00000  Uiso   1.00
C684   C     0.76298   0.97185   0.81359   0.00000  Uiso   1.00
C685   C     0.87498   0.76908   0.95312   0.00000  Uiso   1.00
C686   C     0.80980   0.71595   0.59892   0.00000  Uiso   1.00
C687   C     0.87409   0.76885   0.90338   0.00000  Uiso   1.00
C688   C     0.85694   0.78401   0.60557   0.00000  Uiso   1.00
C689   C     0.79262   0.73114   0.89217   0.00000  Uiso   1.00
C690   C     0.85728   0.78473   0.55601   0.00000  Uiso   1.00
H691   H     0.99135   0.75003   0.69439   0.00000  Uiso   1.00
H692   H     0.90851   0.78358   0.97549   0.00000  Uiso   1.00
H693   H     0.79125   0.68906   0.61567   0.00000  Uiso   1.00
H694   H     0.90626   0.78368   0.88845   0.00000  Uiso   1.00
H695   H     0.87550   0.81088   0.62755   0.00000  Uiso   1.00
H696   H     0.76045   0.71624   0.86843   0.00000  Uiso   1.00
H697   H     0.87553   0.81275   0.54084   0.00000  Uiso   1.00
H698   H     0.75827   0.71640   0.95480   0.00000  Uiso   1.00
H699   H     0.67532   0.75006   0.80563   0.00000  Uiso   1.00
H700   H     0.86006   0.52615   0.81918   0.00000  Uiso   1.00
H701   H     0.86176   0.97383   0.68890   0.00000  Uiso   1.00
H702   H     0.86884   0.60740   0.82077   0.00000  Uiso   1.00
H703   H     0.87058   0.89256   0.68994   0.00000  Uiso   1.00
H704   H     0.78383   0.61459   0.67758   0.00000  Uiso   1.00
H705   H     0.78227   0.88530   0.80763   0.00000  Uiso   1.00
H706   H     0.79130   0.68719   0.52894   0.00000  Uiso   1.00
N707   N     0.83333   0.74999   0.62624   0.00000  Uiso   1.00
N708   N     0.83333   0.75001   0.87376   0.00000  Uiso   1.00
N709   N     0.74160   0.51121   0.63247   0.00000  Uiso   1.00
N710   N     0.73877   0.98862   0.83998   0.00000  Uiso   1.00
O711   O     0.83334   0.68454   0.78974   0.00000  Uiso   1.00
O712   O     0.83333   0.81547   0.71026   0.00000  Uiso   1.00
O713   O     0.83334   0.68453   0.71026   0.00000  Uiso   1.00
O714   O     0.83333   0.81547   0.78974   0.00000  Uiso   1.00
O715   O     0.75725   0.75000   0.78044   0.00000  Uiso   1.00
O716   O     0.90942   0.75000   0.71956   0.00000  Uiso   1.00
O717   O     0.75725   0.75000   0.70096   0.00000  Uiso   1.00
O718   O     0.90942   0.75001   0.79904   0.00000  Uiso   1.00
Zn719  Zn    0.83333   0.75001   0.80307   0.00000  Uiso   1.00
Zn720  Zn    0.83333   0.75000   0.69693   0.00000  Uiso   1.00
loop_
_geom_bond_atom_site_label_1
_geom_bond_atom_site_label_2
_geom_bond_distance
_geom_bond_site_symmetry_2
_ccdc_geom_bond_type
C1     O51     1.286   .     A
C1     O53     1.285   .     A
C1     C14     1.436   .     S
C2     C4      1.410   .     A
C2     H38     1.082   .     S
C2     C29     1.407   .     A
C3     C30     1.410   .     A
C3     C23     1.411   .     A
C3     C364    1.513   1_554 S
C4     C25     1.411   .     A
C4     C363    1.513   .     S
C5     C7      1.402   .     S
C5     O57     1.278   .     A
C5     O55     1.276   .     A
C6     O58     1.278   .     A
C6     C8      1.402   .     S
C6     O56     1.276   .     A
C7     C128    1.330   1_455 S
C7     H151    1.088   1_455 S
C8     C67     1.330   .     S
C8     H99     1.088   .     S
C9     C11     1.380   .     A
C9     C20     1.399   .     A
C9     H40     1.084   .     S
C10    H41     1.084   .     S
C10    C21     1.399   .     A
C10    C13     1.380   .     A
C11    C14     1.396   .     A
C11    H42     1.084   .     S
C12    C15     1.436   .     S
C12    O52     1.285   .     A
C12    O54     1.285   .     A
C13    C15     1.396   .     A
C13    H43     1.084   .     S
C14    C16     1.400   .     A
C15    C17     1.400   .     A
C16    H44     1.085   .     S
C16    C18     1.386   .     A
C17    H45     1.085   .     S
C17    C19     1.386   .     A
C18    C20     1.406   .     A
C18    C22     1.445   .     S
C19    C24     1.445   .     S
C19    C21     1.406   .     A
C20    C201    1.446   1_545 S
C21    C200    1.446   .     S
C22    N49     1.157   .     T
C23    H46     1.082   .     S
C23    C26     1.407   .     A
C24    N50     1.157   .     T
C25    C27     1.407   .     A
C25    H32     1.082   .     S
C26    H33     1.082   .     S
C26    N47     1.363   .     A
C27    N48     1.363   .     A
C27    H34     1.082   .     S
C28    N47     1.363   .     A
C28    C30     1.407   .     A
C28    H35     1.082   .     S
C29    H36     1.081   .     S
C29    N48     1.363   .     A
C30    H37     1.082   .     S
H31    C67     1.088   .     S
H39    C128    1.088   1_455 S
N47    Zn60    2.004   .     S
N48    Zn59    2.004   .     S
O51    Zn59    1.992   .     S
O52    Zn60    1.992   .     S
O53    Zn60    1.994   .     S
O54    Zn59    1.994   .     S
O55    Zn59    1.970   .     S
O56    Zn60    1.970   .     S
O57    Zn60    1.982   .     S
O58    Zn59    1.982   .     S
C61    O111    1.286   .     A
C61    O113    1.285   .     A
C61    C74     1.436   .     S
C62    C64     1.410   .     A
C62    H98     1.082   .     S
C62    C89     1.407   .     A
C63    C90     1.410   .     A
C63    C83     1.411   .     A
C63    C424    1.513   1_554 S
C64    C85     1.411   .     A
C64    C423    1.513   .     S
C65    C67     1.402   .     S
C65    O117    1.278   .     A
C65    O115    1.276   .     A
C66    O118    1.278   .     A
C66    C68     1.402   .     S
C66    O116    1.276   .     A
C68    C127    1.330   .     S
C68    H159    1.088   .     S
C69    C71     1.380   .     A
C69    C80     1.399   .     A
C69    H100    1.084   .     S
C70    H101    1.084   .     S
C70    C81     1.399   .     A
C70    C73     1.380   .     A
C71    C74     1.396   .     A
C71    H102    1.084   .     S
C72    C75     1.436   .     S
C72    O112    1.285   .     A
C72    O114    1.285   .     A
C73    C75     1.396   .     A
C73    H103    1.084   .     S
C74    C76     1.400   .     A
C75    C77     1.400   .     A
C76    H104    1.085   .     S
C76    C78     1.386   .     A
C77    H105    1.085   .     S
C77    C79     1.386   .     A
C78    C80     1.406   .     A
C78    C82     1.445   .     S
C79    C84     1.445   .     S
C79    C81     1.406   .     A
C80    C261    1.446   1_545 S
C81    C260    1.446   .     S
C82    N109    1.157   .     T
C83    H106    1.082   .     S
C83    C86     1.407   .     A
C84    N110    1.157   .     T
C85    C87     1.407   .     A
C85    H92     1.082   .     S
C86    H93     1.082   .     S
C86    N107    1.363   .     A
C87    N108    1.363   .     A
C87    H94     1.082   .     S
C88    N107    1.363   .     A
C88    C90     1.407   .     A
C88    H95     1.082   .     S
C89    H96     1.081   .     S
C89    N108    1.363   .     A
C90    H97     1.082   .     S
H91    C127    1.088   .     S
N107   Zn120   2.004   .     S
N108   Zn119   2.004   .     S
O111   Zn119   1.992   .     S
O112   Zn120   1.992   .     S
O113   Zn120   1.994   .     S
O114   Zn119   1.994   .     S
O115   Zn119   1.970   .     S
O116   Zn120   1.970   .     S
O117   Zn120   1.982   .     S
O118   Zn119   1.982   .     S
C121   O171    1.286   .     A
C121   O173    1.285   .     A
C121   C134    1.436   .     S
C122   C124    1.410   .     A
C122   H158    1.082   .     S
C122   C149    1.407   .     A
C123   C150    1.410   .     A
C123   C143    1.411   .     A
C123   C484    1.513   1_554 S
C124   C145    1.411   .     A
C124   C483    1.513   .     S
C125   C127    1.402   .     S
C125   O177    1.278   .     A
C125   O175    1.276   .     A
C126   O178    1.278   .     A
C126   C128    1.402   .     S
C126   O176    1.276   .     A
C128   C7      1.330   1_655 S
C128   H39     1.088   1_655 S
C129   C131    1.380   .     A
C129   C140    1.399   .     A
C129   H160    1.084   .     S
C130   H161    1.084   .     S
C130   C141    1.399   .     A
C130   C133    1.380   .     A
C131   C134    1.396   .     A
C131   H162    1.084   .     S
C132   C135    1.436   .     S
C132   O172    1.285   .     A
C132   O174    1.285   .     A
C133   C135    1.396   .     A
C133   H163    1.084   .     S
C134   C136    1.400   .     A
C135   C137    1.400   .     A
C136   H164    1.085   .     S
C136   C138    1.386   .     A
C137   H165    1.085   .     S
C137   C139    1.386   .     A
C138   C140    1.406   .     A
C138   C142    1.445   .     S
C139   C144    1.445   .     S
C139   C141    1.406   .     A
C140   C321    1.446   1_545 S
C141   C320    1.446   .     S
C142   N169    1.157   .     T
C143   H166    1.082   .     S
C143   C146    1.407   .     A
C144   N170    1.157   .     T
C145   C147    1.407   .     A
C145   H152    1.082   .     S
C146   H153    1.082   .     S
C146   N167    1.363   .     A
C147   N168    1.363   .     A
C147   H154    1.082   .     S
C148   N167    1.363   .     A
C148   C150    1.407   .     A
C148   H155    1.082   .     S
C149   H156    1.081   .     S
C149   N168    1.363   .     A
C150   H157    1.082   .     S
H151   C7      1.088   1_655 S
N167   Zn180   2.004   .     S
N168   Zn179   2.004   .     S
O171   Zn179   1.992   .     S
O172   Zn180   1.992   .     S
O173   Zn180   1.994   .     S
O174   Zn179   1.994   .     S
O175   Zn179   1.970   .     S
O176   Zn180   1.970   .     S
O177   Zn180   1.982   .     S
O178   Zn179   1.982   .     S
C181   O231    1.286   .     A
C181   O233    1.285   .     A
C181   C194    1.436   .     S
C182   C184    1.410   .     A
C182   H218    1.082   .     S
C182   C209    1.407   .     A
C183   C210    1.410   .     A
C183   C203    1.411   .     A
C183   C544    1.513   1_554 S
C184   C205    1.411   .     A
C184   C543    1.513   .     S
C185   C187    1.402   .     S
C185   O237    1.278   .     A
C185   O235    1.276   .     A
C186   O238    1.278   .     A
C186   C188    1.402   .     S
C186   O236    1.276   .     A
C187   C308    1.330   1_455 S
C187   H331    1.088   1_455 S
C188   C247    1.330   .     S
C188   H279    1.088   .     S
C189   C191    1.380   .     A
C189   C200    1.399   .     A
C189   H220    1.084   .     S
C190   H221    1.084   .     S
C190   C201    1.399   .     A
C190   C193    1.380   .     A
C191   C194    1.396   .     A
C191   H222    1.084   .     S
C192   C195    1.436   .     S
C192   O232    1.285   .     A
C192   O234    1.285   .     A
C193   C195    1.396   .     A
C193   H223    1.084   .     S
C194   C196    1.400   .     A
C195   C197    1.400   .     A
C196   H224    1.085   .     S
C196   C198    1.386   .     A
C197   H225    1.085   .     S
C197   C199    1.386   .     A
C198   C200    1.406   .     A
C198   C202    1.445   .     S
C199   C204    1.445   .     S
C199   C201    1.406   .     A
C201   C20     1.446   1_565 S
C202   N229    1.157   .     T
C203   H226    1.082   .     S
C203   C206    1.407   .     A
C204   N230    1.157   .     T
C205   C207    1.407   .     A
C205   H212    1.082   .     S
C206   H213    1.082   .     S
C206   N227    1.363   .     A
C207   N228    1.363   .     A
C207   H214    1.082   .     S
C208   N227    1.363   .     A
C208   C210    1.407   .     A
C208   H215    1.082   .     S
C209   H216    1.081   .     S
C209   N228    1.363   .     A
C210   H217    1.082   .     S
H211   C247    1.088   .     S
H219   C308    1.088   1_455 S
N227   Zn240   2.004   .     S
N228   Zn239   2.004   .     S
O231   Zn239   1.992   .     S
O232   Zn240   1.992   .     S
O233   Zn240   1.994   .     S
O234   Zn239   1.994   .     S
O235   Zn239   1.970   .     S
O236   Zn240   1.970   .     S
O237   Zn240   1.982   .     S
O238   Zn239   1.982   .     S
C241   O291    1.286   .     A
C241   O293    1.285   .     A
C241   C254    1.436   .     S
C242   C244    1.410   .     A
C242   H278    1.082   .     S
C242   C269    1.407   .     A
C243   C270    1.410   .     A
C243   C263    1.411   .     A
C243   C604    1.513   1_554 S
C244   C265    1.411   .     A
C244   C603    1.513   .     S
C245   C247    1.402   .     S
C245   O297    1.278   .     A
C245   O295    1.276   .     A
C246   O298    1.278   .     A
C246   C248    1.402   .     S
C246   O296    1.276   .     A
C248   C307    1.330   .     S
C248   H339    1.088   .     S
C249   C251    1.380   .     A
C249   C260    1.399   .     A
C249   H280    1.084   .     S
C250   H281    1.084   .     S
C250   C261    1.399   .     A
C250   C253    1.380   .     A
C251   C254    1.396   .     A
C251   H282    1.084   .     S
C252   C255    1.436   .     S
C252   O292    1.285   .     A
C252   O294    1.285   .     A
C253   C255    1.396   .     A
C253   H283    1.084   .     S
C254   C256    1.400   .     A
C255   C257    1.400   .     A
C256   H284    1.085   .     S
C256   C258    1.386   .     A
C257   H285    1.085   .     S
C257   C259    1.386   .     A
C258   C260    1.406   .     A
C258   C262    1.445   .     S
C259   C264    1.445   .     S
C259   C261    1.406   .     A
C261   C80     1.446   1_565 S
C262   N289    1.157   .     T
C263   H286    1.082   .     S
C263   C266    1.407   .     A
C264   N290    1.157   .     T
C265   C267    1.407   .     A
C265   H272    1.082   .     S
C266   H273    1.082   .     S
C266   N287    1.363   .     A
C267   N288    1.363   .     A
C267   H274    1.082   .     S
C268   N287    1.363   .     A
C268   C270    1.407   .     A
C268   H275    1.082   .     S
C269   H276    1.081   .     S
C269   N288    1.363   .     A
C270   H277    1.082   .     S
H271   C307    1.088   .     S
N287   Zn300   2.004   .     S
N288   Zn299   2.004   .     S
O291   Zn299   1.992   .     S
O292   Zn300   1.992   .     S
O293   Zn300   1.994   .     S
O294   Zn299   1.994   .     S
O295   Zn299   1.970   .     S
O296   Zn300   1.970   .     S
O297   Zn300   1.982   .     S
O298   Zn299   1.982   .     S
C301   O351    1.286   .     A
C301   O353    1.285   .     A
C301   C314    1.436   .     S
C302   C304    1.410   .     A
C302   H338    1.082   .     S
C302   C329    1.407   .     A
C303   C330    1.410   .     A
C303   C323    1.411   .     A
C303   C664    1.513   1_554 S
C304   C325    1.411   .     A
C304   C663    1.513   .     S
C305   C307    1.402   .     S
C305   O357    1.278   .     A
C305   O355    1.276   .     A
C306   O358    1.278   .     A
C306   C308    1.402   .     S
C306   O356    1.276   .     A
C308   C187    1.330   1_655 S
C308   H219    1.088   1_655 S
C309   C311    1.380   .     A
C309   C320    1.399   .     A
C309   H340    1.084   .     S
C310   H341    1.084   .     S
C310   C321    1.399   .     A
C310   C313    1.380   .     A
C311   C314    1.396   .     A
C311   H342    1.084   .     S
C312   C315    1.436   .     S
C312   O352    1.285   .     A
C312   O354    1.285   .     A
C313   C315    1.396   .     A
C313   H343    1.084   .     S
C314   C316    1.400   .     A
C315   C317    1.400   .     A
C316   H344    1.085   .     S
C316   C318    1.386   .     A
C317   H345    1.085   .     S
C317   C319    1.386   .     A
C318   C320    1.406   .     A
C318   C322    1.445   .     S
C319   C324    1.445   .     S
C319   C321    1.406   .     A
C321   C140    1.446   1_565 S
C322   N349    1.157   .     T
C323   H346    1.082   .     S
C323   C326    1.407   .     A
C324   N350    1.157   .     T
C325   C327    1.407   .     A
C325   H332    1.082   .     S
C326   H333    1.082   .     S
C326   N347    1.363   .     A
C327   N348    1.363   .     A
C327   H334    1.082   .     S
C328   N347    1.363   .     A
C328   C330    1.407   .     A
C328   H335    1.082   .     S
C329   H336    1.081   .     S
C329   N348    1.363   .     A
C330   H337    1.082   .     S
H331   C187    1.088   1_655 S
N347   Zn360   2.004   .     S
N348   Zn359   2.004   .     S
O351   Zn359   1.992   .     S
O352   Zn360   1.992   .     S
O353   Zn360   1.994   .     S
O354   Zn359   1.994   .     S
O355   Zn359   1.970   .     S
O356   Zn360   1.970   .     S
O357   Zn360   1.982   .     S
O358   Zn359   1.982   .     S
C361   O411    1.286   .     A
C361   O413    1.285   .     A
C361   C374    1.436   .     S
C362   C364    1.410   .     A
C362   H398    1.082   .     S
C362   C389    1.407   .     A
C363   C390    1.410   .     A
C363   C383    1.411   .     A
C364   C385    1.411   .     A
C364   C3      1.513   1_556 S
C365   C367    1.402   .     S
C365   O417    1.278   .     A
C365   O415    1.276   .     A
C366   O418    1.278   .     A
C366   C368    1.402   .     S
C366   O416    1.276   .     A
C367   C488    1.330   1_455 S
C367   H511    1.088   1_455 S
C368   C427    1.330   .     S
C368   H459    1.088   .     S
C369   C371    1.380   .     A
C369   C380    1.399   .     A
C369   H400    1.084   .     S
C370   H401    1.084   .     S
C370   C381    1.399   .     A
C370   C373    1.380   .     A
C371   C374    1.396   .     A
C371   H402    1.084   .     S
C372   C375    1.436   .     S
C372   O412    1.285   .     A
C372   O414    1.285   .     A
C373   C375    1.396   .     A
C373   H403    1.084   .     S
C374   C376    1.400   .     A
C375   C377    1.400   .     A
C376   H404    1.085   .     S
C376   C378    1.386   .     A
C377   H405    1.085   .     S
C377   C379    1.386   .     A
C378   C380    1.406   .     A
C378   C382    1.445   .     S
C379   C384    1.445   .     S
C379   C381    1.406   .     A
C380   C561    1.446   1_545 S
C381   C560    1.446   .     S
C382   N409    1.157   .     T
C383   H406    1.082   .     S
C383   C386    1.407   .     A
C384   N410    1.157   .     T
C385   C387    1.407   .     A
C385   H392    1.082   .     S
C386   H393    1.082   .     S
C386   N407    1.363   .     A
C387   N408    1.363   .     A
C387   H394    1.082   .     S
C388   N407    1.363   .     A
C388   C390    1.407   .     A
C388   H395    1.082   .     S
C389   H396    1.081   .     S
C389   N408    1.363   .     A
C390   H397    1.082   .     S
H391   C427    1.088   .     S
H399   C488    1.088   1_455 S
N407   Zn420   2.004   .     S
N408   Zn419   2.004   .     S
O411   Zn419   1.992   .     S
O412   Zn420   1.992   .     S
O413   Zn420   1.994   .     S
O414   Zn419   1.994   .     S
O415   Zn419   1.970   .     S
O416   Zn420   1.970   .     S
O417   Zn420   1.982   .     S
O418   Zn419   1.982   .     S
C421   O471    1.286   .     A
C421   O473    1.285   .     A
C421   C434    1.436   .     S
C422   C424    1.410   .     A
C422   H458    1.082   .     S
C422   C449    1.407   .     A
C423   C450    1.410   .     A
C423   C443    1.411   .     A
C424   C445    1.411   .     A
C424   C63     1.513   1_556 S
C425   C427    1.402   .     S
C425   O477    1.278   .     A
C425   O475    1.276   .     A
C426   O478    1.278   .     A
C426   C428    1.402   .     S
C426   O476    1.276   .     A
C428   C487    1.330   .     S
C428   H519    1.088   .     S
C429   C431    1.380   .     A
C429   C440    1.399   .     A
C429   H460    1.084   .     S
C430   H461    1.084   .     S
C430   C441    1.399   .     A
C430   C433    1.380   .     A
C431   C434    1.396   .     A
C431   H462    1.084   .     S
C432   C435    1.436   .     S
C432   O472    1.285   .     A
C432   O474    1.285   .     A
C433   C435    1.396   .     A
C433   H463    1.084   .     S
C434   C436    1.400   .     A
C435   C437    1.400   .     A
C436   H464    1.085   .     S
C436   C438    1.386   .     A
C437   H465    1.085   .     S
C437   C439    1.386   .     A
C438   C440    1.406   .     A
C438   C442    1.445   .     S
C439   C444    1.445   .     S
C439   C441    1.406   .     A
C440   C621    1.446   1_545 S
C441   C620    1.446   .     S
C442   N469    1.157   .     T
C443   H466    1.082   .     S
C443   C446    1.407   .     A
C444   N470    1.157   .     T
C445   C447    1.407   .     A
C445   H452    1.082   .     S
C446   H453    1.082   .     S
C446   N467    1.363   .     A
C447   N468    1.363   .     A
C447   H454    1.082   .     S
C448   N467    1.363   .     A
C448   C450    1.407   .     A
C448   H455    1.082   .     S
C449   H456    1.081   .     S
C449   N468    1.363   .     A
C450   H457    1.082   .     S
H451   C487    1.088   .     S
N467   Zn480   2.004   .     S
N468   Zn479   2.004   .     S
O471   Zn479   1.992   .     S
O472   Zn480   1.992   .     S
O473   Zn480   1.994   .     S
O474   Zn479   1.994   .     S
O475   Zn479   1.970   .     S
O476   Zn480   1.970   .     S
O477   Zn480   1.982   .     S
O478   Zn479   1.982   .     S
C481   O531    1.286   .     A
C481   O533    1.285   .     A
C481   C494    1.436   .     S
C482   C484    1.410   .     A
C482   H518    1.082   .     S
C482   C509    1.407   .     A
C483   C510    1.410   .     A
C483   C503    1.411   .     A
C484   C505    1.411   .     A
C484   C123    1.513   1_556 S
C485   C487    1.402   .     S
C485   O537    1.278   .     A
C485   O535    1.276   .     A
C486   O538    1.278   .     A
C486   C488    1.402   .     S
C486   O536    1.276   .     A
C488   C367    1.330   1_655 S
C488   H399    1.088   1_655 S
C489   C491    1.380   .     A
C489   C500    1.399   .     A
C489   H520    1.084   .     S
C490   H521    1.084   .     S
C490   C501    1.399   .     A
C490   C493    1.380   .     A
C491   C494    1.396   .     A
C491   H522    1.084   .     S
C492   C495    1.436   .     S
C492   O532    1.285   .     A
C492   O534    1.285   .     A
C493   C495    1.396   .     A
C493   H523    1.084   .     S
C494   C496    1.400   .     A
C495   C497    1.400   .     A
C496   H524    1.085   .     S
C496   C498    1.386   .     A
C497   H525    1.085   .     S
C497   C499    1.386   .     A
C498   C500    1.406   .     A
C498   C502    1.445   .     S
C499   C504    1.445   .     S
C499   C501    1.406   .     A
C500   C681    1.446   1_545 S
C501   C680    1.446   .     S
C502   N529    1.157   .     T
C503   H526    1.082   .     S
C503   C506    1.407   .     A
C504   N530    1.157   .     T
C505   C507    1.407   .     A
C505   H512    1.082   .     S
C506   H513    1.082   .     S
C506   N527    1.363   .     A
C507   N528    1.363   .     A
C507   H514    1.082   .     S
C508   N527    1.363   .     A
C508   C510    1.407   .     A
C508   H515    1.082   .     S
C509   H516    1.081   .     S
C509   N528    1.363   .     A
C510   H517    1.082   .     S
H511   C367    1.088   1_655 S
N527   Zn540   2.004   .     S
N528   Zn539   2.004   .     S
O531   Zn539   1.992   .     S
O532   Zn540   1.992   .     S
O533   Zn540   1.994   .     S
O534   Zn539   1.994   .     S
O535   Zn539   1.970   .     S
O536   Zn540   1.970   .     S
O537   Zn540   1.982   .     S
O538   Zn539   1.982   .     S
C541   O591    1.286   .     A
C541   O593    1.285   .     A
C541   C554    1.436   .     S
C542   C544    1.410   .     A
C542   H578    1.082   .     S
C542   C569    1.407   .     A
C543   C570    1.410   .     A
C543   C563    1.411   .     A
C544   C565    1.411   .     A
C544   C183    1.513   1_556 S
C545   C547    1.402   .     S
C545   O597    1.278   .     A
C545   O595    1.276   .     A
C546   O598    1.278   .     A
C546   C548    1.402   .     S
C546   O596    1.276   .     A
C547   C668    1.330   1_455 S
C547   H691    1.088   1_455 S
C548   C607    1.330   .     S
C548   H639    1.088   .     S
C549   C551    1.380   .     A
C549   C560    1.399   .     A
C549   H580    1.084   .     S
C550   H581    1.084   .     S
C550   C561    1.399   .     A
C550   C553    1.380   .     A
C551   C554    1.396   .     A
C551   H582    1.084   .     S
C552   C555    1.436   .     S
C552   O592    1.285   .     A
C552   O594    1.285   .     A
C553   C555    1.396   .     A
C553   H583    1.084   .     S
C554   C556    1.400   .     A
C555   C557    1.400   .     A
C556   H584    1.085   .     S
C556   C558    1.386   .     A
C557   H585    1.085   .     S
C557   C559    1.386   .     A
C558   C560    1.406   .     A
C558   C562    1.445   .     S
C559   C564    1.445   .     S
C559   C561    1.406   .     A
C561   C380    1.446   1_565 S
C562   N589    1.157   .     T
C563   H586    1.082   .     S
C563   C566    1.407   .     A
C564   N590    1.157   .     T
C565   C567    1.407   .     A
C565   H572    1.082   .     S
C566   H573    1.082   .     S
C566   N587    1.363   .     A
C567   N588    1.363   .     A
C567   H574    1.082   .     S
C568   N587    1.363   .     A
C568   C570    1.407   .     A
C568   H575    1.082   .     S
C569   H576    1.081   .     S
C569   N588    1.363   .     A
C570   H577    1.082   .     S
H571   C607    1.088   .     S
H579   C668    1.088   1_455 S
N587   Zn600   2.004   .     S
N588   Zn599   2.004   .     S
O591   Zn599   1.992   .     S
O592   Zn600   1.992   .     S
O593   Zn600   1.994   .     S
O594   Zn599   1.994   .     S
O595   Zn599   1.970   .     S
O596   Zn600   1.970   .     S
O597   Zn600   1.982   .     S
O598   Zn599   1.982   .     S
C601   O651    1.286   .     A
C601   O653    1.285   .     A
C601   C614    1.436   .     S
C602   C604    1.410   .     A
C602   H638    1.082   .     S
C602   C629    1.407   .     A
C603   C630    1.410   .     A
C603   C623    1.411   .     A
C604   C625    1.411   .     A
C604   C243    1.513   1_556 S
C605   C607    1.402   .     S
C605   O657    1.278   .     A
C605   O655    1.276   .     A
C606   O658    1.278   .     A
C606   C608    1.402   .     S
C606   O656    1.276   .     A
C608   C667    1.330   .     S
C608   H699    1.088   .     S
C609   C611    1.380   .     A
C609   C620    1.399   .     A
C609   H640    1.084   .     S
C610   H641    1.084   .     S
C610   C621    1.399   .     A
C610   C613    1.380   .     A
C611   C614    1.396   .     A
C611   H642    1.084   .     S
C612   C615    1.436   .     S
C612   O652    1.285   .     A
C612   O654    1.285   .     A
C613   C615    1.396   .     A
C613   H643    1.084   .     S
C614   C616    1.400   .     A
C615   C617    1.400   .     A
C616   H644    1.085   .     S
C616   C618    1.386   .     A
C617   H645    1.085   .     S
C617   C619    1.386   .     A
C618   C620    1.406   .     A
C618   C622    1.445   .     S
C619   C624    1.445   .     S
C619   C621    1.406   .     A
C621   C440    1.446   1_565 S
C622   N649    1.157   .     T
C623   H646    1.082   .     S
C623   C626    1.407   .     A
C624   N650    1.157   .     T
C625   C627    1.407   .     A
C625   H632    1.082   .     S
C626   H633    1.082   .     S
C626   N647    1.363   .     A
C627   N648    1.363   .     A
C627   H634    1.082   .     S
C628   N647    1.363   .     A
C628   C630    1.407   .     A
C628   H635    1.082   .     S
C629   H636    1.081   .     S
C629   N648    1.363   .     A
C630   H637    1.082   .     S
H631   C667    1.088   .     S
N647   Zn660   2.004   .     S
N648   Zn659   2.004   .     S
O651   Zn659   1.992   .     S
O652   Zn660   1.992   .     S
O653   Zn660   1.994   .     S
O654   Zn659   1.994   .     S
O655   Zn659   1.970   .     S
O656   Zn660   1.970   .     S
O657   Zn660   1.982   .     S
O658   Zn659   1.982   .     S
C661   O711    1.286   .     A
C661   O713    1.285   .     A
C661   C674    1.436   .     S
C662   C664    1.410   .     A
C662   H698    1.082   .     S
C662   C689    1.407   .     A
C663   C690    1.410   .     A
C663   C683    1.411   .     A
C664   C685    1.411   .     A
C664   C303    1.513   1_556 S
C665   C667    1.402   .     S
C665   O717    1.278   .     A
C665   O715    1.276   .     A
C666   O718    1.278   .     A
C666   C668    1.402   .     S
C666   O716    1.276   .     A
C668   C547    1.330   1_655 S
C668   H579    1.088   1_655 S
C669   C671    1.380   .     A
C669   C680    1.399   .     A
C669   H700    1.084   .     S
C670   H701    1.084   .     S
C670   C681    1.399   .     A
C670   C673    1.380   .     A
C671   C674    1.396   .     A
C671   H702    1.084   .     S
C672   C675    1.436   .     S
C672   O712    1.285   .     A
C672   O714    1.285   .     A
C673   C675    1.396   .     A
C673   H703    1.084   .     S
C674   C676    1.400   .     A
C675   C677    1.400   .     A
C676   H704    1.085   .     S
C676   C678    1.386   .     A
C677   H705    1.085   .     S
C677   C679    1.386   .     A
C678   C680    1.406   .     A
C678   C682    1.445   .     S
C679   C684    1.445   .     S
C679   C681    1.406   .     A
C681   C500    1.446   1_565 S
C682   N709    1.157   .     T
C683   H706    1.082   .     S
C683   C686    1.407   .     A
C684   N710    1.157   .     T
C685   C687    1.407   .     A
C685   H692    1.082   .     S
C686   H693    1.082   .     S
C686   N707    1.363   .     A
C687   N708    1.363   .     A
C687   H694    1.082   .     S
C688   N707    1.363   .     A
C688   C690    1.407   .     A
C688   H695    1.082   .     S
C689   H696    1.081   .     S
C689   N708    1.363   .     A
C690   H697    1.082   .     S
H691   C547    1.088   1_655 S
N707   Zn720   2.004   .     S
N708   Zn719   2.004   .     S
O711   Zn719   1.992   .     S
O712   Zn720   1.992   .     S
O713   Zn720   1.994   .     S
O714   Zn719   1.994   .     S
O715   Zn719   1.970   .     S
O716   Zn720   1.970   .     S
O717   Zn720   1.982   .     S
O718   Zn719   1.982   .     S
