data_str_m3_o1_o17_pcu_sym.37
_audit_creation_date              2020-01-03
_audit_creation_method            'Materials Studio'
_symmetry_space_group_name_H-M    'P1'
_symmetry_Int_Tables_number       1
_symmetry_cell_setting            triclinic
loop_
_symmetry_equiv_pos_as_xyz
  x,y,z
_cell_length_a                    32.2386
_cell_length_b                    29.7422
_cell_length_c                    29.9756
_cell_angle_alpha                 89.9995
_cell_angle_beta                  91.1034
_cell_angle_gamma                 89.9990
loop_
_atom_site_label
_atom_site_type_symbol
_atom_site_fract_x
_atom_site_fract_y
_atom_site_fract_z
_atom_site_U_iso_or_equiv
_atom_site_adp_type
_atom_site_occupancy
O1     O     0.10559   0.20487   0.25000   0.00000  Uiso   1.00
O2     O     0.22774   0.12846   0.25001   0.00000  Uiso   1.00
O3     O     0.22774   0.20487   0.25001   0.00000  Uiso   1.00
O4     O     0.10559   0.12846   0.25000   0.00000  Uiso   1.00
C5     C     0.08668   0.16667   0.25005   0.00000  Uiso   1.00
C6     C     0.24665   0.16667   0.24995   0.00000  Uiso   1.00
O7     O     0.16666   0.20489   0.18393   0.00000  Uiso   1.00
O8     O     0.16667   0.12844   0.31608   0.00000  Uiso   1.00
O9     O     0.16667   0.20489   0.31608   0.00000  Uiso   1.00
O10    O     0.16666   0.12844   0.18393   0.00000  Uiso   1.00
C11    C     0.16662   0.16677   0.16379   0.00000  Uiso   1.00
C12    C     0.16671   0.16677   0.33621   0.00000  Uiso   1.00
Zn13   Zn    0.16667   0.21771   0.25000   0.00000  Uiso   1.00
Zn14   Zn    0.16667   0.11563   0.25000   0.00000  Uiso   1.00
C15    C     0.20533   0.16811   0.40708   0.00000  Uiso   1.00
C16    C     0.12798   0.16811   0.09292   0.00000  Uiso   1.00
C17    C     0.16703   0.16749   0.38385   0.00000  Uiso   1.00
C18    C     0.16629   0.16750   0.11615   0.00000  Uiso   1.00
C19    C     0.12887   0.17000   0.40532   0.00000  Uiso   1.00
C20    C     0.20445   0.17001   0.09467   0.00000  Uiso   1.00
C21    C     0.12870   0.16694   0.45213   0.00000  Uiso   1.00
C22    C     0.20461   0.16695   0.04787   0.00000  Uiso   1.00
C23    C     0.16682   0.16976   0.47644   0.00000  Uiso   1.00
C24    C     0.16648   0.16976   0.02356   0.00000  Uiso   1.00
C25    C     0.20526   0.17243   0.45398   0.00000  Uiso   1.00
C26    C     0.12805   0.17242   0.04602   0.00000  Uiso   1.00
C27    C     0.09146   0.16350   0.47568   0.00000  Uiso   1.00
C28    C     0.24184   0.16351   0.02432   0.00000  Uiso   1.00
C29    C     0.09088   0.17574   0.02031   0.00000  Uiso   1.00
C30    C     0.24242   0.17576   0.47969   0.00000  Uiso   1.00
C31    C     0.02126   0.12570   0.25009   0.00000  Uiso   1.00
C32    C     0.31207   0.20766   0.24993   0.00000  Uiso   1.00
C33    C     0.31207   0.12570   0.24992   0.00000  Uiso   1.00
C34    C     0.02127   0.20766   0.25007   0.00000  Uiso   1.00
H35    H     0.03734   0.09372   0.25022   0.00000  Uiso   1.00
H36    H     0.29598   0.23964   0.24984   0.00000  Uiso   1.00
H37    H     0.29599   0.09372   0.24979   0.00000  Uiso   1.00
H38    H     0.03735   0.23964   0.25016   0.00000  Uiso   1.00
C39    C     0.29085   0.16668   0.24991   0.00000  Uiso   1.00
C40    C     0.04249   0.16668   0.25009   0.00000  Uiso   1.00
C41    C     0.19357   0.02387   0.27706   0.00000  Uiso   1.00
C42    C     0.13996   0.30924   0.22275   0.00000  Uiso   1.00
C43    C     0.13977   0.02388   0.22294   0.00000  Uiso   1.00
C44    C     0.19337   0.30924   0.27725   0.00000  Uiso   1.00
N45    N     0.16667   0.28573   0.25000   0.00000  Uiso   1.00
N46    N     0.16667   0.04760   0.25000   0.00000  Uiso   1.00
C47    C     0.24543   0.16051   0.38197   0.00000  Uiso   1.00
H48    H     0.26422   0.13395   0.39874   0.00000  Uiso   1.00
H49    H     0.24065   0.14898   0.34728   0.00000  Uiso   1.00
H50    H     0.26323   0.19210   0.37913   0.00000  Uiso   1.00
C51    C     0.08790   0.16050   0.11805   0.00000  Uiso   1.00
H52    H     0.06913   0.13389   0.10133   0.00000  Uiso   1.00
H53    H     0.09268   0.14903   0.15276   0.00000  Uiso   1.00
H54    H     0.07006   0.19207   0.12085   0.00000  Uiso   1.00
C55    C     0.08931   0.17966   0.37814   0.00000  Uiso   1.00
H56    H     0.09517   0.20031   0.34817   0.00000  Uiso   1.00
H57    H     0.07460   0.14763   0.36726   0.00000  Uiso   1.00
H58    H     0.06721   0.20031   0.39732   0.00000  Uiso   1.00
C59    C     0.24401   0.17968   0.12185   0.00000  Uiso   1.00
H60    H     0.23815   0.20038   0.15179   0.00000  Uiso   1.00
H61    H     0.25869   0.14766   0.13278   0.00000  Uiso   1.00
H62    H     0.26612   0.20029   0.10265   0.00000  Uiso   1.00
C63    C     0.05534   0.14038   0.45750   0.00000  Uiso   1.00
N64    N     0.02682   0.12123   0.44315   0.00000  Uiso   1.00
C65    C     0.27796   0.14036   0.04248   0.00000  Uiso   1.00
N66    N     0.30646   0.12118   0.05681   0.00000  Uiso   1.00
C67    C     0.05331   0.20153   0.03562   0.00000  Uiso   1.00
H68    H     0.03633   0.21656   0.00669   0.00000  Uiso   1.00
H69    H     0.03149   0.17942   0.05316   0.00000  Uiso   1.00
H70    H     0.06297   0.23037   0.05689   0.00000  Uiso   1.00
C71    C     0.27996   0.20162   0.46440   0.00000  Uiso   1.00
H72    H     0.29687   0.21671   0.49334   0.00000  Uiso   1.00
H73    H     0.30184   0.17954   0.44690   0.00000  Uiso   1.00
H74    H     0.27026   0.23042   0.44309   0.00000  Uiso   1.00
C75    C     0.22272   0.04754   0.30548   0.00000  Uiso   1.00
N76    N     0.24660   0.06558   0.32852   0.00000  Uiso   1.00
C77    C     0.11182   0.28493   0.19359   0.00000  Uiso   1.00
N78    N     0.08908   0.26583   0.17003   0.00000  Uiso   1.00
C79    C     0.11061   0.04754   0.19452   0.00000  Uiso   1.00
N80    N     0.08673   0.06559   0.17149   0.00000  Uiso   1.00
C81    C     0.22152   0.28493   0.30641   0.00000  Uiso   1.00
N82    N     0.24425   0.26582   0.32997   0.00000  Uiso   1.00
O83    O     0.43892   0.20487   0.25000   0.00000  Uiso   1.00
O84    O     0.56108   0.12846   0.25001   0.00000  Uiso   1.00
O85    O     0.56108   0.20487   0.25001   0.00000  Uiso   1.00
O86    O     0.43892   0.12846   0.25000   0.00000  Uiso   1.00
C87    C     0.42002   0.16667   0.25005   0.00000  Uiso   1.00
C88    C     0.57998   0.16667   0.24995   0.00000  Uiso   1.00
O89    O     0.49999   0.20489   0.18393   0.00000  Uiso   1.00
O90    O     0.50001   0.12844   0.31608   0.00000  Uiso   1.00
O91    O     0.50001   0.20489   0.31608   0.00000  Uiso   1.00
O92    O     0.49999   0.12844   0.18393   0.00000  Uiso   1.00
C93    C     0.49996   0.16677   0.16379   0.00000  Uiso   1.00
C94    C     0.50004   0.16677   0.33621   0.00000  Uiso   1.00
Zn95   Zn    0.50000   0.21771   0.25000   0.00000  Uiso   1.00
Zn96   Zn    0.50000   0.11563   0.25000   0.00000  Uiso   1.00
C97    C     0.53866   0.16811   0.40708   0.00000  Uiso   1.00
C98    C     0.46132   0.16811   0.09292   0.00000  Uiso   1.00
C99    C     0.50036   0.16749   0.38385   0.00000  Uiso   1.00
C100   C     0.49962   0.16750   0.11615   0.00000  Uiso   1.00
C101   C     0.46220   0.17000   0.40532   0.00000  Uiso   1.00
C102   C     0.53778   0.17001   0.09467   0.00000  Uiso   1.00
C103   C     0.46203   0.16694   0.45213   0.00000  Uiso   1.00
C104   C     0.53794   0.16695   0.04787   0.00000  Uiso   1.00
C105   C     0.50016   0.16976   0.47644   0.00000  Uiso   1.00
C106   C     0.49981   0.16976   0.02356   0.00000  Uiso   1.00
C107   C     0.53859   0.17243   0.45398   0.00000  Uiso   1.00
C108   C     0.46138   0.17242   0.04602   0.00000  Uiso   1.00
C109   C     0.42480   0.16350   0.47568   0.00000  Uiso   1.00
C110   C     0.57518   0.16351   0.02432   0.00000  Uiso   1.00
C111   C     0.42421   0.17574   0.02031   0.00000  Uiso   1.00
C112   C     0.57576   0.17576   0.47969   0.00000  Uiso   1.00
C113   C     0.35460   0.12570   0.25009   0.00000  Uiso   1.00
C114   C     0.64540   0.20766   0.24993   0.00000  Uiso   1.00
C115   C     0.64540   0.12570   0.24992   0.00000  Uiso   1.00
C116   C     0.35460   0.20766   0.25007   0.00000  Uiso   1.00
H117   H     0.37068   0.09372   0.25022   0.00000  Uiso   1.00
H118   H     0.62931   0.23964   0.24984   0.00000  Uiso   1.00
H119   H     0.62933   0.09372   0.24979   0.00000  Uiso   1.00
H120   H     0.37068   0.23964   0.25016   0.00000  Uiso   1.00
C121   C     0.62418   0.16668   0.24991   0.00000  Uiso   1.00
C122   C     0.37582   0.16668   0.25009   0.00000  Uiso   1.00
C123   C     0.52690   0.02387   0.27706   0.00000  Uiso   1.00
C124   C     0.47330   0.30924   0.22275   0.00000  Uiso   1.00
C125   C     0.47310   0.02388   0.22294   0.00000  Uiso   1.00
C126   C     0.52670   0.30924   0.27725   0.00000  Uiso   1.00
N127   N     0.50000   0.28573   0.25000   0.00000  Uiso   1.00
N128   N     0.50000   0.04760   0.25000   0.00000  Uiso   1.00
C129   C     0.57876   0.16051   0.38197   0.00000  Uiso   1.00
H130   H     0.59756   0.13395   0.39874   0.00000  Uiso   1.00
H131   H     0.57399   0.14898   0.34728   0.00000  Uiso   1.00
H132   H     0.59657   0.19210   0.37913   0.00000  Uiso   1.00
C133   C     0.42123   0.16050   0.11805   0.00000  Uiso   1.00
H134   H     0.40247   0.13389   0.10133   0.00000  Uiso   1.00
H135   H     0.42601   0.14903   0.15276   0.00000  Uiso   1.00
H136   H     0.40339   0.19207   0.12085   0.00000  Uiso   1.00
C137   C     0.42264   0.17966   0.37814   0.00000  Uiso   1.00
H138   H     0.42850   0.20031   0.34817   0.00000  Uiso   1.00
H139   H     0.40794   0.14763   0.36726   0.00000  Uiso   1.00
H140   H     0.40054   0.20031   0.39732   0.00000  Uiso   1.00
C141   C     0.57734   0.17968   0.12185   0.00000  Uiso   1.00
H142   H     0.57148   0.20038   0.15179   0.00000  Uiso   1.00
H143   H     0.59203   0.14766   0.13278   0.00000  Uiso   1.00
H144   H     0.59946   0.20029   0.10265   0.00000  Uiso   1.00
C145   C     0.38867   0.14038   0.45750   0.00000  Uiso   1.00
N146   N     0.36016   0.12123   0.44315   0.00000  Uiso   1.00
C147   C     0.61129   0.14036   0.04248   0.00000  Uiso   1.00
N148   N     0.63980   0.12118   0.05681   0.00000  Uiso   1.00
C149   C     0.38664   0.20153   0.03562   0.00000  Uiso   1.00
H150   H     0.36967   0.21656   0.00669   0.00000  Uiso   1.00
H151   H     0.36482   0.17942   0.05316   0.00000  Uiso   1.00
H152   H     0.39631   0.23037   0.05689   0.00000  Uiso   1.00
C153   C     0.61329   0.20162   0.46440   0.00000  Uiso   1.00
H154   H     0.63020   0.21671   0.49334   0.00000  Uiso   1.00
H155   H     0.63517   0.17954   0.44690   0.00000  Uiso   1.00
H156   H     0.60359   0.23042   0.44309   0.00000  Uiso   1.00
C157   C     0.55606   0.04754   0.30548   0.00000  Uiso   1.00
N158   N     0.57993   0.06558   0.32852   0.00000  Uiso   1.00
C159   C     0.44515   0.28493   0.19359   0.00000  Uiso   1.00
N160   N     0.42241   0.26583   0.17003   0.00000  Uiso   1.00
C161   C     0.44394   0.04754   0.19452   0.00000  Uiso   1.00
N162   N     0.42007   0.06559   0.17149   0.00000  Uiso   1.00
C163   C     0.55485   0.28493   0.30641   0.00000  Uiso   1.00
N164   N     0.57759   0.26582   0.32997   0.00000  Uiso   1.00
O165   O     0.77226   0.20487   0.25000   0.00000  Uiso   1.00
O166   O     0.89441   0.12846   0.25001   0.00000  Uiso   1.00
O167   O     0.89441   0.20487   0.25001   0.00000  Uiso   1.00
O168   O     0.77226   0.12846   0.25000   0.00000  Uiso   1.00
C169   C     0.75335   0.16667   0.25005   0.00000  Uiso   1.00
C170   C     0.91332   0.16667   0.24995   0.00000  Uiso   1.00
O171   O     0.83333   0.20489   0.18393   0.00000  Uiso   1.00
O172   O     0.83334   0.12844   0.31608   0.00000  Uiso   1.00
O173   O     0.83334   0.20489   0.31608   0.00000  Uiso   1.00
O174   O     0.83333   0.12844   0.18393   0.00000  Uiso   1.00
C175   C     0.83329   0.16677   0.16379   0.00000  Uiso   1.00
C176   C     0.83338   0.16677   0.33621   0.00000  Uiso   1.00
Zn177  Zn    0.83333   0.21771   0.25000   0.00000  Uiso   1.00
Zn178  Zn    0.83333   0.11563   0.25000   0.00000  Uiso   1.00
C179   C     0.87200   0.16811   0.40708   0.00000  Uiso   1.00
C180   C     0.79465   0.16811   0.09292   0.00000  Uiso   1.00
C181   C     0.83370   0.16749   0.38385   0.00000  Uiso   1.00
C182   C     0.83296   0.16750   0.11615   0.00000  Uiso   1.00
C183   C     0.79553   0.17000   0.40532   0.00000  Uiso   1.00
C184   C     0.87111   0.17001   0.09467   0.00000  Uiso   1.00
C185   C     0.79537   0.16694   0.45213   0.00000  Uiso   1.00
C186   C     0.87127   0.16695   0.04787   0.00000  Uiso   1.00
C187   C     0.83349   0.16976   0.47644   0.00000  Uiso   1.00
C188   C     0.83315   0.16976   0.02356   0.00000  Uiso   1.00
C189   C     0.87193   0.17243   0.45398   0.00000  Uiso   1.00
C190   C     0.79471   0.17242   0.04602   0.00000  Uiso   1.00
C191   C     0.75813   0.16350   0.47568   0.00000  Uiso   1.00
C192   C     0.90851   0.16351   0.02432   0.00000  Uiso   1.00
C193   C     0.75755   0.17574   0.02031   0.00000  Uiso   1.00
C194   C     0.90909   0.17576   0.47969   0.00000  Uiso   1.00
C195   C     0.68793   0.12570   0.25009   0.00000  Uiso   1.00
C196   C     0.97873   0.20766   0.24993   0.00000  Uiso   1.00
C197   C     0.97874   0.12570   0.24992   0.00000  Uiso   1.00
C198   C     0.68793   0.20766   0.25007   0.00000  Uiso   1.00
H199   H     0.70401   0.09372   0.25022   0.00000  Uiso   1.00
H200   H     0.96265   0.23964   0.24984   0.00000  Uiso   1.00
H201   H     0.96266   0.09372   0.24979   0.00000  Uiso   1.00
H202   H     0.70402   0.23964   0.25016   0.00000  Uiso   1.00
C203   C     0.95751   0.16668   0.24991   0.00000  Uiso   1.00
C204   C     0.70915   0.16668   0.25009   0.00000  Uiso   1.00
C205   C     0.86023   0.02387   0.27706   0.00000  Uiso   1.00
C206   C     0.80663   0.30924   0.22275   0.00000  Uiso   1.00
C207   C     0.80643   0.02388   0.22294   0.00000  Uiso   1.00
C208   C     0.86004   0.30924   0.27725   0.00000  Uiso   1.00
N209   N     0.83333   0.28573   0.25000   0.00000  Uiso   1.00
N210   N     0.83333   0.04760   0.25000   0.00000  Uiso   1.00
C211   C     0.91209   0.16051   0.38197   0.00000  Uiso   1.00
H212   H     0.93089   0.13395   0.39874   0.00000  Uiso   1.00
H213   H     0.90732   0.14898   0.34728   0.00000  Uiso   1.00
H214   H     0.92990   0.19210   0.37913   0.00000  Uiso   1.00
C215   C     0.75456   0.16050   0.11805   0.00000  Uiso   1.00
H216   H     0.73580   0.13389   0.10133   0.00000  Uiso   1.00
H217   H     0.75935   0.14903   0.15276   0.00000  Uiso   1.00
H218   H     0.73673   0.19207   0.12085   0.00000  Uiso   1.00
C219   C     0.75597   0.17966   0.37814   0.00000  Uiso   1.00
H220   H     0.76184   0.20031   0.34817   0.00000  Uiso   1.00
H221   H     0.74127   0.14763   0.36726   0.00000  Uiso   1.00
H222   H     0.73388   0.20031   0.39732   0.00000  Uiso   1.00
C223   C     0.91067   0.17968   0.12185   0.00000  Uiso   1.00
H224   H     0.90481   0.20038   0.15179   0.00000  Uiso   1.00
H225   H     0.92536   0.14766   0.13278   0.00000  Uiso   1.00
H226   H     0.93279   0.20029   0.10265   0.00000  Uiso   1.00
C227   C     0.72200   0.14038   0.45750   0.00000  Uiso   1.00
N228   N     0.69349   0.12123   0.44315   0.00000  Uiso   1.00
C229   C     0.94463   0.14036   0.04248   0.00000  Uiso   1.00
N230   N     0.97313   0.12118   0.05681   0.00000  Uiso   1.00
C231   C     0.71997   0.20153   0.03562   0.00000  Uiso   1.00
H232   H     0.70300   0.21656   0.00669   0.00000  Uiso   1.00
H233   H     0.69815   0.17942   0.05316   0.00000  Uiso   1.00
H234   H     0.72964   0.23037   0.05689   0.00000  Uiso   1.00
C235   C     0.94663   0.20162   0.46440   0.00000  Uiso   1.00
H236   H     0.96354   0.21671   0.49334   0.00000  Uiso   1.00
H237   H     0.96851   0.17954   0.44690   0.00000  Uiso   1.00
H238   H     0.93693   0.23042   0.44309   0.00000  Uiso   1.00
C239   C     0.88939   0.04754   0.30548   0.00000  Uiso   1.00
N240   N     0.91327   0.06558   0.32852   0.00000  Uiso   1.00
C241   C     0.77848   0.28493   0.19359   0.00000  Uiso   1.00
N242   N     0.75575   0.26583   0.17003   0.00000  Uiso   1.00
C243   C     0.77728   0.04754   0.19452   0.00000  Uiso   1.00
N244   N     0.75340   0.06559   0.17149   0.00000  Uiso   1.00
C245   C     0.88818   0.28493   0.30641   0.00000  Uiso   1.00
N246   N     0.91092   0.26582   0.32997   0.00000  Uiso   1.00
O247   O     0.10559   0.53821   0.25000   0.00000  Uiso   1.00
O248   O     0.22774   0.46179   0.25001   0.00000  Uiso   1.00
O249   O     0.22774   0.53821   0.25001   0.00000  Uiso   1.00
O250   O     0.10559   0.46179   0.25000   0.00000  Uiso   1.00
C251   C     0.08668   0.50000   0.25005   0.00000  Uiso   1.00
C252   C     0.24665   0.50000   0.24995   0.00000  Uiso   1.00
O253   O     0.16666   0.53823   0.18393   0.00000  Uiso   1.00
O254   O     0.16667   0.46177   0.31608   0.00000  Uiso   1.00
O255   O     0.16667   0.53823   0.31608   0.00000  Uiso   1.00
O256   O     0.16666   0.46177   0.18393   0.00000  Uiso   1.00
C257   C     0.16662   0.50010   0.16379   0.00000  Uiso   1.00
C258   C     0.16671   0.50010   0.33621   0.00000  Uiso   1.00
Zn259  Zn    0.16667   0.55104   0.25000   0.00000  Uiso   1.00
Zn260  Zn    0.16667   0.44896   0.25000   0.00000  Uiso   1.00
C261   C     0.20533   0.50144   0.40708   0.00000  Uiso   1.00
C262   C     0.12798   0.50144   0.09292   0.00000  Uiso   1.00
C263   C     0.16703   0.50083   0.38385   0.00000  Uiso   1.00
C264   C     0.16629   0.50083   0.11615   0.00000  Uiso   1.00
C265   C     0.12887   0.50333   0.40532   0.00000  Uiso   1.00
C266   C     0.20445   0.50334   0.09467   0.00000  Uiso   1.00
C267   C     0.12870   0.50027   0.45213   0.00000  Uiso   1.00
C268   C     0.20461   0.50028   0.04787   0.00000  Uiso   1.00
C269   C     0.16682   0.50309   0.47644   0.00000  Uiso   1.00
C270   C     0.16648   0.50309   0.02356   0.00000  Uiso   1.00
C271   C     0.20526   0.50576   0.45398   0.00000  Uiso   1.00
C272   C     0.12805   0.50575   0.04602   0.00000  Uiso   1.00
C273   C     0.09146   0.49683   0.47568   0.00000  Uiso   1.00
C274   C     0.24184   0.49684   0.02432   0.00000  Uiso   1.00
C275   C     0.09088   0.50907   0.02031   0.00000  Uiso   1.00
C276   C     0.24242   0.50909   0.47969   0.00000  Uiso   1.00
C277   C     0.02126   0.45903   0.25009   0.00000  Uiso   1.00
C278   C     0.31207   0.54099   0.24993   0.00000  Uiso   1.00
C279   C     0.31207   0.45903   0.24992   0.00000  Uiso   1.00
C280   C     0.02127   0.54099   0.25007   0.00000  Uiso   1.00
H281   H     0.03734   0.42705   0.25022   0.00000  Uiso   1.00
H282   H     0.29598   0.57297   0.24984   0.00000  Uiso   1.00
H283   H     0.29599   0.42705   0.24979   0.00000  Uiso   1.00
H284   H     0.03735   0.57297   0.25016   0.00000  Uiso   1.00
C285   C     0.29085   0.50001   0.24991   0.00000  Uiso   1.00
C286   C     0.04249   0.50001   0.25009   0.00000  Uiso   1.00
C287   C     0.19357   0.35721   0.27706   0.00000  Uiso   1.00
C288   C     0.13996   0.64258   0.22275   0.00000  Uiso   1.00
C289   C     0.13977   0.35721   0.22294   0.00000  Uiso   1.00
C290   C     0.19337   0.64257   0.27725   0.00000  Uiso   1.00
N291   N     0.16667   0.61907   0.25000   0.00000  Uiso   1.00
N292   N     0.16667   0.38093   0.25000   0.00000  Uiso   1.00
C293   C     0.24543   0.49384   0.38197   0.00000  Uiso   1.00
H294   H     0.26422   0.46728   0.39874   0.00000  Uiso   1.00
H295   H     0.24065   0.48231   0.34728   0.00000  Uiso   1.00
H296   H     0.26323   0.52544   0.37913   0.00000  Uiso   1.00
C297   C     0.08790   0.49383   0.11805   0.00000  Uiso   1.00
H298   H     0.06913   0.46722   0.10133   0.00000  Uiso   1.00
H299   H     0.09268   0.48236   0.15276   0.00000  Uiso   1.00
H300   H     0.07006   0.52540   0.12085   0.00000  Uiso   1.00
C301   C     0.08931   0.51299   0.37814   0.00000  Uiso   1.00
H302   H     0.09517   0.53365   0.34817   0.00000  Uiso   1.00
H303   H     0.07460   0.48097   0.36726   0.00000  Uiso   1.00
H304   H     0.06721   0.53365   0.39732   0.00000  Uiso   1.00
C305   C     0.24401   0.51301   0.12185   0.00000  Uiso   1.00
H306   H     0.23815   0.53371   0.15179   0.00000  Uiso   1.00
H307   H     0.25869   0.48099   0.13278   0.00000  Uiso   1.00
H308   H     0.26612   0.53363   0.10265   0.00000  Uiso   1.00
C309   C     0.05534   0.47371   0.45750   0.00000  Uiso   1.00
N310   N     0.02682   0.45456   0.44315   0.00000  Uiso   1.00
C311   C     0.27796   0.47370   0.04248   0.00000  Uiso   1.00
N312   N     0.30646   0.45452   0.05681   0.00000  Uiso   1.00
C313   C     0.05331   0.53486   0.03562   0.00000  Uiso   1.00
H314   H     0.03633   0.54989   0.00669   0.00000  Uiso   1.00
H315   H     0.03149   0.51275   0.05316   0.00000  Uiso   1.00
H316   H     0.06297   0.56370   0.05689   0.00000  Uiso   1.00
C317   C     0.27996   0.53495   0.46440   0.00000  Uiso   1.00
H318   H     0.29687   0.55004   0.49334   0.00000  Uiso   1.00
H319   H     0.30184   0.51287   0.44690   0.00000  Uiso   1.00
H320   H     0.27026   0.56375   0.44309   0.00000  Uiso   1.00
C321   C     0.22272   0.38087   0.30548   0.00000  Uiso   1.00
N322   N     0.24660   0.39891   0.32852   0.00000  Uiso   1.00
C323   C     0.11182   0.61826   0.19359   0.00000  Uiso   1.00
N324   N     0.08908   0.59916   0.17003   0.00000  Uiso   1.00
C325   C     0.11061   0.38088   0.19452   0.00000  Uiso   1.00
N326   N     0.08673   0.39892   0.17149   0.00000  Uiso   1.00
C327   C     0.22152   0.61826   0.30641   0.00000  Uiso   1.00
N328   N     0.24425   0.59916   0.32997   0.00000  Uiso   1.00
O329   O     0.43892   0.53821   0.25000   0.00000  Uiso   1.00
O330   O     0.56108   0.46179   0.25001   0.00000  Uiso   1.00
O331   O     0.56108   0.53821   0.25001   0.00000  Uiso   1.00
O332   O     0.43892   0.46179   0.25000   0.00000  Uiso   1.00
C333   C     0.42002   0.50000   0.25005   0.00000  Uiso   1.00
C334   C     0.57998   0.50000   0.24995   0.00000  Uiso   1.00
O335   O     0.49999   0.53823   0.18393   0.00000  Uiso   1.00
O336   O     0.50001   0.46177   0.31608   0.00000  Uiso   1.00
O337   O     0.50001   0.53823   0.31608   0.00000  Uiso   1.00
O338   O     0.49999   0.46177   0.18393   0.00000  Uiso   1.00
C339   C     0.49996   0.50010   0.16379   0.00000  Uiso   1.00
C340   C     0.50004   0.50010   0.33621   0.00000  Uiso   1.00
Zn341  Zn    0.50000   0.55104   0.25000   0.00000  Uiso   1.00
Zn342  Zn    0.50000   0.44896   0.25000   0.00000  Uiso   1.00
C343   C     0.53866   0.50144   0.40708   0.00000  Uiso   1.00
C344   C     0.46132   0.50144   0.09292   0.00000  Uiso   1.00
C345   C     0.50036   0.50083   0.38385   0.00000  Uiso   1.00
C346   C     0.49962   0.50083   0.11615   0.00000  Uiso   1.00
C347   C     0.46220   0.50333   0.40532   0.00000  Uiso   1.00
C348   C     0.53778   0.50334   0.09467   0.00000  Uiso   1.00
C349   C     0.46203   0.50027   0.45213   0.00000  Uiso   1.00
C350   C     0.53794   0.50028   0.04787   0.00000  Uiso   1.00
C351   C     0.50016   0.50309   0.47644   0.00000  Uiso   1.00
C352   C     0.49981   0.50309   0.02356   0.00000  Uiso   1.00
C353   C     0.53859   0.50576   0.45398   0.00000  Uiso   1.00
C354   C     0.46138   0.50575   0.04602   0.00000  Uiso   1.00
C355   C     0.42480   0.49683   0.47568   0.00000  Uiso   1.00
C356   C     0.57518   0.49684   0.02432   0.00000  Uiso   1.00
C357   C     0.42421   0.50907   0.02031   0.00000  Uiso   1.00
C358   C     0.57576   0.50909   0.47969   0.00000  Uiso   1.00
C359   C     0.35460   0.45903   0.25009   0.00000  Uiso   1.00
C360   C     0.64540   0.54099   0.24993   0.00000  Uiso   1.00
C361   C     0.64540   0.45903   0.24992   0.00000  Uiso   1.00
C362   C     0.35460   0.54099   0.25007   0.00000  Uiso   1.00
H363   H     0.37068   0.42705   0.25022   0.00000  Uiso   1.00
H364   H     0.62931   0.57297   0.24984   0.00000  Uiso   1.00
H365   H     0.62933   0.42705   0.24979   0.00000  Uiso   1.00
H366   H     0.37068   0.57297   0.25016   0.00000  Uiso   1.00
C367   C     0.62418   0.50001   0.24991   0.00000  Uiso   1.00
C368   C     0.37582   0.50001   0.25009   0.00000  Uiso   1.00
C369   C     0.52690   0.35721   0.27706   0.00000  Uiso   1.00
C370   C     0.47330   0.64258   0.22275   0.00000  Uiso   1.00
C371   C     0.47310   0.35721   0.22294   0.00000  Uiso   1.00
C372   C     0.52670   0.64257   0.27725   0.00000  Uiso   1.00
N373   N     0.50000   0.61907   0.25000   0.00000  Uiso   1.00
N374   N     0.50000   0.38093   0.25000   0.00000  Uiso   1.00
C375   C     0.57876   0.49384   0.38197   0.00000  Uiso   1.00
H376   H     0.59756   0.46728   0.39874   0.00000  Uiso   1.00
H377   H     0.57399   0.48231   0.34728   0.00000  Uiso   1.00
H378   H     0.59657   0.52544   0.37913   0.00000  Uiso   1.00
C379   C     0.42123   0.49383   0.11805   0.00000  Uiso   1.00
H380   H     0.40247   0.46722   0.10133   0.00000  Uiso   1.00
H381   H     0.42601   0.48236   0.15276   0.00000  Uiso   1.00
H382   H     0.40339   0.52540   0.12085   0.00000  Uiso   1.00
C383   C     0.42264   0.51299   0.37814   0.00000  Uiso   1.00
H384   H     0.42850   0.53365   0.34817   0.00000  Uiso   1.00
H385   H     0.40794   0.48097   0.36726   0.00000  Uiso   1.00
H386   H     0.40054   0.53365   0.39732   0.00000  Uiso   1.00
C387   C     0.57734   0.51301   0.12185   0.00000  Uiso   1.00
H388   H     0.57148   0.53371   0.15179   0.00000  Uiso   1.00
H389   H     0.59203   0.48099   0.13278   0.00000  Uiso   1.00
H390   H     0.59946   0.53363   0.10265   0.00000  Uiso   1.00
C391   C     0.38867   0.47371   0.45750   0.00000  Uiso   1.00
N392   N     0.36016   0.45456   0.44315   0.00000  Uiso   1.00
C393   C     0.61129   0.47370   0.04248   0.00000  Uiso   1.00
N394   N     0.63980   0.45452   0.05681   0.00000  Uiso   1.00
C395   C     0.38664   0.53486   0.03562   0.00000  Uiso   1.00
H396   H     0.36967   0.54989   0.00669   0.00000  Uiso   1.00
H397   H     0.36482   0.51275   0.05316   0.00000  Uiso   1.00
H398   H     0.39631   0.56370   0.05689   0.00000  Uiso   1.00
C399   C     0.61329   0.53495   0.46440   0.00000  Uiso   1.00
H400   H     0.63020   0.55004   0.49334   0.00000  Uiso   1.00
H401   H     0.63517   0.51287   0.44690   0.00000  Uiso   1.00
H402   H     0.60359   0.56375   0.44309   0.00000  Uiso   1.00
C403   C     0.55606   0.38087   0.30548   0.00000  Uiso   1.00
N404   N     0.57993   0.39891   0.32852   0.00000  Uiso   1.00
C405   C     0.44515   0.61826   0.19359   0.00000  Uiso   1.00
N406   N     0.42241   0.59916   0.17003   0.00000  Uiso   1.00
C407   C     0.44394   0.38088   0.19452   0.00000  Uiso   1.00
N408   N     0.42007   0.39892   0.17149   0.00000  Uiso   1.00
C409   C     0.55485   0.61826   0.30641   0.00000  Uiso   1.00
N410   N     0.57759   0.59916   0.32997   0.00000  Uiso   1.00
O411   O     0.77226   0.53821   0.25000   0.00000  Uiso   1.00
O412   O     0.89441   0.46179   0.25001   0.00000  Uiso   1.00
O413   O     0.89441   0.53821   0.25001   0.00000  Uiso   1.00
O414   O     0.77226   0.46179   0.25000   0.00000  Uiso   1.00
C415   C     0.75335   0.50000   0.25005   0.00000  Uiso   1.00
C416   C     0.91332   0.50000   0.24995   0.00000  Uiso   1.00
O417   O     0.83333   0.53823   0.18393   0.00000  Uiso   1.00
O418   O     0.83334   0.46177   0.31608   0.00000  Uiso   1.00
O419   O     0.83334   0.53823   0.31608   0.00000  Uiso   1.00
O420   O     0.83333   0.46177   0.18393   0.00000  Uiso   1.00
C421   C     0.83329   0.50010   0.16379   0.00000  Uiso   1.00
C422   C     0.83338   0.50010   0.33621   0.00000  Uiso   1.00
Zn423  Zn    0.83333   0.55104   0.25000   0.00000  Uiso   1.00
Zn424  Zn    0.83333   0.44896   0.25000   0.00000  Uiso   1.00
C425   C     0.87200   0.50144   0.40708   0.00000  Uiso   1.00
C426   C     0.79465   0.50144   0.09292   0.00000  Uiso   1.00
C427   C     0.83370   0.50083   0.38385   0.00000  Uiso   1.00
C428   C     0.83296   0.50083   0.11615   0.00000  Uiso   1.00
C429   C     0.79553   0.50333   0.40532   0.00000  Uiso   1.00
C430   C     0.87111   0.50334   0.09467   0.00000  Uiso   1.00
C431   C     0.79537   0.50027   0.45213   0.00000  Uiso   1.00
C432   C     0.87127   0.50028   0.04787   0.00000  Uiso   1.00
C433   C     0.83349   0.50309   0.47644   0.00000  Uiso   1.00
C434   C     0.83315   0.50309   0.02356   0.00000  Uiso   1.00
C435   C     0.87193   0.50576   0.45398   0.00000  Uiso   1.00
C436   C     0.79471   0.50575   0.04602   0.00000  Uiso   1.00
C437   C     0.75813   0.49683   0.47568   0.00000  Uiso   1.00
C438   C     0.90851   0.49684   0.02432   0.00000  Uiso   1.00
C439   C     0.75755   0.50907   0.02031   0.00000  Uiso   1.00
C440   C     0.90909   0.50909   0.47969   0.00000  Uiso   1.00
C441   C     0.68793   0.45903   0.25009   0.00000  Uiso   1.00
C442   C     0.97873   0.54099   0.24993   0.00000  Uiso   1.00
C443   C     0.97874   0.45903   0.24992   0.00000  Uiso   1.00
C444   C     0.68793   0.54099   0.25007   0.00000  Uiso   1.00
H445   H     0.70401   0.42705   0.25022   0.00000  Uiso   1.00
H446   H     0.96265   0.57297   0.24984   0.00000  Uiso   1.00
H447   H     0.96266   0.42705   0.24979   0.00000  Uiso   1.00
H448   H     0.70402   0.57297   0.25016   0.00000  Uiso   1.00
C449   C     0.95751   0.50001   0.24991   0.00000  Uiso   1.00
C450   C     0.70915   0.50001   0.25009   0.00000  Uiso   1.00
C451   C     0.86023   0.35721   0.27706   0.00000  Uiso   1.00
C452   C     0.80663   0.64258   0.22275   0.00000  Uiso   1.00
C453   C     0.80643   0.35721   0.22294   0.00000  Uiso   1.00
C454   C     0.86004   0.64257   0.27725   0.00000  Uiso   1.00
N455   N     0.83333   0.61907   0.25000   0.00000  Uiso   1.00
N456   N     0.83333   0.38093   0.25000   0.00000  Uiso   1.00
C457   C     0.91209   0.49384   0.38197   0.00000  Uiso   1.00
H458   H     0.93089   0.46728   0.39874   0.00000  Uiso   1.00
H459   H     0.90732   0.48231   0.34728   0.00000  Uiso   1.00
H460   H     0.92990   0.52544   0.37913   0.00000  Uiso   1.00
C461   C     0.75456   0.49383   0.11805   0.00000  Uiso   1.00
H462   H     0.73580   0.46722   0.10133   0.00000  Uiso   1.00
H463   H     0.75935   0.48236   0.15276   0.00000  Uiso   1.00
H464   H     0.73673   0.52540   0.12085   0.00000  Uiso   1.00
C465   C     0.75597   0.51299   0.37814   0.00000  Uiso   1.00
H466   H     0.76184   0.53365   0.34817   0.00000  Uiso   1.00
H467   H     0.74127   0.48097   0.36726   0.00000  Uiso   1.00
H468   H     0.73388   0.53365   0.39732   0.00000  Uiso   1.00
C469   C     0.91067   0.51301   0.12185   0.00000  Uiso   1.00
H470   H     0.90481   0.53371   0.15179   0.00000  Uiso   1.00
H471   H     0.92536   0.48099   0.13278   0.00000  Uiso   1.00
H472   H     0.93279   0.53363   0.10265   0.00000  Uiso   1.00
C473   C     0.72200   0.47371   0.45750   0.00000  Uiso   1.00
N474   N     0.69349   0.45456   0.44315   0.00000  Uiso   1.00
C475   C     0.94463   0.47370   0.04248   0.00000  Uiso   1.00
N476   N     0.97313   0.45452   0.05681   0.00000  Uiso   1.00
C477   C     0.71997   0.53486   0.03562   0.00000  Uiso   1.00
H478   H     0.70300   0.54989   0.00669   0.00000  Uiso   1.00
H479   H     0.69815   0.51275   0.05316   0.00000  Uiso   1.00
H480   H     0.72964   0.56370   0.05689   0.00000  Uiso   1.00
C481   C     0.94663   0.53495   0.46440   0.00000  Uiso   1.00
H482   H     0.96354   0.55004   0.49334   0.00000  Uiso   1.00
H483   H     0.96851   0.51287   0.44690   0.00000  Uiso   1.00
H484   H     0.93693   0.56375   0.44309   0.00000  Uiso   1.00
C485   C     0.88939   0.38087   0.30548   0.00000  Uiso   1.00
N486   N     0.91327   0.39891   0.32852   0.00000  Uiso   1.00
C487   C     0.77848   0.61826   0.19359   0.00000  Uiso   1.00
N488   N     0.75575   0.59916   0.17003   0.00000  Uiso   1.00
C489   C     0.77728   0.38088   0.19452   0.00000  Uiso   1.00
N490   N     0.75340   0.39892   0.17149   0.00000  Uiso   1.00
C491   C     0.88818   0.61826   0.30641   0.00000  Uiso   1.00
N492   N     0.91092   0.59916   0.32997   0.00000  Uiso   1.00
O493   O     0.10559   0.87154   0.25000   0.00000  Uiso   1.00
O494   O     0.22774   0.79513   0.25001   0.00000  Uiso   1.00
O495   O     0.22774   0.87154   0.25001   0.00000  Uiso   1.00
O496   O     0.10559   0.79513   0.25000   0.00000  Uiso   1.00
C497   C     0.08668   0.83334   0.25005   0.00000  Uiso   1.00
C498   C     0.24665   0.83334   0.24995   0.00000  Uiso   1.00
O499   O     0.16666   0.87156   0.18393   0.00000  Uiso   1.00
O500   O     0.16667   0.79511   0.31608   0.00000  Uiso   1.00
O501   O     0.16667   0.87156   0.31608   0.00000  Uiso   1.00
O502   O     0.16666   0.79511   0.18393   0.00000  Uiso   1.00
C503   C     0.16662   0.83343   0.16379   0.00000  Uiso   1.00
C504   C     0.16671   0.83343   0.33621   0.00000  Uiso   1.00
Zn505  Zn    0.16667   0.88437   0.25000   0.00000  Uiso   1.00
Zn506  Zn    0.16667   0.78229   0.25000   0.00000  Uiso   1.00
C507   C     0.20533   0.83478   0.40708   0.00000  Uiso   1.00
C508   C     0.12798   0.83477   0.09292   0.00000  Uiso   1.00
C509   C     0.16703   0.83416   0.38385   0.00000  Uiso   1.00
C510   C     0.16629   0.83416   0.11615   0.00000  Uiso   1.00
C511   C     0.12887   0.83667   0.40532   0.00000  Uiso   1.00
C512   C     0.20445   0.83668   0.09467   0.00000  Uiso   1.00
C513   C     0.12870   0.83361   0.45213   0.00000  Uiso   1.00
C514   C     0.20461   0.83361   0.04787   0.00000  Uiso   1.00
C515   C     0.16682   0.83642   0.47644   0.00000  Uiso   1.00
C516   C     0.16648   0.83642   0.02356   0.00000  Uiso   1.00
C517   C     0.20526   0.83909   0.45398   0.00000  Uiso   1.00
C518   C     0.12805   0.83908   0.04602   0.00000  Uiso   1.00
C519   C     0.09146   0.83016   0.47568   0.00000  Uiso   1.00
C520   C     0.24184   0.83017   0.02432   0.00000  Uiso   1.00
C521   C     0.09088   0.84240   0.02031   0.00000  Uiso   1.00
C522   C     0.24242   0.84242   0.47969   0.00000  Uiso   1.00
C523   C     0.02126   0.79237   0.25009   0.00000  Uiso   1.00
C524   C     0.31207   0.87433   0.24993   0.00000  Uiso   1.00
C525   C     0.31207   0.79237   0.24992   0.00000  Uiso   1.00
C526   C     0.02127   0.87433   0.25007   0.00000  Uiso   1.00
H527   H     0.03734   0.76039   0.25022   0.00000  Uiso   1.00
H528   H     0.29598   0.90631   0.24984   0.00000  Uiso   1.00
H529   H     0.29599   0.76039   0.24979   0.00000  Uiso   1.00
H530   H     0.03735   0.90631   0.25016   0.00000  Uiso   1.00
C531   C     0.29085   0.83334   0.24991   0.00000  Uiso   1.00
C532   C     0.04249   0.83334   0.25009   0.00000  Uiso   1.00
C533   C     0.19357   0.69054   0.27706   0.00000  Uiso   1.00
C534   C     0.13996   0.97591   0.22275   0.00000  Uiso   1.00
C535   C     0.13977   0.69054   0.22294   0.00000  Uiso   1.00
C536   C     0.19337   0.97591   0.27725   0.00000  Uiso   1.00
N537   N     0.16667   0.95240   0.25000   0.00000  Uiso   1.00
N538   N     0.16667   0.71427   0.25000   0.00000  Uiso   1.00
C539   C     0.24543   0.82718   0.38197   0.00000  Uiso   1.00
H540   H     0.26422   0.80061   0.39874   0.00000  Uiso   1.00
H541   H     0.24065   0.81565   0.34728   0.00000  Uiso   1.00
H542   H     0.26323   0.85877   0.37913   0.00000  Uiso   1.00
C543   C     0.08790   0.82716   0.11805   0.00000  Uiso   1.00
H544   H     0.06913   0.80055   0.10133   0.00000  Uiso   1.00
H545   H     0.09268   0.81569   0.15276   0.00000  Uiso   1.00
H546   H     0.07006   0.85873   0.12085   0.00000  Uiso   1.00
C547   C     0.08931   0.84633   0.37814   0.00000  Uiso   1.00
H548   H     0.09517   0.86698   0.34817   0.00000  Uiso   1.00
H549   H     0.07460   0.81430   0.36726   0.00000  Uiso   1.00
H550   H     0.06721   0.86698   0.39732   0.00000  Uiso   1.00
C551   C     0.24401   0.84635   0.12185   0.00000  Uiso   1.00
H552   H     0.23815   0.86705   0.15179   0.00000  Uiso   1.00
H553   H     0.25869   0.81433   0.13278   0.00000  Uiso   1.00
H554   H     0.26612   0.86696   0.10265   0.00000  Uiso   1.00
C555   C     0.05534   0.80705   0.45750   0.00000  Uiso   1.00
N556   N     0.02682   0.78790   0.44315   0.00000  Uiso   1.00
C557   C     0.27796   0.80703   0.04248   0.00000  Uiso   1.00
N558   N     0.30646   0.78785   0.05681   0.00000  Uiso   1.00
C559   C     0.05331   0.86820   0.03562   0.00000  Uiso   1.00
H560   H     0.03633   0.88322   0.00669   0.00000  Uiso   1.00
H561   H     0.03149   0.84608   0.05316   0.00000  Uiso   1.00
H562   H     0.06297   0.89704   0.05689   0.00000  Uiso   1.00
C563   C     0.27996   0.86828   0.46440   0.00000  Uiso   1.00
H564   H     0.29687   0.88338   0.49334   0.00000  Uiso   1.00
H565   H     0.30184   0.84621   0.44690   0.00000  Uiso   1.00
H566   H     0.27026   0.89708   0.44309   0.00000  Uiso   1.00
C567   C     0.22272   0.71421   0.30548   0.00000  Uiso   1.00
N568   N     0.24660   0.73225   0.32852   0.00000  Uiso   1.00
C569   C     0.11182   0.95160   0.19359   0.00000  Uiso   1.00
N570   N     0.08908   0.93249   0.17003   0.00000  Uiso   1.00
C571   C     0.11061   0.71421   0.19452   0.00000  Uiso   1.00
N572   N     0.08673   0.73225   0.17149   0.00000  Uiso   1.00
C573   C     0.22152   0.95159   0.30641   0.00000  Uiso   1.00
N574   N     0.24425   0.93249   0.32997   0.00000  Uiso   1.00
O575   O     0.43892   0.87154   0.25000   0.00000  Uiso   1.00
O576   O     0.56108   0.79513   0.25001   0.00000  Uiso   1.00
O577   O     0.56108   0.87154   0.25001   0.00000  Uiso   1.00
O578   O     0.43892   0.79513   0.25000   0.00000  Uiso   1.00
C579   C     0.42002   0.83334   0.25005   0.00000  Uiso   1.00
C580   C     0.57998   0.83334   0.24995   0.00000  Uiso   1.00
O581   O     0.49999   0.87156   0.18393   0.00000  Uiso   1.00
O582   O     0.50001   0.79511   0.31608   0.00000  Uiso   1.00
O583   O     0.50001   0.87156   0.31608   0.00000  Uiso   1.00
O584   O     0.49999   0.79511   0.18393   0.00000  Uiso   1.00
C585   C     0.49996   0.83343   0.16379   0.00000  Uiso   1.00
C586   C     0.50004   0.83343   0.33621   0.00000  Uiso   1.00
Zn587  Zn    0.50000   0.88437   0.25000   0.00000  Uiso   1.00
Zn588  Zn    0.50000   0.78229   0.25000   0.00000  Uiso   1.00
C589   C     0.53866   0.83478   0.40708   0.00000  Uiso   1.00
C590   C     0.46132   0.83477   0.09292   0.00000  Uiso   1.00
C591   C     0.50036   0.83416   0.38385   0.00000  Uiso   1.00
C592   C     0.49962   0.83416   0.11615   0.00000  Uiso   1.00
C593   C     0.46220   0.83667   0.40532   0.00000  Uiso   1.00
C594   C     0.53778   0.83668   0.09467   0.00000  Uiso   1.00
C595   C     0.46203   0.83361   0.45213   0.00000  Uiso   1.00
C596   C     0.53794   0.83361   0.04787   0.00000  Uiso   1.00
C597   C     0.50016   0.83642   0.47644   0.00000  Uiso   1.00
C598   C     0.49981   0.83642   0.02356   0.00000  Uiso   1.00
C599   C     0.53859   0.83909   0.45398   0.00000  Uiso   1.00
C600   C     0.46138   0.83908   0.04602   0.00000  Uiso   1.00
C601   C     0.42480   0.83016   0.47568   0.00000  Uiso   1.00
C602   C     0.57518   0.83017   0.02432   0.00000  Uiso   1.00
C603   C     0.42421   0.84240   0.02031   0.00000  Uiso   1.00
C604   C     0.57576   0.84242   0.47969   0.00000  Uiso   1.00
C605   C     0.35460   0.79237   0.25009   0.00000  Uiso   1.00
C606   C     0.64540   0.87433   0.24993   0.00000  Uiso   1.00
C607   C     0.64540   0.79237   0.24992   0.00000  Uiso   1.00
C608   C     0.35460   0.87433   0.25007   0.00000  Uiso   1.00
H609   H     0.37068   0.76039   0.25022   0.00000  Uiso   1.00
H610   H     0.62931   0.90631   0.24984   0.00000  Uiso   1.00
H611   H     0.62933   0.76039   0.24979   0.00000  Uiso   1.00
H612   H     0.37068   0.90631   0.25016   0.00000  Uiso   1.00
C613   C     0.62418   0.83334   0.24991   0.00000  Uiso   1.00
C614   C     0.37582   0.83334   0.25009   0.00000  Uiso   1.00
C615   C     0.52690   0.69054   0.27706   0.00000  Uiso   1.00
C616   C     0.47330   0.97591   0.22275   0.00000  Uiso   1.00
C617   C     0.47310   0.69054   0.22294   0.00000  Uiso   1.00
C618   C     0.52670   0.97591   0.27725   0.00000  Uiso   1.00
N619   N     0.50000   0.95240   0.25000   0.00000  Uiso   1.00
N620   N     0.50000   0.71427   0.25000   0.00000  Uiso   1.00
C621   C     0.57876   0.82718   0.38197   0.00000  Uiso   1.00
H622   H     0.59756   0.80061   0.39874   0.00000  Uiso   1.00
H623   H     0.57399   0.81565   0.34728   0.00000  Uiso   1.00
H624   H     0.59657   0.85877   0.37913   0.00000  Uiso   1.00
C625   C     0.42123   0.82716   0.11805   0.00000  Uiso   1.00
H626   H     0.40247   0.80055   0.10133   0.00000  Uiso   1.00
H627   H     0.42601   0.81569   0.15276   0.00000  Uiso   1.00
H628   H     0.40339   0.85873   0.12085   0.00000  Uiso   1.00
C629   C     0.42264   0.84633   0.37814   0.00000  Uiso   1.00
H630   H     0.42850   0.86698   0.34817   0.00000  Uiso   1.00
H631   H     0.40794   0.81430   0.36726   0.00000  Uiso   1.00
H632   H     0.40054   0.86698   0.39732   0.00000  Uiso   1.00
C633   C     0.57734   0.84635   0.12185   0.00000  Uiso   1.00
H634   H     0.57148   0.86705   0.15179   0.00000  Uiso   1.00
H635   H     0.59203   0.81433   0.13278   0.00000  Uiso   1.00
H636   H     0.59946   0.86696   0.10265   0.00000  Uiso   1.00
C637   C     0.38867   0.80705   0.45750   0.00000  Uiso   1.00
N638   N     0.36016   0.78790   0.44315   0.00000  Uiso   1.00
C639   C     0.61129   0.80703   0.04248   0.00000  Uiso   1.00
N640   N     0.63980   0.78785   0.05681   0.00000  Uiso   1.00
C641   C     0.38664   0.86820   0.03562   0.00000  Uiso   1.00
H642   H     0.36967   0.88322   0.00669   0.00000  Uiso   1.00
H643   H     0.36482   0.84608   0.05316   0.00000  Uiso   1.00
H644   H     0.39631   0.89704   0.05689   0.00000  Uiso   1.00
C645   C     0.61329   0.86828   0.46440   0.00000  Uiso   1.00
H646   H     0.63020   0.88338   0.49334   0.00000  Uiso   1.00
H647   H     0.63517   0.84621   0.44690   0.00000  Uiso   1.00
H648   H     0.60359   0.89708   0.44309   0.00000  Uiso   1.00
C649   C     0.55606   0.71421   0.30548   0.00000  Uiso   1.00
N650   N     0.57993   0.73225   0.32852   0.00000  Uiso   1.00
C651   C     0.44515   0.95160   0.19359   0.00000  Uiso   1.00
N652   N     0.42241   0.93249   0.17003   0.00000  Uiso   1.00
C653   C     0.44394   0.71421   0.19452   0.00000  Uiso   1.00
N654   N     0.42007   0.73225   0.17149   0.00000  Uiso   1.00
C655   C     0.55485   0.95159   0.30641   0.00000  Uiso   1.00
N656   N     0.57759   0.93249   0.32997   0.00000  Uiso   1.00
O657   O     0.77226   0.87154   0.25000   0.00000  Uiso   1.00
O658   O     0.89441   0.79513   0.25001   0.00000  Uiso   1.00
O659   O     0.89441   0.87154   0.25001   0.00000  Uiso   1.00
O660   O     0.77226   0.79513   0.25000   0.00000  Uiso   1.00
C661   C     0.75335   0.83334   0.25005   0.00000  Uiso   1.00
C662   C     0.91332   0.83334   0.24995   0.00000  Uiso   1.00
O663   O     0.83333   0.87156   0.18393   0.00000  Uiso   1.00
O664   O     0.83334   0.79511   0.31608   0.00000  Uiso   1.00
O665   O     0.83334   0.87156   0.31608   0.00000  Uiso   1.00
O666   O     0.83333   0.79511   0.18393   0.00000  Uiso   1.00
C667   C     0.83329   0.83343   0.16379   0.00000  Uiso   1.00
C668   C     0.83338   0.83343   0.33621   0.00000  Uiso   1.00
Zn669  Zn    0.83333   0.88437   0.25000   0.00000  Uiso   1.00
Zn670  Zn    0.83333   0.78229   0.25000   0.00000  Uiso   1.00
C671   C     0.87200   0.83478   0.40708   0.00000  Uiso   1.00
C672   C     0.79465   0.83477   0.09292   0.00000  Uiso   1.00
C673   C     0.83370   0.83416   0.38385   0.00000  Uiso   1.00
C674   C     0.83296   0.83416   0.11615   0.00000  Uiso   1.00
C675   C     0.79553   0.83667   0.40532   0.00000  Uiso   1.00
C676   C     0.87111   0.83668   0.09467   0.00000  Uiso   1.00
C677   C     0.79537   0.83361   0.45213   0.00000  Uiso   1.00
C678   C     0.87127   0.83361   0.04787   0.00000  Uiso   1.00
C679   C     0.83349   0.83642   0.47644   0.00000  Uiso   1.00
C680   C     0.83315   0.83642   0.02356   0.00000  Uiso   1.00
C681   C     0.87193   0.83909   0.45398   0.00000  Uiso   1.00
C682   C     0.79471   0.83908   0.04602   0.00000  Uiso   1.00
C683   C     0.75813   0.83016   0.47568   0.00000  Uiso   1.00
C684   C     0.90851   0.83017   0.02432   0.00000  Uiso   1.00
C685   C     0.75755   0.84240   0.02031   0.00000  Uiso   1.00
C686   C     0.90909   0.84242   0.47969   0.00000  Uiso   1.00
C687   C     0.68793   0.79237   0.25009   0.00000  Uiso   1.00
C688   C     0.97873   0.87433   0.24993   0.00000  Uiso   1.00
C689   C     0.97874   0.79237   0.24992   0.00000  Uiso   1.00
C690   C     0.68793   0.87433   0.25007   0.00000  Uiso   1.00
H691   H     0.70401   0.76039   0.25022   0.00000  Uiso   1.00
H692   H     0.96265   0.90631   0.24984   0.00000  Uiso   1.00
H693   H     0.96266   0.76039   0.24979   0.00000  Uiso   1.00
H694   H     0.70402   0.90631   0.25016   0.00000  Uiso   1.00
C695   C     0.95751   0.83334   0.24991   0.00000  Uiso   1.00
C696   C     0.70915   0.83334   0.25009   0.00000  Uiso   1.00
C697   C     0.86023   0.69054   0.27706   0.00000  Uiso   1.00
C698   C     0.80663   0.97591   0.22275   0.00000  Uiso   1.00
C699   C     0.80643   0.69054   0.22294   0.00000  Uiso   1.00
C700   C     0.86004   0.97591   0.27725   0.00000  Uiso   1.00
N701   N     0.83333   0.95240   0.25000   0.00000  Uiso   1.00
N702   N     0.83333   0.71427   0.25000   0.00000  Uiso   1.00
C703   C     0.91209   0.82718   0.38197   0.00000  Uiso   1.00
H704   H     0.93089   0.80061   0.39874   0.00000  Uiso   1.00
H705   H     0.90732   0.81565   0.34728   0.00000  Uiso   1.00
H706   H     0.92990   0.85877   0.37913   0.00000  Uiso   1.00
C707   C     0.75456   0.82716   0.11805   0.00000  Uiso   1.00
H708   H     0.73580   0.80055   0.10133   0.00000  Uiso   1.00
H709   H     0.75935   0.81569   0.15276   0.00000  Uiso   1.00
H710   H     0.73673   0.85873   0.12085   0.00000  Uiso   1.00
C711   C     0.75597   0.84633   0.37814   0.00000  Uiso   1.00
H712   H     0.76184   0.86698   0.34817   0.00000  Uiso   1.00
H713   H     0.74127   0.81430   0.36726   0.00000  Uiso   1.00
H714   H     0.73388   0.86698   0.39732   0.00000  Uiso   1.00
C715   C     0.91067   0.84635   0.12185   0.00000  Uiso   1.00
H716   H     0.90481   0.86705   0.15179   0.00000  Uiso   1.00
H717   H     0.92536   0.81433   0.13278   0.00000  Uiso   1.00
H718   H     0.93279   0.86696   0.10265   0.00000  Uiso   1.00
C719   C     0.72200   0.80705   0.45750   0.00000  Uiso   1.00
N720   N     0.69349   0.78790   0.44315   0.00000  Uiso   1.00
C721   C     0.94463   0.80703   0.04248   0.00000  Uiso   1.00
N722   N     0.97313   0.78785   0.05681   0.00000  Uiso   1.00
C723   C     0.71997   0.86820   0.03562   0.00000  Uiso   1.00
H724   H     0.70300   0.88322   0.00669   0.00000  Uiso   1.00
H725   H     0.69815   0.84608   0.05316   0.00000  Uiso   1.00
H726   H     0.72964   0.89704   0.05689   0.00000  Uiso   1.00
C727   C     0.94663   0.86828   0.46440   0.00000  Uiso   1.00
H728   H     0.96354   0.88338   0.49334   0.00000  Uiso   1.00
H729   H     0.96851   0.84621   0.44690   0.00000  Uiso   1.00
H730   H     0.93693   0.89708   0.44309   0.00000  Uiso   1.00
C731   C     0.88939   0.71421   0.30548   0.00000  Uiso   1.00
N732   N     0.91327   0.73225   0.32852   0.00000  Uiso   1.00
C733   C     0.77848   0.95160   0.19359   0.00000  Uiso   1.00
N734   N     0.75575   0.93249   0.17003   0.00000  Uiso   1.00
C735   C     0.77728   0.71421   0.19452   0.00000  Uiso   1.00
N736   N     0.75340   0.73225   0.17149   0.00000  Uiso   1.00
C737   C     0.88818   0.95159   0.30641   0.00000  Uiso   1.00
N738   N     0.91092   0.93249   0.32997   0.00000  Uiso   1.00
O739   O     0.10559   0.20487   0.75000   0.00000  Uiso   1.00
O740   O     0.22774   0.12846   0.75001   0.00000  Uiso   1.00
O741   O     0.22774   0.20487   0.75001   0.00000  Uiso   1.00
O742   O     0.10559   0.12846   0.75000   0.00000  Uiso   1.00
C743   C     0.08668   0.16667   0.75005   0.00000  Uiso   1.00
C744   C     0.24665   0.16667   0.74995   0.00000  Uiso   1.00
O745   O     0.16666   0.20489   0.68393   0.00000  Uiso   1.00
O746   O     0.16667   0.12844   0.81608   0.00000  Uiso   1.00
O747   O     0.16667   0.20489   0.81608   0.00000  Uiso   1.00
O748   O     0.16666   0.12844   0.68393   0.00000  Uiso   1.00
C749   C     0.16662   0.16677   0.66379   0.00000  Uiso   1.00
C750   C     0.16671   0.16677   0.83621   0.00000  Uiso   1.00
Zn751  Zn    0.16667   0.21771   0.75000   0.00000  Uiso   1.00
Zn752  Zn    0.16667   0.11563   0.75000   0.00000  Uiso   1.00
C753   C     0.20533   0.16811   0.90708   0.00000  Uiso   1.00
C754   C     0.12798   0.16811   0.59292   0.00000  Uiso   1.00
C755   C     0.16703   0.16749   0.88385   0.00000  Uiso   1.00
C756   C     0.16629   0.16750   0.61615   0.00000  Uiso   1.00
C757   C     0.12887   0.17000   0.90532   0.00000  Uiso   1.00
C758   C     0.20445   0.17001   0.59467   0.00000  Uiso   1.00
C759   C     0.12870   0.16694   0.95213   0.00000  Uiso   1.00
C760   C     0.20461   0.16695   0.54787   0.00000  Uiso   1.00
C761   C     0.16682   0.16976   0.97644   0.00000  Uiso   1.00
C762   C     0.16648   0.16976   0.52356   0.00000  Uiso   1.00
C763   C     0.20526   0.17243   0.95398   0.00000  Uiso   1.00
C764   C     0.12805   0.17242   0.54602   0.00000  Uiso   1.00
C765   C     0.09146   0.16350   0.97568   0.00000  Uiso   1.00
C766   C     0.24184   0.16351   0.52432   0.00000  Uiso   1.00
C767   C     0.09088   0.17574   0.52031   0.00000  Uiso   1.00
C768   C     0.24242   0.17576   0.97969   0.00000  Uiso   1.00
C769   C     0.02126   0.12570   0.75009   0.00000  Uiso   1.00
C770   C     0.31207   0.20766   0.74993   0.00000  Uiso   1.00
C771   C     0.31207   0.12570   0.74992   0.00000  Uiso   1.00
C772   C     0.02127   0.20766   0.75007   0.00000  Uiso   1.00
H773   H     0.03734   0.09372   0.75022   0.00000  Uiso   1.00
H774   H     0.29598   0.23964   0.74984   0.00000  Uiso   1.00
H775   H     0.29599   0.09372   0.74979   0.00000  Uiso   1.00
H776   H     0.03735   0.23964   0.75016   0.00000  Uiso   1.00
C777   C     0.29085   0.16668   0.74991   0.00000  Uiso   1.00
C778   C     0.04249   0.16668   0.75009   0.00000  Uiso   1.00
C779   C     0.19357   0.02387   0.77706   0.00000  Uiso   1.00
C780   C     0.13996   0.30924   0.72275   0.00000  Uiso   1.00
C781   C     0.13977   0.02388   0.72294   0.00000  Uiso   1.00
C782   C     0.19337   0.30924   0.77725   0.00000  Uiso   1.00
N783   N     0.16667   0.28573   0.75000   0.00000  Uiso   1.00
N784   N     0.16667   0.04760   0.75000   0.00000  Uiso   1.00
C785   C     0.24543   0.16051   0.88197   0.00000  Uiso   1.00
H786   H     0.26422   0.13395   0.89874   0.00000  Uiso   1.00
H787   H     0.24065   0.14898   0.84728   0.00000  Uiso   1.00
H788   H     0.26323   0.19210   0.87913   0.00000  Uiso   1.00
C789   C     0.08790   0.16050   0.61805   0.00000  Uiso   1.00
H790   H     0.06913   0.13389   0.60133   0.00000  Uiso   1.00
H791   H     0.09268   0.14903   0.65276   0.00000  Uiso   1.00
H792   H     0.07006   0.19207   0.62085   0.00000  Uiso   1.00
C793   C     0.08931   0.17966   0.87814   0.00000  Uiso   1.00
H794   H     0.09517   0.20031   0.84817   0.00000  Uiso   1.00
H795   H     0.07460   0.14763   0.86726   0.00000  Uiso   1.00
H796   H     0.06721   0.20031   0.89732   0.00000  Uiso   1.00
C797   C     0.24401   0.17968   0.62185   0.00000  Uiso   1.00
H798   H     0.23815   0.20038   0.65179   0.00000  Uiso   1.00
H799   H     0.25869   0.14766   0.63278   0.00000  Uiso   1.00
H800   H     0.26612   0.20029   0.60265   0.00000  Uiso   1.00
C801   C     0.05534   0.14038   0.95750   0.00000  Uiso   1.00
N802   N     0.02682   0.12123   0.94315   0.00000  Uiso   1.00
C803   C     0.27796   0.14036   0.54248   0.00000  Uiso   1.00
N804   N     0.30646   0.12118   0.55681   0.00000  Uiso   1.00
C805   C     0.05331   0.20153   0.53562   0.00000  Uiso   1.00
H806   H     0.03633   0.21656   0.50669   0.00000  Uiso   1.00
H807   H     0.03149   0.17942   0.55316   0.00000  Uiso   1.00
H808   H     0.06297   0.23037   0.55689   0.00000  Uiso   1.00
C809   C     0.27996   0.20162   0.96440   0.00000  Uiso   1.00
H810   H     0.29687   0.21671   0.99334   0.00000  Uiso   1.00
H811   H     0.30184   0.17954   0.94690   0.00000  Uiso   1.00
H812   H     0.27026   0.23042   0.94309   0.00000  Uiso   1.00
C813   C     0.22272   0.04754   0.80548   0.00000  Uiso   1.00
N814   N     0.24660   0.06558   0.82852   0.00000  Uiso   1.00
C815   C     0.11182   0.28493   0.69359   0.00000  Uiso   1.00
N816   N     0.08908   0.26583   0.67003   0.00000  Uiso   1.00
C817   C     0.11061   0.04754   0.69452   0.00000  Uiso   1.00
N818   N     0.08673   0.06559   0.67149   0.00000  Uiso   1.00
C819   C     0.22152   0.28493   0.80641   0.00000  Uiso   1.00
N820   N     0.24425   0.26582   0.82997   0.00000  Uiso   1.00
O821   O     0.43892   0.20487   0.75000   0.00000  Uiso   1.00
O822   O     0.56108   0.12846   0.75001   0.00000  Uiso   1.00
O823   O     0.56108   0.20487   0.75001   0.00000  Uiso   1.00
O824   O     0.43892   0.12846   0.75000   0.00000  Uiso   1.00
C825   C     0.42002   0.16667   0.75005   0.00000  Uiso   1.00
C826   C     0.57998   0.16667   0.74995   0.00000  Uiso   1.00
O827   O     0.49999   0.20489   0.68393   0.00000  Uiso   1.00
O828   O     0.50001   0.12844   0.81608   0.00000  Uiso   1.00
O829   O     0.50001   0.20489   0.81608   0.00000  Uiso   1.00
O830   O     0.49999   0.12844   0.68393   0.00000  Uiso   1.00
C831   C     0.49996   0.16677   0.66379   0.00000  Uiso   1.00
C832   C     0.50004   0.16677   0.83621   0.00000  Uiso   1.00
Zn833  Zn    0.50000   0.21771   0.75000   0.00000  Uiso   1.00
Zn834  Zn    0.50000   0.11563   0.75000   0.00000  Uiso   1.00
C835   C     0.53866   0.16811   0.90708   0.00000  Uiso   1.00
C836   C     0.46132   0.16811   0.59292   0.00000  Uiso   1.00
C837   C     0.50036   0.16749   0.88385   0.00000  Uiso   1.00
C838   C     0.49962   0.16750   0.61615   0.00000  Uiso   1.00
C839   C     0.46220   0.17000   0.90532   0.00000  Uiso   1.00
C840   C     0.53778   0.17001   0.59467   0.00000  Uiso   1.00
C841   C     0.46203   0.16694   0.95213   0.00000  Uiso   1.00
C842   C     0.53794   0.16695   0.54787   0.00000  Uiso   1.00
C843   C     0.50016   0.16976   0.97644   0.00000  Uiso   1.00
C844   C     0.49981   0.16976   0.52356   0.00000  Uiso   1.00
C845   C     0.53859   0.17243   0.95398   0.00000  Uiso   1.00
C846   C     0.46138   0.17242   0.54602   0.00000  Uiso   1.00
C847   C     0.42480   0.16350   0.97568   0.00000  Uiso   1.00
C848   C     0.57518   0.16351   0.52432   0.00000  Uiso   1.00
C849   C     0.42421   0.17574   0.52031   0.00000  Uiso   1.00
C850   C     0.57576   0.17576   0.97969   0.00000  Uiso   1.00
C851   C     0.35460   0.12570   0.75009   0.00000  Uiso   1.00
C852   C     0.64540   0.20766   0.74993   0.00000  Uiso   1.00
C853   C     0.64540   0.12570   0.74992   0.00000  Uiso   1.00
C854   C     0.35460   0.20766   0.75007   0.00000  Uiso   1.00
H855   H     0.37068   0.09372   0.75022   0.00000  Uiso   1.00
H856   H     0.62931   0.23964   0.74984   0.00000  Uiso   1.00
H857   H     0.62933   0.09372   0.74979   0.00000  Uiso   1.00
H858   H     0.37068   0.23964   0.75016   0.00000  Uiso   1.00
C859   C     0.62418   0.16668   0.74991   0.00000  Uiso   1.00
C860   C     0.37582   0.16668   0.75009   0.00000  Uiso   1.00
C861   C     0.52690   0.02387   0.77706   0.00000  Uiso   1.00
C862   C     0.47330   0.30924   0.72275   0.00000  Uiso   1.00
C863   C     0.47310   0.02388   0.72294   0.00000  Uiso   1.00
C864   C     0.52670   0.30924   0.77725   0.00000  Uiso   1.00
N865   N     0.50000   0.28573   0.75000   0.00000  Uiso   1.00
N866   N     0.50000   0.04760   0.75000   0.00000  Uiso   1.00
C867   C     0.57876   0.16051   0.88197   0.00000  Uiso   1.00
H868   H     0.59756   0.13395   0.89874   0.00000  Uiso   1.00
H869   H     0.57399   0.14898   0.84728   0.00000  Uiso   1.00
H870   H     0.59657   0.19210   0.87913   0.00000  Uiso   1.00
C871   C     0.42123   0.16050   0.61805   0.00000  Uiso   1.00
H872   H     0.40247   0.13389   0.60133   0.00000  Uiso   1.00
H873   H     0.42601   0.14903   0.65276   0.00000  Uiso   1.00
H874   H     0.40339   0.19207   0.62085   0.00000  Uiso   1.00
C875   C     0.42264   0.17966   0.87814   0.00000  Uiso   1.00
H876   H     0.42850   0.20031   0.84817   0.00000  Uiso   1.00
H877   H     0.40794   0.14763   0.86726   0.00000  Uiso   1.00
H878   H     0.40054   0.20031   0.89732   0.00000  Uiso   1.00
C879   C     0.57734   0.17968   0.62185   0.00000  Uiso   1.00
H880   H     0.57148   0.20038   0.65179   0.00000  Uiso   1.00
H881   H     0.59203   0.14766   0.63278   0.00000  Uiso   1.00
H882   H     0.59946   0.20029   0.60265   0.00000  Uiso   1.00
C883   C     0.38867   0.14038   0.95750   0.00000  Uiso   1.00
N884   N     0.36016   0.12123   0.94315   0.00000  Uiso   1.00
C885   C     0.61129   0.14036   0.54248   0.00000  Uiso   1.00
N886   N     0.63980   0.12118   0.55681   0.00000  Uiso   1.00
C887   C     0.38664   0.20153   0.53562   0.00000  Uiso   1.00
H888   H     0.36967   0.21656   0.50669   0.00000  Uiso   1.00
H889   H     0.36482   0.17942   0.55316   0.00000  Uiso   1.00
H890   H     0.39631   0.23037   0.55689   0.00000  Uiso   1.00
C891   C     0.61329   0.20162   0.96440   0.00000  Uiso   1.00
H892   H     0.63020   0.21671   0.99334   0.00000  Uiso   1.00
H893   H     0.63517   0.17954   0.94690   0.00000  Uiso   1.00
H894   H     0.60359   0.23042   0.94309   0.00000  Uiso   1.00
C895   C     0.55606   0.04754   0.80548   0.00000  Uiso   1.00
N896   N     0.57993   0.06558   0.82852   0.00000  Uiso   1.00
C897   C     0.44515   0.28493   0.69359   0.00000  Uiso   1.00
N898   N     0.42241   0.26583   0.67003   0.00000  Uiso   1.00
C899   C     0.44394   0.04754   0.69452   0.00000  Uiso   1.00
N900   N     0.42007   0.06559   0.67149   0.00000  Uiso   1.00
C901   C     0.55485   0.28493   0.80641   0.00000  Uiso   1.00
N902   N     0.57759   0.26582   0.82997   0.00000  Uiso   1.00
O903   O     0.77226   0.20487   0.75000   0.00000  Uiso   1.00
O904   O     0.89441   0.12846   0.75001   0.00000  Uiso   1.00
O905   O     0.89441   0.20487   0.75001   0.00000  Uiso   1.00
O906   O     0.77226   0.12846   0.75000   0.00000  Uiso   1.00
C907   C     0.75335   0.16667   0.75005   0.00000  Uiso   1.00
C908   C     0.91332   0.16667   0.74995   0.00000  Uiso   1.00
O909   O     0.83333   0.20489   0.68393   0.00000  Uiso   1.00
O910   O     0.83334   0.12844   0.81608   0.00000  Uiso   1.00
O911   O     0.83334   0.20489   0.81608   0.00000  Uiso   1.00
O912   O     0.83333   0.12844   0.68393   0.00000  Uiso   1.00
C913   C     0.83329   0.16677   0.66379   0.00000  Uiso   1.00
C914   C     0.83338   0.16677   0.83621   0.00000  Uiso   1.00
Zn915  Zn    0.83333   0.21771   0.75000   0.00000  Uiso   1.00
Zn916  Zn    0.83333   0.11563   0.75000   0.00000  Uiso   1.00
C917   C     0.87200   0.16811   0.90708   0.00000  Uiso   1.00
C918   C     0.79465   0.16811   0.59292   0.00000  Uiso   1.00
C919   C     0.83370   0.16749   0.88385   0.00000  Uiso   1.00
C920   C     0.83296   0.16750   0.61615   0.00000  Uiso   1.00
C921   C     0.79553   0.17000   0.90532   0.00000  Uiso   1.00
C922   C     0.87111   0.17001   0.59467   0.00000  Uiso   1.00
C923   C     0.79537   0.16694   0.95213   0.00000  Uiso   1.00
C924   C     0.87127   0.16695   0.54787   0.00000  Uiso   1.00
C925   C     0.83349   0.16976   0.97644   0.00000  Uiso   1.00
C926   C     0.83315   0.16976   0.52356   0.00000  Uiso   1.00
C927   C     0.87193   0.17243   0.95398   0.00000  Uiso   1.00
C928   C     0.79471   0.17242   0.54602   0.00000  Uiso   1.00
C929   C     0.75813   0.16350   0.97568   0.00000  Uiso   1.00
C930   C     0.90851   0.16351   0.52432   0.00000  Uiso   1.00
C931   C     0.75755   0.17574   0.52031   0.00000  Uiso   1.00
C932   C     0.90909   0.17576   0.97969   0.00000  Uiso   1.00
C933   C     0.68793   0.12570   0.75009   0.00000  Uiso   1.00
C934   C     0.97873   0.20766   0.74993   0.00000  Uiso   1.00
C935   C     0.97874   0.12570   0.74992   0.00000  Uiso   1.00
C936   C     0.68793   0.20766   0.75007   0.00000  Uiso   1.00
H937   H     0.70401   0.09372   0.75022   0.00000  Uiso   1.00
H938   H     0.96265   0.23964   0.74984   0.00000  Uiso   1.00
H939   H     0.96266   0.09372   0.74979   0.00000  Uiso   1.00
H940   H     0.70402   0.23964   0.75016   0.00000  Uiso   1.00
C941   C     0.95751   0.16668   0.74991   0.00000  Uiso   1.00
C942   C     0.70915   0.16668   0.75009   0.00000  Uiso   1.00
C943   C     0.86023   0.02387   0.77706   0.00000  Uiso   1.00
C944   C     0.80663   0.30924   0.72275   0.00000  Uiso   1.00
C945   C     0.80643   0.02388   0.72294   0.00000  Uiso   1.00
C946   C     0.86004   0.30924   0.77725   0.00000  Uiso   1.00
N947   N     0.83333   0.28573   0.75000   0.00000  Uiso   1.00
N948   N     0.83333   0.04760   0.75000   0.00000  Uiso   1.00
C949   C     0.91209   0.16051   0.88197   0.00000  Uiso   1.00
H950   H     0.93089   0.13395   0.89874   0.00000  Uiso   1.00
H951   H     0.90732   0.14898   0.84728   0.00000  Uiso   1.00
H952   H     0.92990   0.19210   0.87913   0.00000  Uiso   1.00
C953   C     0.75456   0.16050   0.61805   0.00000  Uiso   1.00
H954   H     0.73580   0.13389   0.60133   0.00000  Uiso   1.00
H955   H     0.75935   0.14903   0.65276   0.00000  Uiso   1.00
H956   H     0.73673   0.19207   0.62085   0.00000  Uiso   1.00
C957   C     0.75597   0.17966   0.87814   0.00000  Uiso   1.00
H958   H     0.76184   0.20031   0.84817   0.00000  Uiso   1.00
H959   H     0.74127   0.14763   0.86726   0.00000  Uiso   1.00
H960   H     0.73388   0.20031   0.89732   0.00000  Uiso   1.00
C961   C     0.91067   0.17968   0.62185   0.00000  Uiso   1.00
H962   H     0.90481   0.20038   0.65179   0.00000  Uiso   1.00
H963   H     0.92536   0.14766   0.63278   0.00000  Uiso   1.00
H964   H     0.93279   0.20029   0.60265   0.00000  Uiso   1.00
C965   C     0.72200   0.14038   0.95750   0.00000  Uiso   1.00
N966   N     0.69349   0.12123   0.94315   0.00000  Uiso   1.00
C967   C     0.94463   0.14036   0.54248   0.00000  Uiso   1.00
N968   N     0.97313   0.12118   0.55681   0.00000  Uiso   1.00
C969   C     0.71997   0.20153   0.53562   0.00000  Uiso   1.00
H970   H     0.70300   0.21656   0.50669   0.00000  Uiso   1.00
H971   H     0.69815   0.17942   0.55316   0.00000  Uiso   1.00
H972   H     0.72964   0.23037   0.55689   0.00000  Uiso   1.00
C973   C     0.94663   0.20162   0.96440   0.00000  Uiso   1.00
H974   H     0.96354   0.21671   0.99334   0.00000  Uiso   1.00
H975   H     0.96851   0.17954   0.94690   0.00000  Uiso   1.00
H976   H     0.93693   0.23042   0.94309   0.00000  Uiso   1.00
C977   C     0.88939   0.04754   0.80548   0.00000  Uiso   1.00
N978   N     0.91327   0.06558   0.82852   0.00000  Uiso   1.00
C979   C     0.77848   0.28493   0.69359   0.00000  Uiso   1.00
N980   N     0.75575   0.26583   0.67003   0.00000  Uiso   1.00
C981   C     0.77728   0.04754   0.69452   0.00000  Uiso   1.00
N982   N     0.75340   0.06559   0.67149   0.00000  Uiso   1.00
C983   C     0.88818   0.28493   0.80641   0.00000  Uiso   1.00
N984   N     0.91092   0.26582   0.82997   0.00000  Uiso   1.00
O985   O     0.10559   0.53821   0.75000   0.00000  Uiso   1.00
O986   O     0.22774   0.46179   0.75001   0.00000  Uiso   1.00
O987   O     0.22774   0.53821   0.75001   0.00000  Uiso   1.00
O988   O     0.10559   0.46179   0.75000   0.00000  Uiso   1.00
C989   C     0.08668   0.50000   0.75005   0.00000  Uiso   1.00
C990   C     0.24665   0.50000   0.74995   0.00000  Uiso   1.00
O991   O     0.16666   0.53823   0.68393   0.00000  Uiso   1.00
O992   O     0.16667   0.46177   0.81608   0.00000  Uiso   1.00
O993   O     0.16667   0.53823   0.81608   0.00000  Uiso   1.00
O994   O     0.16666   0.46177   0.68393   0.00000  Uiso   1.00
C995   C     0.16662   0.50010   0.66379   0.00000  Uiso   1.00
C996   C     0.16671   0.50010   0.83621   0.00000  Uiso   1.00
Zn997  Zn    0.16667   0.55104   0.75000   0.00000  Uiso   1.00
Zn998  Zn    0.16667   0.44896   0.75000   0.00000  Uiso   1.00
C999   C     0.20533   0.50144   0.90708   0.00000  Uiso   1.00
C1000  C     0.12798   0.50144   0.59292   0.00000  Uiso   1.00
C1001  C     0.16703   0.50083   0.88385   0.00000  Uiso   1.00
C1002  C     0.16629   0.50083   0.61615   0.00000  Uiso   1.00
C1003  C     0.12887   0.50333   0.90532   0.00000  Uiso   1.00
C1004  C     0.20445   0.50334   0.59467   0.00000  Uiso   1.00
C1005  C     0.12870   0.50027   0.95213   0.00000  Uiso   1.00
C1006  C     0.20461   0.50028   0.54787   0.00000  Uiso   1.00
C1007  C     0.16682   0.50309   0.97644   0.00000  Uiso   1.00
C1008  C     0.16648   0.50309   0.52356   0.00000  Uiso   1.00
C1009  C     0.20526   0.50576   0.95398   0.00000  Uiso   1.00
C1010  C     0.12805   0.50575   0.54602   0.00000  Uiso   1.00
C1011  C     0.09146   0.49683   0.97568   0.00000  Uiso   1.00
C1012  C     0.24184   0.49684   0.52432   0.00000  Uiso   1.00
C1013  C     0.09088   0.50907   0.52031   0.00000  Uiso   1.00
C1014  C     0.24242   0.50909   0.97969   0.00000  Uiso   1.00
C1015  C     0.02126   0.45903   0.75009   0.00000  Uiso   1.00
C1016  C     0.31207   0.54099   0.74993   0.00000  Uiso   1.00
C1017  C     0.31207   0.45903   0.74992   0.00000  Uiso   1.00
C1018  C     0.02127   0.54099   0.75007   0.00000  Uiso   1.00
H1019  H     0.03734   0.42705   0.75022   0.00000  Uiso   1.00
H1020  H     0.29598   0.57297   0.74984   0.00000  Uiso   1.00
H1021  H     0.29599   0.42705   0.74979   0.00000  Uiso   1.00
H1022  H     0.03735   0.57297   0.75016   0.00000  Uiso   1.00
C1023  C     0.29085   0.50001   0.74991   0.00000  Uiso   1.00
C1024  C     0.04249   0.50001   0.75009   0.00000  Uiso   1.00
C1025  C     0.19357   0.35721   0.77706   0.00000  Uiso   1.00
C1026  C     0.13996   0.64258   0.72275   0.00000  Uiso   1.00
C1027  C     0.13977   0.35721   0.72294   0.00000  Uiso   1.00
C1028  C     0.19337   0.64257   0.77725   0.00000  Uiso   1.00
N1029  N     0.16667   0.61907   0.75000   0.00000  Uiso   1.00
N1030  N     0.16667   0.38093   0.75000   0.00000  Uiso   1.00
C1031  C     0.24543   0.49384   0.88197   0.00000  Uiso   1.00
H1032  H     0.26422   0.46728   0.89874   0.00000  Uiso   1.00
H1033  H     0.24065   0.48231   0.84728   0.00000  Uiso   1.00
H1034  H     0.26323   0.52544   0.87913   0.00000  Uiso   1.00
C1035  C     0.08790   0.49383   0.61805   0.00000  Uiso   1.00
H1036  H     0.06913   0.46722   0.60133   0.00000  Uiso   1.00
H1037  H     0.09268   0.48236   0.65276   0.00000  Uiso   1.00
H1038  H     0.07006   0.52540   0.62085   0.00000  Uiso   1.00
C1039  C     0.08931   0.51299   0.87814   0.00000  Uiso   1.00
H1040  H     0.09517   0.53365   0.84817   0.00000  Uiso   1.00
H1041  H     0.07460   0.48097   0.86726   0.00000  Uiso   1.00
H1042  H     0.06721   0.53365   0.89732   0.00000  Uiso   1.00
C1043  C     0.24401   0.51301   0.62185   0.00000  Uiso   1.00
H1044  H     0.23815   0.53371   0.65179   0.00000  Uiso   1.00
H1045  H     0.25869   0.48099   0.63278   0.00000  Uiso   1.00
H1046  H     0.26612   0.53363   0.60265   0.00000  Uiso   1.00
C1047  C     0.05534   0.47371   0.95750   0.00000  Uiso   1.00
N1048  N     0.02682   0.45456   0.94315   0.00000  Uiso   1.00
C1049  C     0.27796   0.47370   0.54248   0.00000  Uiso   1.00
N1050  N     0.30646   0.45452   0.55681   0.00000  Uiso   1.00
C1051  C     0.05331   0.53486   0.53562   0.00000  Uiso   1.00
H1052  H     0.03633   0.54989   0.50669   0.00000  Uiso   1.00
H1053  H     0.03149   0.51275   0.55316   0.00000  Uiso   1.00
H1054  H     0.06297   0.56370   0.55689   0.00000  Uiso   1.00
C1055  C     0.27996   0.53495   0.96440   0.00000  Uiso   1.00
H1056  H     0.29687   0.55004   0.99334   0.00000  Uiso   1.00
H1057  H     0.30184   0.51287   0.94690   0.00000  Uiso   1.00
H1058  H     0.27026   0.56375   0.94309   0.00000  Uiso   1.00
C1059  C     0.22272   0.38087   0.80548   0.00000  Uiso   1.00
N1060  N     0.24660   0.39891   0.82852   0.00000  Uiso   1.00
C1061  C     0.11182   0.61826   0.69359   0.00000  Uiso   1.00
N1062  N     0.08908   0.59916   0.67003   0.00000  Uiso   1.00
C1063  C     0.11061   0.38088   0.69452   0.00000  Uiso   1.00
N1064  N     0.08673   0.39892   0.67149   0.00000  Uiso   1.00
C1065  C     0.22152   0.61826   0.80641   0.00000  Uiso   1.00
N1066  N     0.24425   0.59916   0.82997   0.00000  Uiso   1.00
O1067  O     0.43892   0.53821   0.75000   0.00000  Uiso   1.00
O1068  O     0.56108   0.46179   0.75001   0.00000  Uiso   1.00
O1069  O     0.56108   0.53821   0.75001   0.00000  Uiso   1.00
O1070  O     0.43892   0.46179   0.75000   0.00000  Uiso   1.00
C1071  C     0.42002   0.50000   0.75005   0.00000  Uiso   1.00
C1072  C     0.57998   0.50000   0.74995   0.00000  Uiso   1.00
O1073  O     0.49999   0.53823   0.68393   0.00000  Uiso   1.00
O1074  O     0.50001   0.46177   0.81608   0.00000  Uiso   1.00
O1075  O     0.50001   0.53823   0.81608   0.00000  Uiso   1.00
O1076  O     0.49999   0.46177   0.68393   0.00000  Uiso   1.00
C1077  C     0.49996   0.50010   0.66379   0.00000  Uiso   1.00
C1078  C     0.50004   0.50010   0.83621   0.00000  Uiso   1.00
Zn1079 Zn    0.50000   0.55104   0.75000   0.00000  Uiso   1.00
Zn1080 Zn    0.50000   0.44896   0.75000   0.00000  Uiso   1.00
C1081  C     0.53866   0.50144   0.90708   0.00000  Uiso   1.00
C1082  C     0.46132   0.50144   0.59292   0.00000  Uiso   1.00
C1083  C     0.50036   0.50083   0.88385   0.00000  Uiso   1.00
C1084  C     0.49962   0.50083   0.61615   0.00000  Uiso   1.00
C1085  C     0.46220   0.50333   0.90532   0.00000  Uiso   1.00
C1086  C     0.53778   0.50334   0.59467   0.00000  Uiso   1.00
C1087  C     0.46203   0.50027   0.95213   0.00000  Uiso   1.00
C1088  C     0.53794   0.50028   0.54787   0.00000  Uiso   1.00
C1089  C     0.50016   0.50309   0.97644   0.00000  Uiso   1.00
C1090  C     0.49981   0.50309   0.52356   0.00000  Uiso   1.00
C1091  C     0.53859   0.50576   0.95398   0.00000  Uiso   1.00
C1092  C     0.46138   0.50575   0.54602   0.00000  Uiso   1.00
C1093  C     0.42480   0.49683   0.97568   0.00000  Uiso   1.00
C1094  C     0.57518   0.49684   0.52432   0.00000  Uiso   1.00
C1095  C     0.42421   0.50907   0.52031   0.00000  Uiso   1.00
C1096  C     0.57576   0.50909   0.97969   0.00000  Uiso   1.00
C1097  C     0.35460   0.45903   0.75009   0.00000  Uiso   1.00
C1098  C     0.64540   0.54099   0.74993   0.00000  Uiso   1.00
C1099  C     0.64540   0.45903   0.74992   0.00000  Uiso   1.00
C1100  C     0.35460   0.54099   0.75007   0.00000  Uiso   1.00
H1101  H     0.37068   0.42705   0.75022   0.00000  Uiso   1.00
H1102  H     0.62931   0.57297   0.74984   0.00000  Uiso   1.00
H1103  H     0.62933   0.42705   0.74979   0.00000  Uiso   1.00
H1104  H     0.37068   0.57297   0.75016   0.00000  Uiso   1.00
C1105  C     0.62418   0.50001   0.74991   0.00000  Uiso   1.00
C1106  C     0.37582   0.50001   0.75009   0.00000  Uiso   1.00
C1107  C     0.52690   0.35721   0.77706   0.00000  Uiso   1.00
C1108  C     0.47330   0.64258   0.72275   0.00000  Uiso   1.00
C1109  C     0.47310   0.35721   0.72294   0.00000  Uiso   1.00
C1110  C     0.52670   0.64257   0.77725   0.00000  Uiso   1.00
N1111  N     0.50000   0.61907   0.75000   0.00000  Uiso   1.00
N1112  N     0.50000   0.38093   0.75000   0.00000  Uiso   1.00
C1113  C     0.57876   0.49384   0.88197   0.00000  Uiso   1.00
H1114  H     0.59756   0.46728   0.89874   0.00000  Uiso   1.00
H1115  H     0.57399   0.48231   0.84728   0.00000  Uiso   1.00
H1116  H     0.59657   0.52544   0.87913   0.00000  Uiso   1.00
C1117  C     0.42123   0.49383   0.61805   0.00000  Uiso   1.00
H1118  H     0.40247   0.46722   0.60133   0.00000  Uiso   1.00
H1119  H     0.42601   0.48236   0.65276   0.00000  Uiso   1.00
H1120  H     0.40339   0.52540   0.62085   0.00000  Uiso   1.00
C1121  C     0.42264   0.51299   0.87814   0.00000  Uiso   1.00
H1122  H     0.42850   0.53365   0.84817   0.00000  Uiso   1.00
H1123  H     0.40794   0.48097   0.86726   0.00000  Uiso   1.00
H1124  H     0.40054   0.53365   0.89732   0.00000  Uiso   1.00
C1125  C     0.57734   0.51301   0.62185   0.00000  Uiso   1.00
H1126  H     0.57148   0.53371   0.65179   0.00000  Uiso   1.00
H1127  H     0.59203   0.48099   0.63278   0.00000  Uiso   1.00
H1128  H     0.59946   0.53363   0.60265   0.00000  Uiso   1.00
C1129  C     0.38867   0.47371   0.95750   0.00000  Uiso   1.00
N1130  N     0.36016   0.45456   0.94315   0.00000  Uiso   1.00
C1131  C     0.61129   0.47370   0.54248   0.00000  Uiso   1.00
N1132  N     0.63980   0.45452   0.55681   0.00000  Uiso   1.00
C1133  C     0.38664   0.53486   0.53562   0.00000  Uiso   1.00
H1134  H     0.36967   0.54989   0.50669   0.00000  Uiso   1.00
H1135  H     0.36482   0.51275   0.55316   0.00000  Uiso   1.00
H1136  H     0.39631   0.56370   0.55689   0.00000  Uiso   1.00
C1137  C     0.61329   0.53495   0.96440   0.00000  Uiso   1.00
H1138  H     0.63020   0.55004   0.99334   0.00000  Uiso   1.00
H1139  H     0.63517   0.51287   0.94690   0.00000  Uiso   1.00
H1140  H     0.60359   0.56375   0.94309   0.00000  Uiso   1.00
C1141  C     0.55606   0.38087   0.80548   0.00000  Uiso   1.00
N1142  N     0.57993   0.39891   0.82852   0.00000  Uiso   1.00
C1143  C     0.44515   0.61826   0.69359   0.00000  Uiso   1.00
N1144  N     0.42241   0.59916   0.67003   0.00000  Uiso   1.00
C1145  C     0.44394   0.38088   0.69452   0.00000  Uiso   1.00
N1146  N     0.42007   0.39892   0.67149   0.00000  Uiso   1.00
C1147  C     0.55485   0.61826   0.80641   0.00000  Uiso   1.00
N1148  N     0.57759   0.59916   0.82997   0.00000  Uiso   1.00
O1149  O     0.77226   0.53821   0.75000   0.00000  Uiso   1.00
O1150  O     0.89441   0.46179   0.75001   0.00000  Uiso   1.00
O1151  O     0.89441   0.53821   0.75001   0.00000  Uiso   1.00
O1152  O     0.77226   0.46179   0.75000   0.00000  Uiso   1.00
C1153  C     0.75335   0.50000   0.75005   0.00000  Uiso   1.00
C1154  C     0.91332   0.50000   0.74995   0.00000  Uiso   1.00
O1155  O     0.83333   0.53823   0.68393   0.00000  Uiso   1.00
O1156  O     0.83334   0.46177   0.81608   0.00000  Uiso   1.00
O1157  O     0.83334   0.53823   0.81608   0.00000  Uiso   1.00
O1158  O     0.83333   0.46177   0.68393   0.00000  Uiso   1.00
C1159  C     0.83329   0.50010   0.66379   0.00000  Uiso   1.00
C1160  C     0.83338   0.50010   0.83621   0.00000  Uiso   1.00
Zn1161 Zn    0.83333   0.55104   0.75000   0.00000  Uiso   1.00
Zn1162 Zn    0.83333   0.44896   0.75000   0.00000  Uiso   1.00
C1163  C     0.87200   0.50144   0.90708   0.00000  Uiso   1.00
C1164  C     0.79465   0.50144   0.59292   0.00000  Uiso   1.00
C1165  C     0.83370   0.50083   0.88385   0.00000  Uiso   1.00
C1166  C     0.83296   0.50083   0.61615   0.00000  Uiso   1.00
C1167  C     0.79553   0.50333   0.90532   0.00000  Uiso   1.00
C1168  C     0.87111   0.50334   0.59467   0.00000  Uiso   1.00
C1169  C     0.79537   0.50027   0.95213   0.00000  Uiso   1.00
C1170  C     0.87127   0.50028   0.54787   0.00000  Uiso   1.00
C1171  C     0.83349   0.50309   0.97644   0.00000  Uiso   1.00
C1172  C     0.83315   0.50309   0.52356   0.00000  Uiso   1.00
C1173  C     0.87193   0.50576   0.95398   0.00000  Uiso   1.00
C1174  C     0.79471   0.50575   0.54602   0.00000  Uiso   1.00
C1175  C     0.75813   0.49683   0.97568   0.00000  Uiso   1.00
C1176  C     0.90851   0.49684   0.52432   0.00000  Uiso   1.00
C1177  C     0.75755   0.50907   0.52031   0.00000  Uiso   1.00
C1178  C     0.90909   0.50909   0.97969   0.00000  Uiso   1.00
C1179  C     0.68793   0.45903   0.75009   0.00000  Uiso   1.00
C1180  C     0.97873   0.54099   0.74993   0.00000  Uiso   1.00
C1181  C     0.97874   0.45903   0.74992   0.00000  Uiso   1.00
C1182  C     0.68793   0.54099   0.75007   0.00000  Uiso   1.00
H1183  H     0.70401   0.42705   0.75022   0.00000  Uiso   1.00
H1184  H     0.96265   0.57297   0.74984   0.00000  Uiso   1.00
H1185  H     0.96266   0.42705   0.74979   0.00000  Uiso   1.00
H1186  H     0.70402   0.57297   0.75016   0.00000  Uiso   1.00
C1187  C     0.95751   0.50001   0.74991   0.00000  Uiso   1.00
C1188  C     0.70915   0.50001   0.75009   0.00000  Uiso   1.00
C1189  C     0.86023   0.35721   0.77706   0.00000  Uiso   1.00
C1190  C     0.80663   0.64258   0.72275   0.00000  Uiso   1.00
C1191  C     0.80643   0.35721   0.72294   0.00000  Uiso   1.00
C1192  C     0.86004   0.64257   0.77725   0.00000  Uiso   1.00
N1193  N     0.83333   0.61907   0.75000   0.00000  Uiso   1.00
N1194  N     0.83333   0.38093   0.75000   0.00000  Uiso   1.00
C1195  C     0.91209   0.49384   0.88197   0.00000  Uiso   1.00
H1196  H     0.93089   0.46728   0.89874   0.00000  Uiso   1.00
H1197  H     0.90732   0.48231   0.84728   0.00000  Uiso   1.00
H1198  H     0.92990   0.52544   0.87913   0.00000  Uiso   1.00
C1199  C     0.75456   0.49383   0.61805   0.00000  Uiso   1.00
H1200  H     0.73580   0.46722   0.60133   0.00000  Uiso   1.00
H1201  H     0.75935   0.48236   0.65276   0.00000  Uiso   1.00
H1202  H     0.73673   0.52540   0.62085   0.00000  Uiso   1.00
C1203  C     0.75597   0.51299   0.87814   0.00000  Uiso   1.00
H1204  H     0.76184   0.53365   0.84817   0.00000  Uiso   1.00
H1205  H     0.74127   0.48097   0.86726   0.00000  Uiso   1.00
H1206  H     0.73388   0.53365   0.89732   0.00000  Uiso   1.00
C1207  C     0.91067   0.51301   0.62185   0.00000  Uiso   1.00
H1208  H     0.90481   0.53371   0.65179   0.00000  Uiso   1.00
H1209  H     0.92536   0.48099   0.63278   0.00000  Uiso   1.00
H1210  H     0.93279   0.53363   0.60265   0.00000  Uiso   1.00
C1211  C     0.72200   0.47371   0.95750   0.00000  Uiso   1.00
N1212  N     0.69349   0.45456   0.94315   0.00000  Uiso   1.00
C1213  C     0.94463   0.47370   0.54248   0.00000  Uiso   1.00
N1214  N     0.97313   0.45452   0.55681   0.00000  Uiso   1.00
C1215  C     0.71997   0.53486   0.53562   0.00000  Uiso   1.00
H1216  H     0.70300   0.54989   0.50669   0.00000  Uiso   1.00
H1217  H     0.69815   0.51275   0.55316   0.00000  Uiso   1.00
H1218  H     0.72964   0.56370   0.55689   0.00000  Uiso   1.00
C1219  C     0.94663   0.53495   0.96440   0.00000  Uiso   1.00
H1220  H     0.96354   0.55004   0.99334   0.00000  Uiso   1.00
H1221  H     0.96851   0.51287   0.94690   0.00000  Uiso   1.00
H1222  H     0.93693   0.56375   0.94309   0.00000  Uiso   1.00
C1223  C     0.88939   0.38087   0.80548   0.00000  Uiso   1.00
N1224  N     0.91327   0.39891   0.82852   0.00000  Uiso   1.00
C1225  C     0.77848   0.61826   0.69359   0.00000  Uiso   1.00
N1226  N     0.75575   0.59916   0.67003   0.00000  Uiso   1.00
C1227  C     0.77728   0.38088   0.69452   0.00000  Uiso   1.00
N1228  N     0.75340   0.39892   0.67149   0.00000  Uiso   1.00
C1229  C     0.88818   0.61826   0.80641   0.00000  Uiso   1.00
N1230  N     0.91092   0.59916   0.82997   0.00000  Uiso   1.00
O1231  O     0.10559   0.87154   0.75000   0.00000  Uiso   1.00
O1232  O     0.22774   0.79513   0.75001   0.00000  Uiso   1.00
O1233  O     0.22774   0.87154   0.75001   0.00000  Uiso   1.00
O1234  O     0.10559   0.79513   0.75000   0.00000  Uiso   1.00
C1235  C     0.08668   0.83334   0.75005   0.00000  Uiso   1.00
C1236  C     0.24665   0.83334   0.74995   0.00000  Uiso   1.00
O1237  O     0.16666   0.87156   0.68393   0.00000  Uiso   1.00
O1238  O     0.16667   0.79511   0.81608   0.00000  Uiso   1.00
O1239  O     0.16667   0.87156   0.81608   0.00000  Uiso   1.00
O1240  O     0.16666   0.79511   0.68393   0.00000  Uiso   1.00
C1241  C     0.16662   0.83343   0.66379   0.00000  Uiso   1.00
C1242  C     0.16671   0.83343   0.83621   0.00000  Uiso   1.00
Zn1243 Zn    0.16667   0.88437   0.75000   0.00000  Uiso   1.00
Zn1244 Zn    0.16667   0.78229   0.75000   0.00000  Uiso   1.00
C1245  C     0.20533   0.83478   0.90708   0.00000  Uiso   1.00
C1246  C     0.12798   0.83477   0.59292   0.00000  Uiso   1.00
C1247  C     0.16703   0.83416   0.88385   0.00000  Uiso   1.00
C1248  C     0.16629   0.83416   0.61615   0.00000  Uiso   1.00
C1249  C     0.12887   0.83667   0.90532   0.00000  Uiso   1.00
C1250  C     0.20445   0.83668   0.59467   0.00000  Uiso   1.00
C1251  C     0.12870   0.83361   0.95213   0.00000  Uiso   1.00
C1252  C     0.20461   0.83361   0.54787   0.00000  Uiso   1.00
C1253  C     0.16682   0.83642   0.97644   0.00000  Uiso   1.00
C1254  C     0.16648   0.83642   0.52356   0.00000  Uiso   1.00
C1255  C     0.20526   0.83909   0.95398   0.00000  Uiso   1.00
C1256  C     0.12805   0.83908   0.54602   0.00000  Uiso   1.00
C1257  C     0.09146   0.83016   0.97568   0.00000  Uiso   1.00
C1258  C     0.24184   0.83017   0.52432   0.00000  Uiso   1.00
C1259  C     0.09088   0.84240   0.52031   0.00000  Uiso   1.00
C1260  C     0.24242   0.84242   0.97969   0.00000  Uiso   1.00
C1261  C     0.02126   0.79237   0.75009   0.00000  Uiso   1.00
C1262  C     0.31207   0.87433   0.74993   0.00000  Uiso   1.00
C1263  C     0.31207   0.79237   0.74992   0.00000  Uiso   1.00
C1264  C     0.02127   0.87433   0.75007   0.00000  Uiso   1.00
H1265  H     0.03734   0.76039   0.75022   0.00000  Uiso   1.00
H1266  H     0.29598   0.90631   0.74984   0.00000  Uiso   1.00
H1267  H     0.29599   0.76039   0.74979   0.00000  Uiso   1.00
H1268  H     0.03735   0.90631   0.75016   0.00000  Uiso   1.00
C1269  C     0.29085   0.83334   0.74991   0.00000  Uiso   1.00
C1270  C     0.04249   0.83334   0.75009   0.00000  Uiso   1.00
C1271  C     0.19357   0.69054   0.77706   0.00000  Uiso   1.00
C1272  C     0.13996   0.97591   0.72275   0.00000  Uiso   1.00
C1273  C     0.13977   0.69054   0.72294   0.00000  Uiso   1.00
C1274  C     0.19337   0.97591   0.77725   0.00000  Uiso   1.00
N1275  N     0.16667   0.95240   0.75000   0.00000  Uiso   1.00
N1276  N     0.16667   0.71427   0.75000   0.00000  Uiso   1.00
C1277  C     0.24543   0.82718   0.88197   0.00000  Uiso   1.00
H1278  H     0.26422   0.80061   0.89874   0.00000  Uiso   1.00
H1279  H     0.24065   0.81565   0.84728   0.00000  Uiso   1.00
H1280  H     0.26323   0.85877   0.87913   0.00000  Uiso   1.00
C1281  C     0.08790   0.82716   0.61805   0.00000  Uiso   1.00
H1282  H     0.06913   0.80055   0.60133   0.00000  Uiso   1.00
H1283  H     0.09268   0.81569   0.65276   0.00000  Uiso   1.00
H1284  H     0.07006   0.85873   0.62085   0.00000  Uiso   1.00
C1285  C     0.08931   0.84633   0.87814   0.00000  Uiso   1.00
H1286  H     0.09517   0.86698   0.84817   0.00000  Uiso   1.00
H1287  H     0.07460   0.81430   0.86726   0.00000  Uiso   1.00
H1288  H     0.06721   0.86698   0.89732   0.00000  Uiso   1.00
C1289  C     0.24401   0.84635   0.62185   0.00000  Uiso   1.00
H1290  H     0.23815   0.86705   0.65179   0.00000  Uiso   1.00
H1291  H     0.25869   0.81433   0.63278   0.00000  Uiso   1.00
H1292  H     0.26612   0.86696   0.60265   0.00000  Uiso   1.00
C1293  C     0.05534   0.80705   0.95750   0.00000  Uiso   1.00
N1294  N     0.02682   0.78790   0.94315   0.00000  Uiso   1.00
C1295  C     0.27796   0.80703   0.54248   0.00000  Uiso   1.00
N1296  N     0.30646   0.78785   0.55681   0.00000  Uiso   1.00
C1297  C     0.05331   0.86820   0.53562   0.00000  Uiso   1.00
H1298  H     0.03633   0.88322   0.50669   0.00000  Uiso   1.00
H1299  H     0.03149   0.84608   0.55316   0.00000  Uiso   1.00
H1300  H     0.06297   0.89704   0.55689   0.00000  Uiso   1.00
C1301  C     0.27996   0.86828   0.96440   0.00000  Uiso   1.00
H1302  H     0.29687   0.88338   0.99334   0.00000  Uiso   1.00
H1303  H     0.30184   0.84621   0.94690   0.00000  Uiso   1.00
H1304  H     0.27026   0.89708   0.94309   0.00000  Uiso   1.00
C1305  C     0.22272   0.71421   0.80548   0.00000  Uiso   1.00
N1306  N     0.24660   0.73225   0.82852   0.00000  Uiso   1.00
C1307  C     0.11182   0.95160   0.69359   0.00000  Uiso   1.00
N1308  N     0.08908   0.93249   0.67003   0.00000  Uiso   1.00
C1309  C     0.11061   0.71421   0.69452   0.00000  Uiso   1.00
N1310  N     0.08673   0.73225   0.67149   0.00000  Uiso   1.00
C1311  C     0.22152   0.95159   0.80641   0.00000  Uiso   1.00
N1312  N     0.24425   0.93249   0.82997   0.00000  Uiso   1.00
O1313  O     0.43892   0.87154   0.75000   0.00000  Uiso   1.00
O1314  O     0.56108   0.79513   0.75001   0.00000  Uiso   1.00
O1315  O     0.56108   0.87154   0.75001   0.00000  Uiso   1.00
O1316  O     0.43892   0.79513   0.75000   0.00000  Uiso   1.00
C1317  C     0.42002   0.83334   0.75005   0.00000  Uiso   1.00
C1318  C     0.57998   0.83334   0.74995   0.00000  Uiso   1.00
O1319  O     0.49999   0.87156   0.68393   0.00000  Uiso   1.00
O1320  O     0.50001   0.79511   0.81608   0.00000  Uiso   1.00
O1321  O     0.50001   0.87156   0.81608   0.00000  Uiso   1.00
O1322  O     0.49999   0.79511   0.68393   0.00000  Uiso   1.00
C1323  C     0.49996   0.83343   0.66379   0.00000  Uiso   1.00
C1324  C     0.50004   0.83343   0.83621   0.00000  Uiso   1.00
Zn1325 Zn    0.50000   0.88437   0.75000   0.00000  Uiso   1.00
Zn1326 Zn    0.50000   0.78229   0.75000   0.00000  Uiso   1.00
C1327  C     0.53866   0.83478   0.90708   0.00000  Uiso   1.00
C1328  C     0.46132   0.83477   0.59292   0.00000  Uiso   1.00
C1329  C     0.50036   0.83416   0.88385   0.00000  Uiso   1.00
C1330  C     0.49962   0.83416   0.61615   0.00000  Uiso   1.00
C1331  C     0.46220   0.83667   0.90532   0.00000  Uiso   1.00
C1332  C     0.53778   0.83668   0.59467   0.00000  Uiso   1.00
C1333  C     0.46203   0.83361   0.95213   0.00000  Uiso   1.00
C1334  C     0.53794   0.83361   0.54787   0.00000  Uiso   1.00
C1335  C     0.50016   0.83642   0.97644   0.00000  Uiso   1.00
C1336  C     0.49981   0.83642   0.52356   0.00000  Uiso   1.00
C1337  C     0.53859   0.83909   0.95398   0.00000  Uiso   1.00
C1338  C     0.46138   0.83908   0.54602   0.00000  Uiso   1.00
C1339  C     0.42480   0.83016   0.97568   0.00000  Uiso   1.00
C1340  C     0.57518   0.83017   0.52432   0.00000  Uiso   1.00
C1341  C     0.42421   0.84240   0.52031   0.00000  Uiso   1.00
C1342  C     0.57576   0.84242   0.97969   0.00000  Uiso   1.00
C1343  C     0.35460   0.79237   0.75009   0.00000  Uiso   1.00
C1344  C     0.64540   0.87433   0.74993   0.00000  Uiso   1.00
C1345  C     0.64540   0.79237   0.74992   0.00000  Uiso   1.00
C1346  C     0.35460   0.87433   0.75007   0.00000  Uiso   1.00
H1347  H     0.37068   0.76039   0.75022   0.00000  Uiso   1.00
H1348  H     0.62931   0.90631   0.74984   0.00000  Uiso   1.00
H1349  H     0.62933   0.76039   0.74979   0.00000  Uiso   1.00
H1350  H     0.37068   0.90631   0.75016   0.00000  Uiso   1.00
C1351  C     0.62418   0.83334   0.74991   0.00000  Uiso   1.00
C1352  C     0.37582   0.83334   0.75009   0.00000  Uiso   1.00
C1353  C     0.52690   0.69054   0.77706   0.00000  Uiso   1.00
C1354  C     0.47330   0.97591   0.72275   0.00000  Uiso   1.00
C1355  C     0.47310   0.69054   0.72294   0.00000  Uiso   1.00
C1356  C     0.52670   0.97591   0.77725   0.00000  Uiso   1.00
N1357  N     0.50000   0.95240   0.75000   0.00000  Uiso   1.00
N1358  N     0.50000   0.71427   0.75000   0.00000  Uiso   1.00
C1359  C     0.57876   0.82718   0.88197   0.00000  Uiso   1.00
H1360  H     0.59756   0.80061   0.89874   0.00000  Uiso   1.00
H1361  H     0.57399   0.81565   0.84728   0.00000  Uiso   1.00
H1362  H     0.59657   0.85877   0.87913   0.00000  Uiso   1.00
C1363  C     0.42123   0.82716   0.61805   0.00000  Uiso   1.00
H1364  H     0.40247   0.80055   0.60133   0.00000  Uiso   1.00
H1365  H     0.42601   0.81569   0.65276   0.00000  Uiso   1.00
H1366  H     0.40339   0.85873   0.62085   0.00000  Uiso   1.00
C1367  C     0.42264   0.84633   0.87814   0.00000  Uiso   1.00
H1368  H     0.42850   0.86698   0.84817   0.00000  Uiso   1.00
H1369  H     0.40794   0.81430   0.86726   0.00000  Uiso   1.00
H1370  H     0.40054   0.86698   0.89732   0.00000  Uiso   1.00
C1371  C     0.57734   0.84635   0.62185   0.00000  Uiso   1.00
H1372  H     0.57148   0.86705   0.65179   0.00000  Uiso   1.00
H1373  H     0.59203   0.81433   0.63278   0.00000  Uiso   1.00
H1374  H     0.59946   0.86696   0.60265   0.00000  Uiso   1.00
C1375  C     0.38867   0.80705   0.95750   0.00000  Uiso   1.00
N1376  N     0.36016   0.78790   0.94315   0.00000  Uiso   1.00
C1377  C     0.61129   0.80703   0.54248   0.00000  Uiso   1.00
N1378  N     0.63980   0.78785   0.55681   0.00000  Uiso   1.00
C1379  C     0.38664   0.86820   0.53562   0.00000  Uiso   1.00
H1380  H     0.36967   0.88322   0.50669   0.00000  Uiso   1.00
H1381  H     0.36482   0.84608   0.55316   0.00000  Uiso   1.00
H1382  H     0.39631   0.89704   0.55689   0.00000  Uiso   1.00
C1383  C     0.61329   0.86828   0.96440   0.00000  Uiso   1.00
H1384  H     0.63020   0.88338   0.99334   0.00000  Uiso   1.00
H1385  H     0.63517   0.84621   0.94690   0.00000  Uiso   1.00
H1386  H     0.60359   0.89708   0.94309   0.00000  Uiso   1.00
C1387  C     0.55606   0.71421   0.80548   0.00000  Uiso   1.00
N1388  N     0.57993   0.73225   0.82852   0.00000  Uiso   1.00
C1389  C     0.44515   0.95160   0.69359   0.00000  Uiso   1.00
N1390  N     0.42241   0.93249   0.67003   0.00000  Uiso   1.00
C1391  C     0.44394   0.71421   0.69452   0.00000  Uiso   1.00
N1392  N     0.42007   0.73225   0.67149   0.00000  Uiso   1.00
C1393  C     0.55485   0.95159   0.80641   0.00000  Uiso   1.00
N1394  N     0.57759   0.93249   0.82997   0.00000  Uiso   1.00
O1395  O     0.77226   0.87154   0.75000   0.00000  Uiso   1.00
O1396  O     0.89441   0.79513   0.75001   0.00000  Uiso   1.00
O1397  O     0.89441   0.87154   0.75001   0.00000  Uiso   1.00
O1398  O     0.77226   0.79513   0.75000   0.00000  Uiso   1.00
C1399  C     0.75335   0.83334   0.75005   0.00000  Uiso   1.00
C1400  C     0.91332   0.83334   0.74995   0.00000  Uiso   1.00
O1401  O     0.83333   0.87156   0.68393   0.00000  Uiso   1.00
O1402  O     0.83334   0.79511   0.81608   0.00000  Uiso   1.00
O1403  O     0.83334   0.87156   0.81608   0.00000  Uiso   1.00
O1404  O     0.83333   0.79511   0.68393   0.00000  Uiso   1.00
C1405  C     0.83329   0.83343   0.66379   0.00000  Uiso   1.00
C1406  C     0.83338   0.83343   0.83621   0.00000  Uiso   1.00
Zn1407 Zn    0.83333   0.88437   0.75000   0.00000  Uiso   1.00
Zn1408 Zn    0.83333   0.78229   0.75000   0.00000  Uiso   1.00
C1409  C     0.87200   0.83478   0.90708   0.00000  Uiso   1.00
C1410  C     0.79465   0.83477   0.59292   0.00000  Uiso   1.00
C1411  C     0.83370   0.83416   0.88385   0.00000  Uiso   1.00
C1412  C     0.83296   0.83416   0.61615   0.00000  Uiso   1.00
C1413  C     0.79553   0.83667   0.90532   0.00000  Uiso   1.00
C1414  C     0.87111   0.83668   0.59467   0.00000  Uiso   1.00
C1415  C     0.79537   0.83361   0.95213   0.00000  Uiso   1.00
C1416  C     0.87127   0.83361   0.54787   0.00000  Uiso   1.00
C1417  C     0.83349   0.83642   0.97644   0.00000  Uiso   1.00
C1418  C     0.83315   0.83642   0.52356   0.00000  Uiso   1.00
C1419  C     0.87193   0.83909   0.95398   0.00000  Uiso   1.00
C1420  C     0.79471   0.83908   0.54602   0.00000  Uiso   1.00
C1421  C     0.75813   0.83016   0.97568   0.00000  Uiso   1.00
C1422  C     0.90851   0.83017   0.52432   0.00000  Uiso   1.00
C1423  C     0.75755   0.84240   0.52031   0.00000  Uiso   1.00
C1424  C     0.90909   0.84242   0.97969   0.00000  Uiso   1.00
C1425  C     0.68793   0.79237   0.75009   0.00000  Uiso   1.00
C1426  C     0.97873   0.87433   0.74993   0.00000  Uiso   1.00
C1427  C     0.97874   0.79237   0.74992   0.00000  Uiso   1.00
C1428  C     0.68793   0.87433   0.75007   0.00000  Uiso   1.00
H1429  H     0.70401   0.76039   0.75022   0.00000  Uiso   1.00
H1430  H     0.96265   0.90631   0.74984   0.00000  Uiso   1.00
H1431  H     0.96266   0.76039   0.74979   0.00000  Uiso   1.00
H1432  H     0.70402   0.90631   0.75016   0.00000  Uiso   1.00
C1433  C     0.95751   0.83334   0.74991   0.00000  Uiso   1.00
C1434  C     0.70915   0.83334   0.75009   0.00000  Uiso   1.00
C1435  C     0.86023   0.69054   0.77706   0.00000  Uiso   1.00
C1436  C     0.80663   0.97591   0.72275   0.00000  Uiso   1.00
C1437  C     0.80643   0.69054   0.72294   0.00000  Uiso   1.00
C1438  C     0.86004   0.97591   0.77725   0.00000  Uiso   1.00
N1439  N     0.83333   0.95240   0.75000   0.00000  Uiso   1.00
N1440  N     0.83333   0.71427   0.75000   0.00000  Uiso   1.00
C1441  C     0.91209   0.82718   0.88197   0.00000  Uiso   1.00
H1442  H     0.93089   0.80061   0.89874   0.00000  Uiso   1.00
H1443  H     0.90732   0.81565   0.84728   0.00000  Uiso   1.00
H1444  H     0.92990   0.85877   0.87913   0.00000  Uiso   1.00
C1445  C     0.75456   0.82716   0.61805   0.00000  Uiso   1.00
H1446  H     0.73580   0.80055   0.60133   0.00000  Uiso   1.00
H1447  H     0.75935   0.81569   0.65276   0.00000  Uiso   1.00
H1448  H     0.73673   0.85873   0.62085   0.00000  Uiso   1.00
C1449  C     0.75597   0.84633   0.87814   0.00000  Uiso   1.00
H1450  H     0.76184   0.86698   0.84817   0.00000  Uiso   1.00
H1451  H     0.74127   0.81430   0.86726   0.00000  Uiso   1.00
H1452  H     0.73388   0.86698   0.89732   0.00000  Uiso   1.00
C1453  C     0.91067   0.84635   0.62185   0.00000  Uiso   1.00
H1454  H     0.90481   0.86705   0.65179   0.00000  Uiso   1.00
H1455  H     0.92536   0.81433   0.63278   0.00000  Uiso   1.00
H1456  H     0.93279   0.86696   0.60265   0.00000  Uiso   1.00
C1457  C     0.72200   0.80705   0.95750   0.00000  Uiso   1.00
N1458  N     0.69349   0.78790   0.94315   0.00000  Uiso   1.00
C1459  C     0.94463   0.80703   0.54248   0.00000  Uiso   1.00
N1460  N     0.97313   0.78785   0.55681   0.00000  Uiso   1.00
C1461  C     0.71997   0.86820   0.53562   0.00000  Uiso   1.00
H1462  H     0.70300   0.88322   0.50669   0.00000  Uiso   1.00
H1463  H     0.69815   0.84608   0.55316   0.00000  Uiso   1.00
H1464  H     0.72964   0.89704   0.55689   0.00000  Uiso   1.00
C1465  C     0.94663   0.86828   0.96440   0.00000  Uiso   1.00
H1466  H     0.96354   0.88338   0.99334   0.00000  Uiso   1.00
H1467  H     0.96851   0.84621   0.94690   0.00000  Uiso   1.00
H1468  H     0.93693   0.89708   0.94309   0.00000  Uiso   1.00
C1469  C     0.88939   0.71421   0.80548   0.00000  Uiso   1.00
N1470  N     0.91327   0.73225   0.82852   0.00000  Uiso   1.00
C1471  C     0.77848   0.95160   0.69359   0.00000  Uiso   1.00
N1472  N     0.75575   0.93249   0.67003   0.00000  Uiso   1.00
C1473  C     0.77728   0.71421   0.69452   0.00000  Uiso   1.00
N1474  N     0.75340   0.73225   0.67149   0.00000  Uiso   1.00
C1475  C     0.88818   0.95159   0.80641   0.00000  Uiso   1.00
N1476  N     0.91092   0.93249   0.82997   0.00000  Uiso   1.00
loop_
_geom_bond_atom_site_label_1
_geom_bond_atom_site_label_2
_geom_bond_distance
_geom_bond_site_symmetry_2
_ccdc_geom_bond_type
O1     Zn13    2.006   .     S
O1     C5      1.289   .     A
O2     C6      1.290   .     A
O2     Zn14    2.006   .     S
O3     C6      1.289   .     A
O3     Zn13    2.006   .     S
O4     C5      1.290   .     A
O4     Zn14    2.006   .     S
C5     C40     1.425   .     S
C6     C39     1.425   .     S
O7     C11     1.285   .     A
O7     Zn13    2.017   .     S
O8     C12     1.290   .     A
O8     Zn14    2.017   .     S
O9     Zn13    2.017   .     S
O9     C12     1.285   .     A
O10    Zn14    2.017   .     S
O10    C11     1.290   .     A
C11    C18     1.428   .     S
C12    C17     1.428   .     S
Zn13   N45     2.023   .     S
Zn14   N46     2.023   .     S
C15    C47     1.525   .     S
C15    C25     1.412   .     A
C15    C17     1.406   .     A
C16    C51     1.525   .     S
C16    C26     1.412   .     A
C16    C18     1.406   .     A
C17    C19     1.401   .     A
C18    C20     1.401   .     A
C19    C21     1.406   .     A
C19    C55     1.527   .     S
C20    C59     1.527   .     S
C20    C22     1.406   .     A
C21    C27     1.408   .     A
C21    C23     1.419   .     A
C22    C24     1.419   .     A
C22    C28     1.408   .     A
C23    C25     1.424   .     A
C23    C762    1.413   .     S
C24    C26     1.424   .     A
C24    C761    1.413   1_554 S
C25    C30     1.415   .     A
C26    C29     1.416   .     A
C27    C63     1.450   .     S
C27    C767    1.387   .     S
C28    C65     1.450   .     S
C28    C768    1.387   1_554 S
C29    C67     1.512   .     S
C29    C765    1.387   1_554 S
C30    C71     1.512   .     S
C30    C766    1.387   .     S
C31    C40     1.398   .     A
C31    H35     1.083   .     S
C31    C197    1.371   1_455 S
C32    H36     1.083   .     S
C32    C39     1.398   .     A
C32    C116    1.371   .     S
C33    C39     1.398   .     A
C33    H37     1.083   .     S
C33    C113    1.371   .     S
C34    C40     1.398   .     A
C34    H38     1.083   .     S
C34    C196    1.371   1_455 S
C41    N46     1.371   .     A
C41    C75     1.440   .     S
C41    C536    1.427   1_545 S
C42    N45     1.367   .     A
C42    C77     1.442   .     S
C42    C289    1.427   .     S
C43    C79     1.440   .     S
C43    N46     1.371   .     A
C43    C534    1.427   1_545 S
C44    C81     1.442   .     S
C44    N45     1.367   .     A
C44    C287    1.427   .     S
C47    H49     1.103   .     S
C47    H50     1.105   .     S
C47    H48     1.110   .     S
C51    H52     1.110   .     S
C51    H54     1.105   .     S
C51    H53     1.103   .     S
C55    H56     1.108   .     S
C55    H57     1.110   .     S
C55    H58     1.110   .     S
C59    H60     1.108   .     S
C59    H61     1.110   .     S
C59    H62     1.110   .     S
C63    N64     1.157   .     T
C65    N66     1.157   .     T
C67    H68     1.110   .     S
C67    H69     1.104   .     S
C67    H70     1.110   .     S
C71    H73     1.104   .     S
C71    H74     1.110   .     S
C71    H72     1.110   .     S
C75    N76     1.156   .     T
C77    N78     1.157   .     T
C79    N80     1.156   .     T
C81    N82     1.157   .     T
O83    Zn95    2.006   .     S
O83    C87     1.289   .     A
O84    C88     1.290   .     A
O84    Zn96    2.006   .     S
O85    C88     1.289   .     A
O85    Zn95    2.006   .     S
O86    C87     1.290   .     A
O86    Zn96    2.006   .     S
C87    C122    1.425   .     S
C88    C121    1.425   .     S
O89    C93     1.285   .     A
O89    Zn95    2.017   .     S
O90    C94     1.290   .     A
O90    Zn96    2.017   .     S
O91    Zn95    2.017   .     S
O91    C94     1.285   .     A
O92    Zn96    2.017   .     S
O92    C93     1.290   .     A
C93    C100    1.428   .     S
C94    C99     1.428   .     S
Zn95   N127    2.023   .     S
Zn96   N128    2.023   .     S
C97    C129    1.525   .     S
C97    C107    1.412   .     A
C97    C99     1.406   .     A
C98    C133    1.525   .     S
C98    C108    1.412   .     A
C98    C100    1.406   .     A
C99    C101    1.401   .     A
C100   C102    1.401   .     A
C101   C103    1.406   .     A
C101   C137    1.527   .     S
C102   C141    1.527   .     S
C102   C104    1.406   .     A
C103   C109    1.408   .     A
C103   C105    1.419   .     A
C104   C106    1.419   .     A
C104   C110    1.408   .     A
C105   C107    1.424   .     A
C105   C844    1.413   .     S
C106   C108    1.424   .     A
C106   C843    1.413   1_554 S
C107   C112    1.415   .     A
C108   C111    1.416   .     A
C109   C145    1.450   .     S
C109   C849    1.387   .     S
C110   C147    1.450   .     S
C110   C850    1.387   1_554 S
C111   C149    1.512   .     S
C111   C847    1.387   1_554 S
C112   C153    1.512   .     S
C112   C848    1.387   .     S
C113   C122    1.398   .     A
C113   H117    1.083   .     S
C114   H118    1.083   .     S
C114   C121    1.398   .     A
C114   C198    1.371   .     S
C115   C121    1.398   .     A
C115   H119    1.083   .     S
C115   C195    1.371   .     S
C116   C122    1.398   .     A
C116   H120    1.083   .     S
C123   N128    1.371   .     A
C123   C157    1.440   .     S
C123   C618    1.427   1_545 S
C124   N127    1.367   .     A
C124   C159    1.442   .     S
C124   C371    1.427   .     S
C125   C161    1.440   .     S
C125   N128    1.371   .     A
C125   C616    1.427   1_545 S
C126   C163    1.442   .     S
C126   N127    1.367   .     A
C126   C369    1.427   .     S
C129   H131    1.103   .     S
C129   H132    1.105   .     S
C129   H130    1.110   .     S
C133   H134    1.110   .     S
C133   H136    1.105   .     S
C133   H135    1.103   .     S
C137   H138    1.108   .     S
C137   H139    1.110   .     S
C137   H140    1.110   .     S
C141   H142    1.108   .     S
C141   H143    1.110   .     S
C141   H144    1.110   .     S
C145   N146    1.157   .     T
C147   N148    1.157   .     T
C149   H150    1.110   .     S
C149   H151    1.104   .     S
C149   H152    1.110   .     S
C153   H155    1.104   .     S
C153   H156    1.110   .     S
C153   H154    1.110   .     S
C157   N158    1.156   .     T
C159   N160    1.157   .     T
C161   N162    1.156   .     T
C163   N164    1.157   .     T
O165   Zn177   2.006   .     S
O165   C169    1.289   .     A
O166   C170    1.290   .     A
O166   Zn178   2.006   .     S
O167   C170    1.289   .     A
O167   Zn177   2.006   .     S
O168   C169    1.290   .     A
O168   Zn178   2.006   .     S
C169   C204    1.425   .     S
C170   C203    1.425   .     S
O171   C175    1.285   .     A
O171   Zn177   2.017   .     S
O172   C176    1.290   .     A
O172   Zn178   2.017   .     S
O173   Zn177   2.017   .     S
O173   C176    1.285   .     A
O174   Zn178   2.017   .     S
O174   C175    1.290   .     A
C175   C182    1.428   .     S
C176   C181    1.428   .     S
Zn177  N209    2.023   .     S
Zn178  N210    2.023   .     S
C179   C211    1.525   .     S
C179   C189    1.412   .     A
C179   C181    1.406   .     A
C180   C215    1.525   .     S
C180   C190    1.412   .     A
C180   C182    1.406   .     A
C181   C183    1.401   .     A
C182   C184    1.401   .     A
C183   C185    1.406   .     A
C183   C219    1.527   .     S
C184   C223    1.527   .     S
C184   C186    1.406   .     A
C185   C191    1.408   .     A
C185   C187    1.419   .     A
C186   C188    1.419   .     A
C186   C192    1.408   .     A
C187   C189    1.424   .     A
C187   C926    1.413   .     S
C188   C190    1.424   .     A
C188   C925    1.413   1_554 S
C189   C194    1.415   .     A
C190   C193    1.416   .     A
C191   C227    1.450   .     S
C191   C931    1.387   .     S
C192   C229    1.450   .     S
C192   C932    1.387   1_554 S
C193   C231    1.512   .     S
C193   C929    1.387   1_554 S
C194   C235    1.512   .     S
C194   C930    1.387   .     S
C195   C204    1.398   .     A
C195   H199    1.083   .     S
C196   H200    1.083   .     S
C196   C203    1.398   .     A
C196   C34     1.371   1_655 S
C197   C203    1.398   .     A
C197   H201    1.083   .     S
C197   C31     1.371   1_655 S
C198   C204    1.398   .     A
C198   H202    1.083   .     S
C205   N210    1.371   .     A
C205   C239    1.440   .     S
C205   C700    1.427   1_545 S
C206   N209    1.367   .     A
C206   C241    1.442   .     S
C206   C453    1.427   .     S
C207   C243    1.440   .     S
C207   N210    1.371   .     A
C207   C698    1.427   1_545 S
C208   C245    1.442   .     S
C208   N209    1.367   .     A
C208   C451    1.427   .     S
C211   H213    1.103   .     S
C211   H214    1.105   .     S
C211   H212    1.110   .     S
C215   H216    1.110   .     S
C215   H218    1.105   .     S
C215   H217    1.103   .     S
C219   H220    1.108   .     S
C219   H221    1.110   .     S
C219   H222    1.110   .     S
C223   H224    1.108   .     S
C223   H225    1.110   .     S
C223   H226    1.110   .     S
C227   N228    1.157   .     T
C229   N230    1.157   .     T
C231   H232    1.110   .     S
C231   H233    1.104   .     S
C231   H234    1.110   .     S
C235   H237    1.104   .     S
C235   H238    1.110   .     S
C235   H236    1.110   .     S
C239   N240    1.156   .     T
C241   N242    1.157   .     T
C243   N244    1.156   .     T
C245   N246    1.157   .     T
O247   Zn259   2.006   .     S
O247   C251    1.289   .     A
O248   C252    1.290   .     A
O248   Zn260   2.006   .     S
O249   C252    1.289   .     A
O249   Zn259   2.006   .     S
O250   C251    1.290   .     A
O250   Zn260   2.006   .     S
C251   C286    1.425   .     S
C252   C285    1.425   .     S
O253   C257    1.285   .     A
O253   Zn259   2.017   .     S
O254   C258    1.290   .     A
O254   Zn260   2.017   .     S
O255   Zn259   2.017   .     S
O255   C258    1.285   .     A
O256   Zn260   2.017   .     S
O256   C257    1.290   .     A
C257   C264    1.428   .     S
C258   C263    1.428   .     S
Zn259  N291    2.023   .     S
Zn260  N292    2.023   .     S
C261   C293    1.525   .     S
C261   C271    1.412   .     A
C261   C263    1.406   .     A
C262   C297    1.525   .     S
C262   C272    1.412   .     A
C262   C264    1.406   .     A
C263   C265    1.401   .     A
C264   C266    1.401   .     A
C265   C267    1.406   .     A
C265   C301    1.527   .     S
C266   C305    1.527   .     S
C266   C268    1.406   .     A
C267   C273    1.408   .     A
C267   C269    1.419   .     A
C268   C270    1.419   .     A
C268   C274    1.408   .     A
C269   C271    1.424   .     A
C269   C1008   1.413   .     S
C270   C272    1.424   .     A
C270   C1007   1.413   1_554 S
C271   C276    1.415   .     A
C272   C275    1.416   .     A
C273   C309    1.450   .     S
C273   C1013   1.387   .     S
C274   C311    1.450   .     S
C274   C1014   1.387   1_554 S
C275   C313    1.512   .     S
C275   C1011   1.387   1_554 S
C276   C317    1.512   .     S
C276   C1012   1.387   .     S
C277   C286    1.398   .     A
C277   H281    1.083   .     S
C277   C443    1.371   1_455 S
C278   H282    1.083   .     S
C278   C285    1.398   .     A
C278   C362    1.371   .     S
C279   C285    1.398   .     A
C279   H283    1.083   .     S
C279   C359    1.371   .     S
C280   C286    1.398   .     A
C280   H284    1.083   .     S
C280   C442    1.371   1_455 S
C287   N292    1.371   .     A
C287   C321    1.440   .     S
C288   N291    1.367   .     A
C288   C323    1.442   .     S
C288   C535    1.427   .     S
C289   C325    1.440   .     S
C289   N292    1.371   .     A
C290   C327    1.442   .     S
C290   N291    1.367   .     A
C290   C533    1.427   .     S
C293   H295    1.103   .     S
C293   H296    1.105   .     S
C293   H294    1.110   .     S
C297   H298    1.110   .     S
C297   H300    1.105   .     S
C297   H299    1.103   .     S
C301   H302    1.108   .     S
C301   H303    1.110   .     S
C301   H304    1.110   .     S
C305   H306    1.108   .     S
C305   H307    1.110   .     S
C305   H308    1.110   .     S
C309   N310    1.157   .     T
C311   N312    1.157   .     T
C313   H314    1.110   .     S
C313   H315    1.104   .     S
C313   H316    1.110   .     S
C317   H319    1.104   .     S
C317   H320    1.110   .     S
C317   H318    1.110   .     S
C321   N322    1.156   .     T
C323   N324    1.157   .     T
C325   N326    1.156   .     T
C327   N328    1.157   .     T
O329   Zn341   2.006   .     S
O329   C333    1.289   .     A
O330   C334    1.290   .     A
O330   Zn342   2.006   .     S
O331   C334    1.289   .     A
O331   Zn341   2.006   .     S
O332   C333    1.290   .     A
O332   Zn342   2.006   .     S
C333   C368    1.425   .     S
C334   C367    1.425   .     S
O335   C339    1.285   .     A
O335   Zn341   2.017   .     S
O336   C340    1.290   .     A
O336   Zn342   2.017   .     S
O337   Zn341   2.017   .     S
O337   C340    1.285   .     A
O338   Zn342   2.017   .     S
O338   C339    1.290   .     A
C339   C346    1.428   .     S
C340   C345    1.428   .     S
Zn341  N373    2.023   .     S
Zn342  N374    2.023   .     S
C343   C375    1.525   .     S
C343   C353    1.412   .     A
C343   C345    1.406   .     A
C344   C379    1.525   .     S
C344   C354    1.412   .     A
C344   C346    1.406   .     A
C345   C347    1.401   .     A
C346   C348    1.401   .     A
C347   C349    1.406   .     A
C347   C383    1.527   .     S
C348   C387    1.527   .     S
C348   C350    1.406   .     A
C349   C355    1.408   .     A
C349   C351    1.419   .     A
C350   C352    1.419   .     A
C350   C356    1.408   .     A
C351   C353    1.424   .     A
C351   C1090   1.413   .     S
C352   C354    1.424   .     A
C352   C1089   1.413   1_554 S
C353   C358    1.415   .     A
C354   C357    1.416   .     A
C355   C391    1.450   .     S
C355   C1095   1.387   .     S
C356   C393    1.450   .     S
C356   C1096   1.387   1_554 S
C357   C395    1.512   .     S
C357   C1093   1.387   1_554 S
C358   C399    1.512   .     S
C358   C1094   1.387   .     S
C359   C368    1.398   .     A
C359   H363    1.083   .     S
C360   H364    1.083   .     S
C360   C367    1.398   .     A
C360   C444    1.371   .     S
C361   C367    1.398   .     A
C361   H365    1.083   .     S
C361   C441    1.371   .     S
C362   C368    1.398   .     A
C362   H366    1.083   .     S
C369   N374    1.371   .     A
C369   C403    1.440   .     S
C370   N373    1.367   .     A
C370   C405    1.442   .     S
C370   C617    1.427   .     S
C371   C407    1.440   .     S
C371   N374    1.371   .     A
C372   C409    1.442   .     S
C372   N373    1.367   .     A
C372   C615    1.427   .     S
C375   H377    1.103   .     S
C375   H378    1.105   .     S
C375   H376    1.110   .     S
C379   H380    1.110   .     S
C379   H382    1.105   .     S
C379   H381    1.103   .     S
C383   H384    1.108   .     S
C383   H385    1.110   .     S
C383   H386    1.110   .     S
C387   H388    1.108   .     S
C387   H389    1.110   .     S
C387   H390    1.110   .     S
C391   N392    1.157   .     T
C393   N394    1.157   .     T
C395   H396    1.110   .     S
C395   H397    1.104   .     S
C395   H398    1.110   .     S
C399   H401    1.104   .     S
C399   H402    1.110   .     S
C399   H400    1.110   .     S
C403   N404    1.156   .     T
C405   N406    1.157   .     T
C407   N408    1.156   .     T
C409   N410    1.157   .     T
O411   Zn423   2.006   .     S
O411   C415    1.289   .     A
O412   C416    1.290   .     A
O412   Zn424   2.006   .     S
O413   C416    1.289   .     A
O413   Zn423   2.006   .     S
O414   C415    1.290   .     A
O414   Zn424   2.006   .     S
C415   C450    1.425   .     S
C416   C449    1.425   .     S
O417   C421    1.285   .     A
O417   Zn423   2.017   .     S
O418   C422    1.290   .     A
O418   Zn424   2.017   .     S
O419   Zn423   2.017   .     S
O419   C422    1.285   .     A
O420   Zn424   2.017   .     S
O420   C421    1.290   .     A
C421   C428    1.428   .     S
C422   C427    1.428   .     S
Zn423  N455    2.023   .     S
Zn424  N456    2.023   .     S
C425   C457    1.525   .     S
C425   C435    1.412   .     A
C425   C427    1.406   .     A
C426   C461    1.525   .     S
C426   C436    1.412   .     A
C426   C428    1.406   .     A
C427   C429    1.401   .     A
C428   C430    1.401   .     A
C429   C431    1.406   .     A
C429   C465    1.527   .     S
C430   C469    1.527   .     S
C430   C432    1.406   .     A
C431   C437    1.408   .     A
C431   C433    1.419   .     A
C432   C434    1.419   .     A
C432   C438    1.408   .     A
C433   C435    1.424   .     A
C433   C1172   1.413   .     S
C434   C436    1.424   .     A
C434   C1171   1.413   1_554 S
C435   C440    1.415   .     A
C436   C439    1.416   .     A
C437   C473    1.450   .     S
C437   C1177   1.387   .     S
C438   C475    1.450   .     S
C438   C1178   1.387   1_554 S
C439   C477    1.512   .     S
C439   C1175   1.387   1_554 S
C440   C481    1.512   .     S
C440   C1176   1.387   .     S
C441   C450    1.398   .     A
C441   H445    1.083   .     S
C442   H446    1.083   .     S
C442   C449    1.398   .     A
C442   C280    1.371   1_655 S
C443   C449    1.398   .     A
C443   H447    1.083   .     S
C443   C277    1.371   1_655 S
C444   C450    1.398   .     A
C444   H448    1.083   .     S
C451   N456    1.371   .     A
C451   C485    1.440   .     S
C452   N455    1.367   .     A
C452   C487    1.442   .     S
C452   C699    1.427   .     S
C453   C489    1.440   .     S
C453   N456    1.371   .     A
C454   C491    1.442   .     S
C454   N455    1.367   .     A
C454   C697    1.427   .     S
C457   H459    1.103   .     S
C457   H460    1.105   .     S
C457   H458    1.110   .     S
C461   H462    1.110   .     S
C461   H464    1.105   .     S
C461   H463    1.103   .     S
C465   H466    1.108   .     S
C465   H467    1.110   .     S
C465   H468    1.110   .     S
C469   H470    1.108   .     S
C469   H471    1.110   .     S
C469   H472    1.110   .     S
C473   N474    1.157   .     T
C475   N476    1.157   .     T
C477   H478    1.110   .     S
C477   H479    1.104   .     S
C477   H480    1.110   .     S
C481   H483    1.104   .     S
C481   H484    1.110   .     S
C481   H482    1.110   .     S
C485   N486    1.156   .     T
C487   N488    1.157   .     T
C489   N490    1.156   .     T
C491   N492    1.157   .     T
O493   Zn505   2.006   .     S
O493   C497    1.289   .     A
O494   C498    1.290   .     A
O494   Zn506   2.006   .     S
O495   C498    1.289   .     A
O495   Zn505   2.006   .     S
O496   C497    1.290   .     A
O496   Zn506   2.006   .     S
C497   C532    1.425   .     S
C498   C531    1.425   .     S
O499   C503    1.285   .     A
O499   Zn505   2.017   .     S
O500   C504    1.290   .     A
O500   Zn506   2.017   .     S
O501   Zn505   2.017   .     S
O501   C504    1.285   .     A
O502   Zn506   2.017   .     S
O502   C503    1.290   .     A
C503   C510    1.428   .     S
C504   C509    1.428   .     S
Zn505  N537    2.023   .     S
Zn506  N538    2.023   .     S
C507   C539    1.525   .     S
C507   C517    1.412   .     A
C507   C509    1.406   .     A
C508   C543    1.525   .     S
C508   C518    1.412   .     A
C508   C510    1.406   .     A
C509   C511    1.401   .     A
C510   C512    1.401   .     A
C511   C513    1.406   .     A
C511   C547    1.527   .     S
C512   C551    1.527   .     S
C512   C514    1.406   .     A
C513   C519    1.408   .     A
C513   C515    1.419   .     A
C514   C516    1.419   .     A
C514   C520    1.408   .     A
C515   C517    1.424   .     A
C515   C1254   1.413   .     S
C516   C518    1.424   .     A
C516   C1253   1.413   1_554 S
C517   C522    1.415   .     A
C518   C521    1.416   .     A
C519   C555    1.450   .     S
C519   C1259   1.387   .     S
C520   C557    1.450   .     S
C520   C1260   1.387   1_554 S
C521   C559    1.512   .     S
C521   C1257   1.387   1_554 S
C522   C563    1.512   .     S
C522   C1258   1.387   .     S
C523   C532    1.398   .     A
C523   H527    1.083   .     S
C523   C689    1.371   1_455 S
C524   H528    1.083   .     S
C524   C531    1.398   .     A
C524   C608    1.371   .     S
C525   C531    1.398   .     A
C525   H529    1.083   .     S
C525   C605    1.371   .     S
C526   C532    1.398   .     A
C526   H530    1.083   .     S
C526   C688    1.371   1_455 S
C533   N538    1.371   .     A
C533   C567    1.440   .     S
C534   N537    1.367   .     A
C534   C569    1.442   .     S
C534   C43     1.427   1_565 S
C535   C571    1.440   .     S
C535   N538    1.371   .     A
C536   C573    1.442   .     S
C536   N537    1.367   .     A
C536   C41     1.427   1_565 S
C539   H541    1.103   .     S
C539   H542    1.105   .     S
C539   H540    1.110   .     S
C543   H544    1.110   .     S
C543   H546    1.105   .     S
C543   H545    1.103   .     S
C547   H548    1.108   .     S
C547   H549    1.110   .     S
C547   H550    1.110   .     S
C551   H552    1.108   .     S
C551   H553    1.110   .     S
C551   H554    1.110   .     S
C555   N556    1.157   .     T
C557   N558    1.157   .     T
C559   H560    1.110   .     S
C559   H561    1.104   .     S
C559   H562    1.110   .     S
C563   H565    1.104   .     S
C563   H566    1.110   .     S
C563   H564    1.110   .     S
C567   N568    1.156   .     T
C569   N570    1.157   .     T
C571   N572    1.156   .     T
C573   N574    1.157   .     T
O575   Zn587   2.006   .     S
O575   C579    1.289   .     A
O576   C580    1.290   .     A
O576   Zn588   2.006   .     S
O577   C580    1.289   .     A
O577   Zn587   2.006   .     S
O578   C579    1.290   .     A
O578   Zn588   2.006   .     S
C579   C614    1.425   .     S
C580   C613    1.425   .     S
O581   C585    1.285   .     A
O581   Zn587   2.017   .     S
O582   C586    1.290   .     A
O582   Zn588   2.017   .     S
O583   Zn587   2.017   .     S
O583   C586    1.285   .     A
O584   Zn588   2.017   .     S
O584   C585    1.290   .     A
C585   C592    1.428   .     S
C586   C591    1.428   .     S
Zn587  N619    2.023   .     S
Zn588  N620    2.023   .     S
C589   C621    1.525   .     S
C589   C599    1.412   .     A
C589   C591    1.406   .     A
C590   C625    1.525   .     S
C590   C600    1.412   .     A
C590   C592    1.406   .     A
C591   C593    1.401   .     A
C592   C594    1.401   .     A
C593   C595    1.406   .     A
C593   C629    1.527   .     S
C594   C633    1.527   .     S
C594   C596    1.406   .     A
C595   C601    1.408   .     A
C595   C597    1.419   .     A
C596   C598    1.419   .     A
C596   C602    1.408   .     A
C597   C599    1.424   .     A
C597   C1336   1.413   .     S
C598   C600    1.424   .     A
C598   C1335   1.413   1_554 S
C599   C604    1.415   .     A
C600   C603    1.416   .     A
C601   C637    1.450   .     S
C601   C1341   1.387   .     S
C602   C639    1.450   .     S
C602   C1342   1.387   1_554 S
C603   C641    1.512   .     S
C603   C1339   1.387   1_554 S
C604   C645    1.512   .     S
C604   C1340   1.387   .     S
C605   C614    1.398   .     A
C605   H609    1.083   .     S
C606   H610    1.083   .     S
C606   C613    1.398   .     A
C606   C690    1.371   .     S
C607   C613    1.398   .     A
C607   H611    1.083   .     S
C607   C687    1.371   .     S
C608   C614    1.398   .     A
C608   H612    1.083   .     S
C615   N620    1.371   .     A
C615   C649    1.440   .     S
C616   N619    1.367   .     A
C616   C651    1.442   .     S
C616   C125    1.427   1_565 S
C617   C653    1.440   .     S
C617   N620    1.371   .     A
C618   C655    1.442   .     S
C618   N619    1.367   .     A
C618   C123    1.427   1_565 S
C621   H623    1.103   .     S
C621   H624    1.105   .     S
C621   H622    1.110   .     S
C625   H626    1.110   .     S
C625   H628    1.105   .     S
C625   H627    1.103   .     S
C629   H630    1.108   .     S
C629   H631    1.110   .     S
C629   H632    1.110   .     S
C633   H634    1.108   .     S
C633   H635    1.110   .     S
C633   H636    1.110   .     S
C637   N638    1.157   .     T
C639   N640    1.157   .     T
C641   H642    1.110   .     S
C641   H643    1.104   .     S
C641   H644    1.110   .     S
C645   H647    1.104   .     S
C645   H648    1.110   .     S
C645   H646    1.110   .     S
C649   N650    1.156   .     T
C651   N652    1.157   .     T
C653   N654    1.156   .     T
C655   N656    1.157   .     T
O657   Zn669   2.006   .     S
O657   C661    1.289   .     A
O658   C662    1.290   .     A
O658   Zn670   2.006   .     S
O659   C662    1.289   .     A
O659   Zn669   2.006   .     S
O660   C661    1.290   .     A
O660   Zn670   2.006   .     S
C661   C696    1.425   .     S
C662   C695    1.425   .     S
O663   C667    1.285   .     A
O663   Zn669   2.017   .     S
O664   C668    1.290   .     A
O664   Zn670   2.017   .     S
O665   Zn669   2.017   .     S
O665   C668    1.285   .     A
O666   Zn670   2.017   .     S
O666   C667    1.290   .     A
C667   C674    1.428   .     S
C668   C673    1.428   .     S
Zn669  N701    2.023   .     S
Zn670  N702    2.023   .     S
C671   C703    1.525   .     S
C671   C681    1.412   .     A
C671   C673    1.406   .     A
C672   C707    1.525   .     S
C672   C682    1.412   .     A
C672   C674    1.406   .     A
C673   C675    1.401   .     A
C674   C676    1.401   .     A
C675   C677    1.406   .     A
C675   C711    1.527   .     S
C676   C715    1.527   .     S
C676   C678    1.406   .     A
C677   C683    1.408   .     A
C677   C679    1.419   .     A
C678   C680    1.419   .     A
C678   C684    1.408   .     A
C679   C681    1.424   .     A
C679   C1418   1.413   .     S
C680   C682    1.424   .     A
C680   C1417   1.413   1_554 S
C681   C686    1.415   .     A
C682   C685    1.416   .     A
C683   C719    1.450   .     S
C683   C1423   1.387   .     S
C684   C721    1.450   .     S
C684   C1424   1.387   1_554 S
C685   C723    1.512   .     S
C685   C1421   1.387   1_554 S
C686   C727    1.512   .     S
C686   C1422   1.387   .     S
C687   C696    1.398   .     A
C687   H691    1.083   .     S
C688   H692    1.083   .     S
C688   C695    1.398   .     A
C688   C526    1.371   1_655 S
C689   C695    1.398   .     A
C689   H693    1.083   .     S
C689   C523    1.371   1_655 S
C690   C696    1.398   .     A
C690   H694    1.083   .     S
C697   N702    1.371   .     A
C697   C731    1.440   .     S
C698   N701    1.367   .     A
C698   C733    1.442   .     S
C698   C207    1.427   1_565 S
C699   C735    1.440   .     S
C699   N702    1.371   .     A
C700   C737    1.442   .     S
C700   N701    1.367   .     A
C700   C205    1.427   1_565 S
C703   H705    1.103   .     S
C703   H706    1.105   .     S
C703   H704    1.110   .     S
C707   H708    1.110   .     S
C707   H710    1.105   .     S
C707   H709    1.103   .     S
C711   H712    1.108   .     S
C711   H713    1.110   .     S
C711   H714    1.110   .     S
C715   H716    1.108   .     S
C715   H717    1.110   .     S
C715   H718    1.110   .     S
C719   N720    1.157   .     T
C721   N722    1.157   .     T
C723   H724    1.110   .     S
C723   H725    1.104   .     S
C723   H726    1.110   .     S
C727   H729    1.104   .     S
C727   H730    1.110   .     S
C727   H728    1.110   .     S
C731   N732    1.156   .     T
C733   N734    1.157   .     T
C735   N736    1.156   .     T
C737   N738    1.157   .     T
O739   Zn751   2.006   .     S
O739   C743    1.289   .     A
O740   C744    1.290   .     A
O740   Zn752   2.006   .     S
O741   C744    1.289   .     A
O741   Zn751   2.006   .     S
O742   C743    1.290   .     A
O742   Zn752   2.006   .     S
C743   C778    1.425   .     S
C744   C777    1.425   .     S
O745   C749    1.285   .     A
O745   Zn751   2.017   .     S
O746   C750    1.290   .     A
O746   Zn752   2.017   .     S
O747   Zn751   2.017   .     S
O747   C750    1.285   .     A
O748   Zn752   2.017   .     S
O748   C749    1.290   .     A
C749   C756    1.428   .     S
C750   C755    1.428   .     S
Zn751  N783    2.023   .     S
Zn752  N784    2.023   .     S
C753   C785    1.525   .     S
C753   C763    1.412   .     A
C753   C755    1.406   .     A
C754   C789    1.525   .     S
C754   C764    1.412   .     A
C754   C756    1.406   .     A
C755   C757    1.401   .     A
C756   C758    1.401   .     A
C757   C759    1.406   .     A
C757   C793    1.527   .     S
C758   C797    1.527   .     S
C758   C760    1.406   .     A
C759   C765    1.408   .     A
C759   C761    1.419   .     A
C760   C762    1.419   .     A
C760   C766    1.408   .     A
C761   C763    1.424   .     A
C761   C24     1.413   1_556 S
C762   C764    1.424   .     A
C763   C768    1.415   .     A
C764   C767    1.416   .     A
C765   C801    1.450   .     S
C765   C29     1.387   1_556 S
C766   C803    1.450   .     S
C767   C805    1.512   .     S
C768   C809    1.512   .     S
C768   C28     1.387   1_556 S
C769   C778    1.398   .     A
C769   H773    1.083   .     S
C769   C935    1.371   1_455 S
C770   H774    1.083   .     S
C770   C777    1.398   .     A
C770   C854    1.371   .     S
C771   C777    1.398   .     A
C771   H775    1.083   .     S
C771   C851    1.371   .     S
C772   C778    1.398   .     A
C772   H776    1.083   .     S
C772   C934    1.371   1_455 S
C779   N784    1.371   .     A
C779   C813    1.440   .     S
C779   C1274   1.427   1_545 S
C780   N783    1.367   .     A
C780   C815    1.442   .     S
C780   C1027   1.427   .     S
C781   C817    1.440   .     S
C781   N784    1.371   .     A
C781   C1272   1.427   1_545 S
C782   C819    1.442   .     S
C782   N783    1.367   .     A
C782   C1025   1.427   .     S
C785   H787    1.103   .     S
C785   H788    1.105   .     S
C785   H786    1.110   .     S
C789   H790    1.110   .     S
C789   H792    1.105   .     S
C789   H791    1.103   .     S
C793   H794    1.108   .     S
C793   H795    1.110   .     S
C793   H796    1.110   .     S
C797   H798    1.108   .     S
C797   H799    1.110   .     S
C797   H800    1.110   .     S
C801   N802    1.157   .     T
C803   N804    1.157   .     T
C805   H806    1.110   .     S
C805   H807    1.104   .     S
C805   H808    1.110   .     S
C809   H811    1.104   .     S
C809   H812    1.110   .     S
C809   H810    1.110   .     S
C813   N814    1.156   .     T
C815   N816    1.157   .     T
C817   N818    1.156   .     T
C819   N820    1.157   .     T
O821   Zn833   2.006   .     S
O821   C825    1.289   .     A
O822   C826    1.290   .     A
O822   Zn834   2.006   .     S
O823   C826    1.289   .     A
O823   Zn833   2.006   .     S
O824   C825    1.290   .     A
O824   Zn834   2.006   .     S
C825   C860    1.425   .     S
C826   C859    1.425   .     S
O827   C831    1.285   .     A
O827   Zn833   2.017   .     S
O828   C832    1.290   .     A
O828   Zn834   2.017   .     S
O829   Zn833   2.017   .     S
O829   C832    1.285   .     A
O830   Zn834   2.017   .     S
O830   C831    1.290   .     A
C831   C838    1.428   .     S
C832   C837    1.428   .     S
Zn833  N865    2.023   .     S
Zn834  N866    2.023   .     S
C835   C867    1.525   .     S
C835   C845    1.412   .     A
C835   C837    1.406   .     A
C836   C871    1.525   .     S
C836   C846    1.412   .     A
C836   C838    1.406   .     A
C837   C839    1.401   .     A
C838   C840    1.401   .     A
C839   C841    1.406   .     A
C839   C875    1.527   .     S
C840   C879    1.527   .     S
C840   C842    1.406   .     A
C841   C847    1.408   .     A
C841   C843    1.419   .     A
C842   C844    1.419   .     A
C842   C848    1.408   .     A
C843   C845    1.424   .     A
C843   C106    1.413   1_556 S
C844   C846    1.424   .     A
C845   C850    1.415   .     A
C846   C849    1.416   .     A
C847   C883    1.450   .     S
C847   C111    1.387   1_556 S
C848   C885    1.450   .     S
C849   C887    1.512   .     S
C850   C891    1.512   .     S
C850   C110    1.387   1_556 S
C851   C860    1.398   .     A
C851   H855    1.083   .     S
C852   H856    1.083   .     S
C852   C859    1.398   .     A
C852   C936    1.371   .     S
C853   C859    1.398   .     A
C853   H857    1.083   .     S
C853   C933    1.371   .     S
C854   C860    1.398   .     A
C854   H858    1.083   .     S
C861   N866    1.371   .     A
C861   C895    1.440   .     S
C861   C1356   1.427   1_545 S
C862   N865    1.367   .     A
C862   C897    1.442   .     S
C862   C1109   1.427   .     S
C863   C899    1.440   .     S
C863   N866    1.371   .     A
C863   C1354   1.427   1_545 S
C864   C901    1.442   .     S
C864   N865    1.367   .     A
C864   C1107   1.427   .     S
C867   H869    1.103   .     S
C867   H870    1.105   .     S
C867   H868    1.110   .     S
C871   H872    1.110   .     S
C871   H874    1.105   .     S
C871   H873    1.103   .     S
C875   H876    1.108   .     S
C875   H877    1.110   .     S
C875   H878    1.110   .     S
C879   H880    1.108   .     S
C879   H881    1.110   .     S
C879   H882    1.110   .     S
C883   N884    1.157   .     T
C885   N886    1.157   .     T
C887   H888    1.110   .     S
C887   H889    1.104   .     S
C887   H890    1.110   .     S
C891   H893    1.104   .     S
C891   H894    1.110   .     S
C891   H892    1.110   .     S
C895   N896    1.156   .     T
C897   N898    1.157   .     T
C899   N900    1.156   .     T
C901   N902    1.157   .     T
O903   Zn915   2.006   .     S
O903   C907    1.289   .     A
O904   C908    1.290   .     A
O904   Zn916   2.006   .     S
O905   C908    1.289   .     A
O905   Zn915   2.006   .     S
O906   C907    1.290   .     A
O906   Zn916   2.006   .     S
C907   C942    1.425   .     S
C908   C941    1.425   .     S
O909   C913    1.285   .     A
O909   Zn915   2.017   .     S
O910   C914    1.290   .     A
O910   Zn916   2.017   .     S
O911   Zn915   2.017   .     S
O911   C914    1.285   .     A
O912   Zn916   2.017   .     S
O912   C913    1.290   .     A
C913   C920    1.428   .     S
C914   C919    1.428   .     S
Zn915  N947    2.023   .     S
Zn916  N948    2.023   .     S
C917   C949    1.525   .     S
C917   C927    1.412   .     A
C917   C919    1.406   .     A
C918   C953    1.525   .     S
C918   C928    1.412   .     A
C918   C920    1.406   .     A
C919   C921    1.401   .     A
C920   C922    1.401   .     A
C921   C923    1.406   .     A
C921   C957    1.527   .     S
C922   C961    1.527   .     S
C922   C924    1.406   .     A
C923   C929    1.408   .     A
C923   C925    1.419   .     A
C924   C926    1.419   .     A
C924   C930    1.408   .     A
C925   C927    1.424   .     A
C925   C188    1.413   1_556 S
C926   C928    1.424   .     A
C927   C932    1.415   .     A
C928   C931    1.416   .     A
C929   C965    1.450   .     S
C929   C193    1.387   1_556 S
C930   C967    1.450   .     S
C931   C969    1.512   .     S
C932   C973    1.512   .     S
C932   C192    1.387   1_556 S
C933   C942    1.398   .     A
C933   H937    1.083   .     S
C934   H938    1.083   .     S
C934   C941    1.398   .     A
C934   C772    1.371   1_655 S
C935   C941    1.398   .     A
C935   H939    1.083   .     S
C935   C769    1.371   1_655 S
C936   C942    1.398   .     A
C936   H940    1.083   .     S
C943   N948    1.371   .     A
C943   C977    1.440   .     S
C943   C1438   1.427   1_545 S
C944   N947    1.367   .     A
C944   C979    1.442   .     S
C944   C1191   1.427   .     S
C945   C981    1.440   .     S
C945   N948    1.371   .     A
C945   C1436   1.427   1_545 S
C946   C983    1.442   .     S
C946   N947    1.367   .     A
C946   C1189   1.427   .     S
C949   H951    1.103   .     S
C949   H952    1.105   .     S
C949   H950    1.110   .     S
C953   H954    1.110   .     S
C953   H956    1.105   .     S
C953   H955    1.103   .     S
C957   H958    1.108   .     S
C957   H959    1.110   .     S
C957   H960    1.110   .     S
C961   H962    1.108   .     S
C961   H963    1.110   .     S
C961   H964    1.110   .     S
C965   N966    1.157   .     T
C967   N968    1.157   .     T
C969   H970    1.110   .     S
C969   H971    1.104   .     S
C969   H972    1.110   .     S
C973   H975    1.104   .     S
C973   H976    1.110   .     S
C973   H974    1.110   .     S
C977   N978    1.156   .     T
C979   N980    1.157   .     T
C981   N982    1.156   .     T
C983   N984    1.157   .     T
O985   Zn997   2.006   .     S
O985   C989    1.289   .     A
O986   C990    1.290   .     A
O986   Zn998   2.006   .     S
O987   C990    1.289   .     A
O987   Zn997   2.006   .     S
O988   C989    1.290   .     A
O988   Zn998   2.006   .     S
C989   C1024   1.425   .     S
C990   C1023   1.425   .     S
O991   C995    1.285   .     A
O991   Zn997   2.017   .     S
O992   C996    1.290   .     A
O992   Zn998   2.017   .     S
O993   Zn997   2.017   .     S
O993   C996    1.285   .     A
O994   Zn998   2.017   .     S
O994   C995    1.290   .     A
C995   C1002   1.428   .     S
C996   C1001   1.428   .     S
Zn997  N1029   2.023   .     S
Zn998  N1030   2.023   .     S
C999   C1031   1.525   .     S
C999   C1009   1.412   .     A
C999   C1001   1.406   .     A
C1000  C1035   1.525   .     S
C1000  C1010   1.412   .     A
C1000  C1002   1.406   .     A
C1001  C1003   1.401   .     A
C1002  C1004   1.401   .     A
C1003  C1005   1.406   .     A
C1003  C1039   1.527   .     S
C1004  C1043   1.527   .     S
C1004  C1006   1.406   .     A
C1005  C1011   1.408   .     A
C1005  C1007   1.419   .     A
C1006  C1008   1.419   .     A
C1006  C1012   1.408   .     A
C1007  C1009   1.424   .     A
C1007  C270    1.413   1_556 S
C1008  C1010   1.424   .     A
C1009  C1014   1.415   .     A
C1010  C1013   1.416   .     A
C1011  C1047   1.450   .     S
C1011  C275    1.387   1_556 S
C1012  C1049   1.450   .     S
C1013  C1051   1.512   .     S
C1014  C1055   1.512   .     S
C1014  C274    1.387   1_556 S
C1015  C1024   1.398   .     A
C1015  H1019   1.083   .     S
C1015  C1181   1.371   1_455 S
C1016  H1020   1.083   .     S
C1016  C1023   1.398   .     A
C1016  C1100   1.371   .     S
C1017  C1023   1.398   .     A
C1017  H1021   1.083   .     S
C1017  C1097   1.371   .     S
C1018  C1024   1.398   .     A
C1018  H1022   1.083   .     S
C1018  C1180   1.371   1_455 S
C1025  N1030   1.371   .     A
C1025  C1059   1.440   .     S
C1026  N1029   1.367   .     A
C1026  C1061   1.442   .     S
C1026  C1273   1.427   .     S
C1027  C1063   1.440   .     S
C1027  N1030   1.371   .     A
C1028  C1065   1.442   .     S
C1028  N1029   1.367   .     A
C1028  C1271   1.427   .     S
C1031  H1033   1.103   .     S
C1031  H1034   1.105   .     S
C1031  H1032   1.110   .     S
C1035  H1036   1.110   .     S
C1035  H1038   1.105   .     S
C1035  H1037   1.103   .     S
C1039  H1040   1.108   .     S
C1039  H1041   1.110   .     S
C1039  H1042   1.110   .     S
C1043  H1044   1.108   .     S
C1043  H1045   1.110   .     S
C1043  H1046   1.110   .     S
C1047  N1048   1.157   .     T
C1049  N1050   1.157   .     T
C1051  H1052   1.110   .     S
C1051  H1053   1.104   .     S
C1051  H1054   1.110   .     S
C1055  H1057   1.104   .     S
C1055  H1058   1.110   .     S
C1055  H1056   1.110   .     S
C1059  N1060   1.156   .     T
C1061  N1062   1.157   .     T
C1063  N1064   1.156   .     T
C1065  N1066   1.157   .     T
O1067  Zn1079  2.006   .     S
O1067  C1071   1.289   .     A
O1068  C1072   1.290   .     A
O1068  Zn1080  2.006   .     S
O1069  C1072   1.289   .     A
O1069  Zn1079  2.006   .     S
O1070  C1071   1.290   .     A
O1070  Zn1080  2.006   .     S
C1071  C1106   1.425   .     S
C1072  C1105   1.425   .     S
O1073  C1077   1.285   .     A
O1073  Zn1079  2.017   .     S
O1074  C1078   1.290   .     A
O1074  Zn1080  2.017   .     S
O1075  Zn1079  2.017   .     S
O1075  C1078   1.285   .     A
O1076  Zn1080  2.017   .     S
O1076  C1077   1.290   .     A
C1077  C1084   1.428   .     S
C1078  C1083   1.428   .     S
Zn1079 N1111   2.023   .     S
Zn1080 N1112   2.023   .     S
C1081  C1113   1.525   .     S
C1081  C1091   1.412   .     A
C1081  C1083   1.406   .     A
C1082  C1117   1.525   .     S
C1082  C1092   1.412   .     A
C1082  C1084   1.406   .     A
C1083  C1085   1.401   .     A
C1084  C1086   1.401   .     A
C1085  C1087   1.406   .     A
C1085  C1121   1.527   .     S
C1086  C1125   1.527   .     S
C1086  C1088   1.406   .     A
C1087  C1093   1.408   .     A
C1087  C1089   1.419   .     A
C1088  C1090   1.419   .     A
C1088  C1094   1.408   .     A
C1089  C1091   1.424   .     A
C1089  C352    1.413   1_556 S
C1090  C1092   1.424   .     A
C1091  C1096   1.415   .     A
C1092  C1095   1.416   .     A
C1093  C1129   1.450   .     S
C1093  C357    1.387   1_556 S
C1094  C1131   1.450   .     S
C1095  C1133   1.512   .     S
C1096  C1137   1.512   .     S
C1096  C356    1.387   1_556 S
C1097  C1106   1.398   .     A
C1097  H1101   1.083   .     S
C1098  H1102   1.083   .     S
C1098  C1105   1.398   .     A
C1098  C1182   1.371   .     S
C1099  C1105   1.398   .     A
C1099  H1103   1.083   .     S
C1099  C1179   1.371   .     S
C1100  C1106   1.398   .     A
C1100  H1104   1.083   .     S
C1107  N1112   1.371   .     A
C1107  C1141   1.440   .     S
C1108  N1111   1.367   .     A
C1108  C1143   1.442   .     S
C1108  C1355   1.427   .     S
C1109  C1145   1.440   .     S
C1109  N1112   1.371   .     A
C1110  C1147   1.442   .     S
C1110  N1111   1.367   .     A
C1110  C1353   1.427   .     S
C1113  H1115   1.103   .     S
C1113  H1116   1.105   .     S
C1113  H1114   1.110   .     S
C1117  H1118   1.110   .     S
C1117  H1120   1.105   .     S
C1117  H1119   1.103   .     S
C1121  H1122   1.108   .     S
C1121  H1123   1.110   .     S
C1121  H1124   1.110   .     S
C1125  H1126   1.108   .     S
C1125  H1127   1.110   .     S
C1125  H1128   1.110   .     S
C1129  N1130   1.157   .     T
C1131  N1132   1.157   .     T
C1133  H1134   1.110   .     S
C1133  H1135   1.104   .     S
C1133  H1136   1.110   .     S
C1137  H1139   1.104   .     S
C1137  H1140   1.110   .     S
C1137  H1138   1.110   .     S
C1141  N1142   1.156   .     T
C1143  N1144   1.157   .     T
C1145  N1146   1.156   .     T
C1147  N1148   1.157   .     T
O1149  Zn1161  2.006   .     S
O1149  C1153   1.289   .     A
O1150  C1154   1.290   .     A
O1150  Zn1162  2.006   .     S
O1151  C1154   1.289   .     A
O1151  Zn1161  2.006   .     S
O1152  C1153   1.290   .     A
O1152  Zn1162  2.006   .     S
C1153  C1188   1.425   .     S
C1154  C1187   1.425   .     S
O1155  C1159   1.285   .     A
O1155  Zn1161  2.017   .     S
O1156  C1160   1.290   .     A
O1156  Zn1162  2.017   .     S
O1157  Zn1161  2.017   .     S
O1157  C1160   1.285   .     A
O1158  Zn1162  2.017   .     S
O1158  C1159   1.290   .     A
C1159  C1166   1.428   .     S
C1160  C1165   1.428   .     S
Zn1161 N1193   2.023   .     S
Zn1162 N1194   2.023   .     S
C1163  C1195   1.525   .     S
C1163  C1173   1.412   .     A
C1163  C1165   1.406   .     A
C1164  C1199   1.525   .     S
C1164  C1174   1.412   .     A
C1164  C1166   1.406   .     A
C1165  C1167   1.401   .     A
C1166  C1168   1.401   .     A
C1167  C1169   1.406   .     A
C1167  C1203   1.527   .     S
C1168  C1207   1.527   .     S
C1168  C1170   1.406   .     A
C1169  C1175   1.408   .     A
C1169  C1171   1.419   .     A
C1170  C1172   1.419   .     A
C1170  C1176   1.408   .     A
C1171  C1173   1.424   .     A
C1171  C434    1.413   1_556 S
C1172  C1174   1.424   .     A
C1173  C1178   1.415   .     A
C1174  C1177   1.416   .     A
C1175  C1211   1.450   .     S
C1175  C439    1.387   1_556 S
C1176  C1213   1.450   .     S
C1177  C1215   1.512   .     S
C1178  C1219   1.512   .     S
C1178  C438    1.387   1_556 S
C1179  C1188   1.398   .     A
C1179  H1183   1.083   .     S
C1180  H1184   1.083   .     S
C1180  C1187   1.398   .     A
C1180  C1018   1.371   1_655 S
C1181  C1187   1.398   .     A
C1181  H1185   1.083   .     S
C1181  C1015   1.371   1_655 S
C1182  C1188   1.398   .     A
C1182  H1186   1.083   .     S
C1189  N1194   1.371   .     A
C1189  C1223   1.440   .     S
C1190  N1193   1.367   .     A
C1190  C1225   1.442   .     S
C1190  C1437   1.427   .     S
C1191  C1227   1.440   .     S
C1191  N1194   1.371   .     A
C1192  C1229   1.442   .     S
C1192  N1193   1.367   .     A
C1192  C1435   1.427   .     S
C1195  H1197   1.103   .     S
C1195  H1198   1.105   .     S
C1195  H1196   1.110   .     S
C1199  H1200   1.110   .     S
C1199  H1202   1.105   .     S
C1199  H1201   1.103   .     S
C1203  H1204   1.108   .     S
C1203  H1205   1.110   .     S
C1203  H1206   1.110   .     S
C1207  H1208   1.108   .     S
C1207  H1209   1.110   .     S
C1207  H1210   1.110   .     S
C1211  N1212   1.157   .     T
C1213  N1214   1.157   .     T
C1215  H1216   1.110   .     S
C1215  H1217   1.104   .     S
C1215  H1218   1.110   .     S
C1219  H1221   1.104   .     S
C1219  H1222   1.110   .     S
C1219  H1220   1.110   .     S
C1223  N1224   1.156   .     T
C1225  N1226   1.157   .     T
C1227  N1228   1.156   .     T
C1229  N1230   1.157   .     T
O1231  Zn1243  2.006   .     S
O1231  C1235   1.289   .     A
O1232  C1236   1.290   .     A
O1232  Zn1244  2.006   .     S
O1233  C1236   1.289   .     A
O1233  Zn1243  2.006   .     S
O1234  C1235   1.290   .     A
O1234  Zn1244  2.006   .     S
C1235  C1270   1.425   .     S
C1236  C1269   1.425   .     S
O1237  C1241   1.285   .     A
O1237  Zn1243  2.017   .     S
O1238  C1242   1.290   .     A
O1238  Zn1244  2.017   .     S
O1239  Zn1243  2.017   .     S
O1239  C1242   1.285   .     A
O1240  Zn1244  2.017   .     S
O1240  C1241   1.290   .     A
C1241  C1248   1.428   .     S
C1242  C1247   1.428   .     S
Zn1243 N1275   2.023   .     S
Zn1244 N1276   2.023   .     S
C1245  C1277   1.525   .     S
C1245  C1255   1.412   .     A
C1245  C1247   1.406   .     A
C1246  C1281   1.525   .     S
C1246  C1256   1.412   .     A
C1246  C1248   1.406   .     A
C1247  C1249   1.401   .     A
C1248  C1250   1.401   .     A
C1249  C1251   1.406   .     A
C1249  C1285   1.527   .     S
C1250  C1289   1.527   .     S
C1250  C1252   1.406   .     A
C1251  C1257   1.408   .     A
C1251  C1253   1.419   .     A
C1252  C1254   1.419   .     A
C1252  C1258   1.408   .     A
C1253  C1255   1.424   .     A
C1253  C516    1.413   1_556 S
C1254  C1256   1.424   .     A
C1255  C1260   1.415   .     A
C1256  C1259   1.416   .     A
C1257  C1293   1.450   .     S
C1257  C521    1.387   1_556 S
C1258  C1295   1.450   .     S
C1259  C1297   1.512   .     S
C1260  C1301   1.512   .     S
C1260  C520    1.387   1_556 S
C1261  C1270   1.398   .     A
C1261  H1265   1.083   .     S
C1261  C1427   1.371   1_455 S
C1262  H1266   1.083   .     S
C1262  C1269   1.398   .     A
C1262  C1346   1.371   .     S
C1263  C1269   1.398   .     A
C1263  H1267   1.083   .     S
C1263  C1343   1.371   .     S
C1264  C1270   1.398   .     A
C1264  H1268   1.083   .     S
C1264  C1426   1.371   1_455 S
C1271  N1276   1.371   .     A
C1271  C1305   1.440   .     S
C1272  N1275   1.367   .     A
C1272  C1307   1.442   .     S
C1272  C781    1.427   1_565 S
C1273  C1309   1.440   .     S
C1273  N1276   1.371   .     A
C1274  C1311   1.442   .     S
C1274  N1275   1.367   .     A
C1274  C779    1.427   1_565 S
C1277  H1279   1.103   .     S
C1277  H1280   1.105   .     S
C1277  H1278   1.110   .     S
C1281  H1282   1.110   .     S
C1281  H1284   1.105   .     S
C1281  H1283   1.103   .     S
C1285  H1286   1.108   .     S
C1285  H1287   1.110   .     S
C1285  H1288   1.110   .     S
C1289  H1290   1.108   .     S
C1289  H1291   1.110   .     S
C1289  H1292   1.110   .     S
C1293  N1294   1.157   .     T
C1295  N1296   1.157   .     T
C1297  H1298   1.110   .     S
C1297  H1299   1.104   .     S
C1297  H1300   1.110   .     S
C1301  H1303   1.104   .     S
C1301  H1304   1.110   .     S
C1301  H1302   1.110   .     S
C1305  N1306   1.156   .     T
C1307  N1308   1.157   .     T
C1309  N1310   1.156   .     T
C1311  N1312   1.157   .     T
O1313  Zn1325  2.006   .     S
O1313  C1317   1.289   .     A
O1314  C1318   1.290   .     A
O1314  Zn1326  2.006   .     S
O1315  C1318   1.289   .     A
O1315  Zn1325  2.006   .     S
O1316  C1317   1.290   .     A
O1316  Zn1326  2.006   .     S
C1317  C1352   1.425   .     S
C1318  C1351   1.425   .     S
O1319  C1323   1.285   .     A
O1319  Zn1325  2.017   .     S
O1320  C1324   1.290   .     A
O1320  Zn1326  2.017   .     S
O1321  Zn1325  2.017   .     S
O1321  C1324   1.285   .     A
O1322  Zn1326  2.017   .     S
O1322  C1323   1.290   .     A
C1323  C1330   1.428   .     S
C1324  C1329   1.428   .     S
Zn1325 N1357   2.023   .     S
Zn1326 N1358   2.023   .     S
C1327  C1359   1.525   .     S
C1327  C1337   1.412   .     A
C1327  C1329   1.406   .     A
C1328  C1363   1.525   .     S
C1328  C1338   1.412   .     A
C1328  C1330   1.406   .     A
C1329  C1331   1.401   .     A
C1330  C1332   1.401   .     A
C1331  C1333   1.406   .     A
C1331  C1367   1.527   .     S
C1332  C1371   1.527   .     S
C1332  C1334   1.406   .     A
C1333  C1339   1.408   .     A
C1333  C1335   1.419   .     A
C1334  C1336   1.419   .     A
C1334  C1340   1.408   .     A
C1335  C1337   1.424   .     A
C1335  C598    1.413   1_556 S
C1336  C1338   1.424   .     A
C1337  C1342   1.415   .     A
C1338  C1341   1.416   .     A
C1339  C1375   1.450   .     S
C1339  C603    1.387   1_556 S
C1340  C1377   1.450   .     S
C1341  C1379   1.512   .     S
C1342  C1383   1.512   .     S
C1342  C602    1.387   1_556 S
C1343  C1352   1.398   .     A
C1343  H1347   1.083   .     S
C1344  H1348   1.083   .     S
C1344  C1351   1.398   .     A
C1344  C1428   1.371   .     S
C1345  C1351   1.398   .     A
C1345  H1349   1.083   .     S
C1345  C1425   1.371   .     S
C1346  C1352   1.398   .     A
C1346  H1350   1.083   .     S
C1353  N1358   1.371   .     A
C1353  C1387   1.440   .     S
C1354  N1357   1.367   .     A
C1354  C1389   1.442   .     S
C1354  C863    1.427   1_565 S
C1355  C1391   1.440   .     S
C1355  N1358   1.371   .     A
C1356  C1393   1.442   .     S
C1356  N1357   1.367   .     A
C1356  C861    1.427   1_565 S
C1359  H1361   1.103   .     S
C1359  H1362   1.105   .     S
C1359  H1360   1.110   .     S
C1363  H1364   1.110   .     S
C1363  H1366   1.105   .     S
C1363  H1365   1.103   .     S
C1367  H1368   1.108   .     S
C1367  H1369   1.110   .     S
C1367  H1370   1.110   .     S
C1371  H1372   1.108   .     S
C1371  H1373   1.110   .     S
C1371  H1374   1.110   .     S
C1375  N1376   1.157   .     T
C1377  N1378   1.157   .     T
C1379  H1380   1.110   .     S
C1379  H1381   1.104   .     S
C1379  H1382   1.110   .     S
C1383  H1385   1.104   .     S
C1383  H1386   1.110   .     S
C1383  H1384   1.110   .     S
C1387  N1388   1.156   .     T
C1389  N1390   1.157   .     T
C1391  N1392   1.156   .     T
C1393  N1394   1.157   .     T
O1395  Zn1407  2.006   .     S
O1395  C1399   1.289   .     A
O1396  C1400   1.290   .     A
O1396  Zn1408  2.006   .     S
O1397  C1400   1.289   .     A
O1397  Zn1407  2.006   .     S
O1398  C1399   1.290   .     A
O1398  Zn1408  2.006   .     S
C1399  C1434   1.425   .     S
C1400  C1433   1.425   .     S
O1401  C1405   1.285   .     A
O1401  Zn1407  2.017   .     S
O1402  C1406   1.290   .     A
O1402  Zn1408  2.017   .     S
O1403  Zn1407  2.017   .     S
O1403  C1406   1.285   .     A
O1404  Zn1408  2.017   .     S
O1404  C1405   1.290   .     A
C1405  C1412   1.428   .     S
C1406  C1411   1.428   .     S
Zn1407 N1439   2.023   .     S
Zn1408 N1440   2.023   .     S
C1409  C1441   1.525   .     S
C1409  C1419   1.412   .     A
C1409  C1411   1.406   .     A
C1410  C1445   1.525   .     S
C1410  C1420   1.412   .     A
C1410  C1412   1.406   .     A
C1411  C1413   1.401   .     A
C1412  C1414   1.401   .     A
C1413  C1415   1.406   .     A
C1413  C1449   1.527   .     S
C1414  C1453   1.527   .     S
C1414  C1416   1.406   .     A
C1415  C1421   1.408   .     A
C1415  C1417   1.419   .     A
C1416  C1418   1.419   .     A
C1416  C1422   1.408   .     A
C1417  C1419   1.424   .     A
C1417  C680    1.413   1_556 S
C1418  C1420   1.424   .     A
C1419  C1424   1.415   .     A
C1420  C1423   1.416   .     A
C1421  C1457   1.450   .     S
C1421  C685    1.387   1_556 S
C1422  C1459   1.450   .     S
C1423  C1461   1.512   .     S
C1424  C1465   1.512   .     S
C1424  C684    1.387   1_556 S
C1425  C1434   1.398   .     A
C1425  H1429   1.083   .     S
C1426  H1430   1.083   .     S
C1426  C1433   1.398   .     A
C1426  C1264   1.371   1_655 S
C1427  C1433   1.398   .     A
C1427  H1431   1.083   .     S
C1427  C1261   1.371   1_655 S
C1428  C1434   1.398   .     A
C1428  H1432   1.083   .     S
C1435  N1440   1.371   .     A
C1435  C1469   1.440   .     S
C1436  N1439   1.367   .     A
C1436  C1471   1.442   .     S
C1436  C945    1.427   1_565 S
C1437  C1473   1.440   .     S
C1437  N1440   1.371   .     A
C1438  C1475   1.442   .     S
C1438  N1439   1.367   .     A
C1438  C943    1.427   1_565 S
C1441  H1443   1.103   .     S
C1441  H1444   1.105   .     S
C1441  H1442   1.110   .     S
C1445  H1446   1.110   .     S
C1445  H1448   1.105   .     S
C1445  H1447   1.103   .     S
C1449  H1450   1.108   .     S
C1449  H1451   1.110   .     S
C1449  H1452   1.110   .     S
C1453  H1454   1.108   .     S
C1453  H1455   1.110   .     S
C1453  H1456   1.110   .     S
C1457  N1458   1.157   .     T
C1459  N1460   1.157   .     T
C1461  H1462   1.110   .     S
C1461  H1463   1.104   .     S
C1461  H1464   1.110   .     S
C1465  H1467   1.104   .     S
C1465  H1468   1.110   .     S
C1465  H1466   1.110   .     S
C1469  N1470   1.156   .     T
C1471  N1472   1.157   .     T
C1473  N1474   1.156   .     T
C1475  N1476   1.157   .     T
