data_str_m3_o2_o5_pcu_sym.52
_audit_creation_date              2020-01-03
_audit_creation_method            'Materials Studio'
_symmetry_space_group_name_H-M    'P1'
_symmetry_Int_Tables_number       1
_symmetry_cell_setting            triclinic
loop_
_symmetry_equiv_pos_as_xyz
  x,y,z
_cell_length_a                    29.9658
_cell_length_b                    28.5713
_cell_length_c                    26.7242
_cell_angle_alpha                 89.9202
_cell_angle_beta                  91.5138
_cell_angle_gamma                 90.1518
loop_
_atom_site_label
_atom_site_type_symbol
_atom_site_fract_x
_atom_site_fract_y
_atom_site_fract_z
_atom_site_U_iso_or_equiv
_atom_site_adp_type
_atom_site_occupancy
O1     O     0.18453   0.28974   0.16667   0.00000  Uiso   1.00
O2     O     0.31547   0.21026   0.16666   0.00000  Uiso   1.00
O3     O     0.31547   0.28974   0.16666   0.00000  Uiso   1.00
O4     O     0.18453   0.21026   0.16667   0.00000  Uiso   1.00
C5     C     0.16385   0.24986   0.16753   0.00000  Uiso   1.00
C6     C     0.33588   0.25000   0.16700   0.00000  Uiso   1.00
O7     O     0.25000   0.28973   0.09511   0.00000  Uiso   1.00
O8     O     0.25000   0.21027   0.23822   0.00000  Uiso   1.00
O9     O     0.25000   0.28973   0.23822   0.00000  Uiso   1.00
O10    O     0.25000   0.21027   0.09511   0.00000  Uiso   1.00
C11    C     0.23121   0.05219   0.12697   0.00000  Uiso   1.00
C12    C     0.28561   0.44775   0.18871   0.00000  Uiso   1.00
C13    C     0.26980   0.05244   0.20645   0.00000  Uiso   1.00
C14    C     0.21507   0.44805   0.14509   0.00000  Uiso   1.00
C15    C     0.24993   0.25001   0.07293   0.00000  Uiso   1.00
C16    C     0.25011   0.24997   0.26040   0.00000  Uiso   1.00
Zn17   Zn    0.25000   0.30307   0.16667   0.00000  Uiso   1.00
Zn18   Zn    0.25000   0.19693   0.16667   0.00000  Uiso   1.00
N19    N     0.25000   0.12624   0.16667   0.00000  Uiso   1.00
N20    N     0.25000   0.37377   0.16667   0.00000  Uiso   1.00
C21    C     0.25054   0.02661   0.16679   0.00000  Uiso   1.00
C22    C     0.25044   0.47360   0.16694   0.00000  Uiso   1.00
C23    C     0.25000   0.25000   0.02181   0.00000  Uiso   1.00
C24    C     0.25007   0.24995   0.31153   0.00000  Uiso   1.00
C25    C     0.04653   0.29052   0.17877   0.00000  Uiso   1.00
C26    C     0.45254   0.21901   0.14031   0.00000  Uiso   1.00
C27    C     0.45218   0.27638   0.20763   0.00000  Uiso   1.00
C28    C     0.04705   0.20559   0.17308   0.00000  Uiso   1.00
H29    H     0.02878   0.32339   0.18115   0.00000  Uiso   1.00
H30    H     0.47024   0.19694   0.11459   0.00000  Uiso   1.00
H31    H     0.46960   0.29777   0.23534   0.00000  Uiso   1.00
H32    H     0.02971   0.17226   0.17225   0.00000  Uiso   1.00
C33    C     0.09252   0.29118   0.17655   0.00000  Uiso   1.00
C34    C     0.40646   0.21987   0.13767   0.00000  Uiso   1.00
C35    C     0.40612   0.27770   0.20441   0.00000  Uiso   1.00
C36    C     0.09297   0.20630   0.17012   0.00000  Uiso   1.00
H37    H     0.10968   0.32442   0.17902   0.00000  Uiso   1.00
H38    H     0.38875   0.19801   0.11058   0.00000  Uiso   1.00
H39    H     0.38814   0.29958   0.22998   0.00000  Uiso   1.00
H40    H     0.11040   0.17333   0.16691   0.00000  Uiso   1.00
C41    C     0.11581   0.24919   0.17106   0.00000  Uiso   1.00
C42    C     0.38353   0.24968   0.16925   0.00000  Uiso   1.00
C43    C     0.02373   0.24775   0.17650   0.00000  Uiso   1.00
C44    C     0.47546   0.24732   0.17527   0.00000  Uiso   1.00
C45    C     0.23049   0.10159   0.12762   0.00000  Uiso   1.00
C46    C     0.28481   0.39829   0.18896   0.00000  Uiso   1.00
C47    C     0.26998   0.10187   0.20563   0.00000  Uiso   1.00
C48    C     0.21538   0.39861   0.14438   0.00000  Uiso   1.00
H49    H     0.21639   0.03406   0.09508   0.00000  Uiso   1.00
H50    H     0.31400   0.46573   0.20572   0.00000  Uiso   1.00
H51    H     0.28494   0.03450   0.23828   0.00000  Uiso   1.00
H52    H     0.18692   0.46634   0.12813   0.00000  Uiso   1.00
N53    N     0.20888   0.12533   0.08664   0.00000  Uiso   1.00
O54    O     0.17229   0.14833   0.09398   0.00000  Uiso   1.00
O55    O     0.21886   0.11434   0.04108   0.00000  Uiso   1.00
N56    N     0.32122   0.37443   0.21308   0.00000  Uiso   1.00
O57    O     0.31471   0.35223   0.25474   0.00000  Uiso   1.00
O58    O     0.36184   0.38537   0.20147   0.00000  Uiso   1.00
N59    N     0.29190   0.12597   0.24615   0.00000  Uiso   1.00
O60    O     0.32932   0.14760   0.23856   0.00000  Uiso   1.00
O61    O     0.28128   0.11615   0.29186   0.00000  Uiso   1.00
N62    N     0.17885   0.37535   0.11930   0.00000  Uiso   1.00
O63    O     0.18635   0.34967   0.08038   0.00000  Uiso   1.00
O64    O     0.13848   0.39060   0.12546   0.00000  Uiso   1.00
O65    O     0.68453   0.28974   0.16667   0.00000  Uiso   1.00
O66    O     0.81547   0.21026   0.16666   0.00000  Uiso   1.00
O67    O     0.81547   0.28974   0.16666   0.00000  Uiso   1.00
O68    O     0.68453   0.21026   0.16667   0.00000  Uiso   1.00
C69    C     0.66385   0.24986   0.16753   0.00000  Uiso   1.00
C70    C     0.83588   0.25000   0.16700   0.00000  Uiso   1.00
O71    O     0.75000   0.28973   0.09511   0.00000  Uiso   1.00
O72    O     0.75000   0.21027   0.23822   0.00000  Uiso   1.00
O73    O     0.75000   0.28973   0.23822   0.00000  Uiso   1.00
O74    O     0.75000   0.21027   0.09511   0.00000  Uiso   1.00
C75    C     0.73121   0.05219   0.12697   0.00000  Uiso   1.00
C76    C     0.78561   0.44775   0.18871   0.00000  Uiso   1.00
C77    C     0.76980   0.05244   0.20645   0.00000  Uiso   1.00
C78    C     0.71507   0.44805   0.14509   0.00000  Uiso   1.00
C79    C     0.74993   0.25001   0.07293   0.00000  Uiso   1.00
C80    C     0.75011   0.24997   0.26040   0.00000  Uiso   1.00
Zn81   Zn    0.75000   0.30307   0.16667   0.00000  Uiso   1.00
Zn82   Zn    0.75000   0.19693   0.16667   0.00000  Uiso   1.00
N83    N     0.75000   0.12624   0.16667   0.00000  Uiso   1.00
N84    N     0.75000   0.37377   0.16667   0.00000  Uiso   1.00
C85    C     0.75054   0.02661   0.16679   0.00000  Uiso   1.00
C86    C     0.75044   0.47360   0.16694   0.00000  Uiso   1.00
C87    C     0.75000   0.25000   0.02181   0.00000  Uiso   1.00
C88    C     0.75007   0.24995   0.31153   0.00000  Uiso   1.00
C89    C     0.54653   0.29052   0.17877   0.00000  Uiso   1.00
C90    C     0.95254   0.21901   0.14031   0.00000  Uiso   1.00
C91    C     0.95218   0.27638   0.20763   0.00000  Uiso   1.00
C92    C     0.54705   0.20559   0.17308   0.00000  Uiso   1.00
H93    H     0.52878   0.32339   0.18115   0.00000  Uiso   1.00
H94    H     0.97024   0.19694   0.11459   0.00000  Uiso   1.00
H95    H     0.96960   0.29777   0.23534   0.00000  Uiso   1.00
H96    H     0.52971   0.17226   0.17225   0.00000  Uiso   1.00
C97    C     0.59252   0.29118   0.17655   0.00000  Uiso   1.00
C98    C     0.90646   0.21987   0.13767   0.00000  Uiso   1.00
C99    C     0.90612   0.27770   0.20441   0.00000  Uiso   1.00
C100   C     0.59297   0.20630   0.17012   0.00000  Uiso   1.00
H101   H     0.60968   0.32442   0.17902   0.00000  Uiso   1.00
H102   H     0.88875   0.19801   0.11058   0.00000  Uiso   1.00
H103   H     0.88814   0.29958   0.22998   0.00000  Uiso   1.00
H104   H     0.61040   0.17333   0.16691   0.00000  Uiso   1.00
C105   C     0.61581   0.24919   0.17106   0.00000  Uiso   1.00
C106   C     0.88353   0.24968   0.16925   0.00000  Uiso   1.00
C107   C     0.52373   0.24775   0.17650   0.00000  Uiso   1.00
C108   C     0.97546   0.24732   0.17527   0.00000  Uiso   1.00
C109   C     0.73049   0.10159   0.12762   0.00000  Uiso   1.00
C110   C     0.78481   0.39829   0.18896   0.00000  Uiso   1.00
C111   C     0.76998   0.10187   0.20563   0.00000  Uiso   1.00
C112   C     0.71538   0.39861   0.14438   0.00000  Uiso   1.00
H113   H     0.71639   0.03406   0.09508   0.00000  Uiso   1.00
H114   H     0.81400   0.46573   0.20572   0.00000  Uiso   1.00
H115   H     0.78494   0.03450   0.23828   0.00000  Uiso   1.00
H116   H     0.68692   0.46634   0.12813   0.00000  Uiso   1.00
N117   N     0.70888   0.12533   0.08664   0.00000  Uiso   1.00
O118   O     0.67229   0.14833   0.09398   0.00000  Uiso   1.00
O119   O     0.71886   0.11434   0.04108   0.00000  Uiso   1.00
N120   N     0.82122   0.37443   0.21308   0.00000  Uiso   1.00
O121   O     0.81471   0.35223   0.25474   0.00000  Uiso   1.00
O122   O     0.86184   0.38537   0.20147   0.00000  Uiso   1.00
N123   N     0.79190   0.12597   0.24615   0.00000  Uiso   1.00
O124   O     0.82932   0.14760   0.23856   0.00000  Uiso   1.00
O125   O     0.78128   0.11615   0.29186   0.00000  Uiso   1.00
N126   N     0.67885   0.37535   0.11930   0.00000  Uiso   1.00
O127   O     0.68635   0.34967   0.08038   0.00000  Uiso   1.00
O128   O     0.63848   0.39060   0.12546   0.00000  Uiso   1.00
O129   O     0.18453   0.78974   0.16667   0.00000  Uiso   1.00
O130   O     0.31547   0.71026   0.16666   0.00000  Uiso   1.00
O131   O     0.31547   0.78974   0.16666   0.00000  Uiso   1.00
O132   O     0.18453   0.71026   0.16667   0.00000  Uiso   1.00
C133   C     0.16385   0.74986   0.16753   0.00000  Uiso   1.00
C134   C     0.33588   0.75000   0.16700   0.00000  Uiso   1.00
O135   O     0.25000   0.78973   0.09511   0.00000  Uiso   1.00
O136   O     0.25000   0.71027   0.23822   0.00000  Uiso   1.00
O137   O     0.25000   0.78973   0.23822   0.00000  Uiso   1.00
O138   O     0.25000   0.71027   0.09511   0.00000  Uiso   1.00
C139   C     0.23121   0.55219   0.12697   0.00000  Uiso   1.00
C140   C     0.28561   0.94775   0.18871   0.00000  Uiso   1.00
C141   C     0.26980   0.55244   0.20645   0.00000  Uiso   1.00
C142   C     0.21507   0.94805   0.14509   0.00000  Uiso   1.00
C143   C     0.24993   0.75001   0.07293   0.00000  Uiso   1.00
C144   C     0.25011   0.74997   0.26040   0.00000  Uiso   1.00
Zn145  Zn    0.25000   0.80307   0.16667   0.00000  Uiso   1.00
Zn146  Zn    0.25000   0.69693   0.16667   0.00000  Uiso   1.00
N147   N     0.25000   0.62624   0.16667   0.00000  Uiso   1.00
N148   N     0.25000   0.87377   0.16667   0.00000  Uiso   1.00
C149   C     0.25054   0.52661   0.16679   0.00000  Uiso   1.00
C150   C     0.25044   0.97360   0.16694   0.00000  Uiso   1.00
C151   C     0.25000   0.75000   0.02181   0.00000  Uiso   1.00
C152   C     0.25007   0.74995   0.31153   0.00000  Uiso   1.00
C153   C     0.04653   0.79052   0.17877   0.00000  Uiso   1.00
C154   C     0.45254   0.71901   0.14031   0.00000  Uiso   1.00
C155   C     0.45218   0.77638   0.20763   0.00000  Uiso   1.00
C156   C     0.04705   0.70559   0.17308   0.00000  Uiso   1.00
H157   H     0.02878   0.82339   0.18115   0.00000  Uiso   1.00
H158   H     0.47024   0.69694   0.11459   0.00000  Uiso   1.00
H159   H     0.46960   0.79777   0.23534   0.00000  Uiso   1.00
H160   H     0.02971   0.67226   0.17225   0.00000  Uiso   1.00
C161   C     0.09252   0.79118   0.17655   0.00000  Uiso   1.00
C162   C     0.40646   0.71987   0.13767   0.00000  Uiso   1.00
C163   C     0.40612   0.77770   0.20441   0.00000  Uiso   1.00
C164   C     0.09297   0.70630   0.17012   0.00000  Uiso   1.00
H165   H     0.10968   0.82442   0.17902   0.00000  Uiso   1.00
H166   H     0.38875   0.69801   0.11058   0.00000  Uiso   1.00
H167   H     0.38814   0.79958   0.22998   0.00000  Uiso   1.00
H168   H     0.11040   0.67333   0.16691   0.00000  Uiso   1.00
C169   C     0.11581   0.74919   0.17106   0.00000  Uiso   1.00
C170   C     0.38353   0.74968   0.16925   0.00000  Uiso   1.00
C171   C     0.02373   0.74775   0.17650   0.00000  Uiso   1.00
C172   C     0.47546   0.74732   0.17527   0.00000  Uiso   1.00
C173   C     0.23049   0.60159   0.12762   0.00000  Uiso   1.00
C174   C     0.28481   0.89829   0.18896   0.00000  Uiso   1.00
C175   C     0.26998   0.60187   0.20563   0.00000  Uiso   1.00
C176   C     0.21538   0.89861   0.14438   0.00000  Uiso   1.00
H177   H     0.21639   0.53406   0.09508   0.00000  Uiso   1.00
H178   H     0.31400   0.96573   0.20572   0.00000  Uiso   1.00
H179   H     0.28494   0.53450   0.23828   0.00000  Uiso   1.00
H180   H     0.18692   0.96634   0.12813   0.00000  Uiso   1.00
N181   N     0.20888   0.62533   0.08664   0.00000  Uiso   1.00
O182   O     0.17229   0.64833   0.09398   0.00000  Uiso   1.00
O183   O     0.21886   0.61434   0.04108   0.00000  Uiso   1.00
N184   N     0.32122   0.87443   0.21308   0.00000  Uiso   1.00
O185   O     0.31471   0.85223   0.25474   0.00000  Uiso   1.00
O186   O     0.36184   0.88537   0.20147   0.00000  Uiso   1.00
N187   N     0.29190   0.62597   0.24615   0.00000  Uiso   1.00
O188   O     0.32932   0.64760   0.23856   0.00000  Uiso   1.00
O189   O     0.28128   0.61615   0.29186   0.00000  Uiso   1.00
N190   N     0.17885   0.87535   0.11930   0.00000  Uiso   1.00
O191   O     0.18635   0.84967   0.08038   0.00000  Uiso   1.00
O192   O     0.13848   0.89060   0.12546   0.00000  Uiso   1.00
O193   O     0.68453   0.78974   0.16667   0.00000  Uiso   1.00
O194   O     0.81547   0.71026   0.16666   0.00000  Uiso   1.00
O195   O     0.81547   0.78974   0.16666   0.00000  Uiso   1.00
O196   O     0.68453   0.71026   0.16667   0.00000  Uiso   1.00
C197   C     0.66385   0.74986   0.16753   0.00000  Uiso   1.00
C198   C     0.83588   0.75000   0.16700   0.00000  Uiso   1.00
O199   O     0.75000   0.78973   0.09511   0.00000  Uiso   1.00
O200   O     0.75000   0.71027   0.23822   0.00000  Uiso   1.00
O201   O     0.75000   0.78973   0.23822   0.00000  Uiso   1.00
O202   O     0.75000   0.71027   0.09511   0.00000  Uiso   1.00
C203   C     0.73121   0.55219   0.12697   0.00000  Uiso   1.00
C204   C     0.78561   0.94775   0.18871   0.00000  Uiso   1.00
C205   C     0.76980   0.55244   0.20645   0.00000  Uiso   1.00
C206   C     0.71507   0.94805   0.14509   0.00000  Uiso   1.00
C207   C     0.74993   0.75001   0.07293   0.00000  Uiso   1.00
C208   C     0.75011   0.74997   0.26040   0.00000  Uiso   1.00
Zn209  Zn    0.75000   0.80307   0.16667   0.00000  Uiso   1.00
Zn210  Zn    0.75000   0.69693   0.16667   0.00000  Uiso   1.00
N211   N     0.75000   0.62624   0.16667   0.00000  Uiso   1.00
N212   N     0.75000   0.87377   0.16667   0.00000  Uiso   1.00
C213   C     0.75054   0.52661   0.16679   0.00000  Uiso   1.00
C214   C     0.75044   0.97360   0.16694   0.00000  Uiso   1.00
C215   C     0.75000   0.75000   0.02181   0.00000  Uiso   1.00
C216   C     0.75007   0.74995   0.31153   0.00000  Uiso   1.00
C217   C     0.54653   0.79052   0.17877   0.00000  Uiso   1.00
C218   C     0.95254   0.71901   0.14031   0.00000  Uiso   1.00
C219   C     0.95218   0.77638   0.20763   0.00000  Uiso   1.00
C220   C     0.54705   0.70559   0.17308   0.00000  Uiso   1.00
H221   H     0.52878   0.82339   0.18115   0.00000  Uiso   1.00
H222   H     0.97024   0.69694   0.11459   0.00000  Uiso   1.00
H223   H     0.96960   0.79777   0.23534   0.00000  Uiso   1.00
H224   H     0.52971   0.67226   0.17225   0.00000  Uiso   1.00
C225   C     0.59252   0.79118   0.17655   0.00000  Uiso   1.00
C226   C     0.90646   0.71987   0.13767   0.00000  Uiso   1.00
C227   C     0.90612   0.77770   0.20441   0.00000  Uiso   1.00
C228   C     0.59297   0.70630   0.17012   0.00000  Uiso   1.00
H229   H     0.60968   0.82442   0.17902   0.00000  Uiso   1.00
H230   H     0.88875   0.69801   0.11058   0.00000  Uiso   1.00
H231   H     0.88814   0.79958   0.22998   0.00000  Uiso   1.00
H232   H     0.61040   0.67333   0.16691   0.00000  Uiso   1.00
C233   C     0.61581   0.74919   0.17106   0.00000  Uiso   1.00
C234   C     0.88353   0.74968   0.16925   0.00000  Uiso   1.00
C235   C     0.52373   0.74775   0.17650   0.00000  Uiso   1.00
C236   C     0.97546   0.74732   0.17527   0.00000  Uiso   1.00
C237   C     0.73049   0.60159   0.12762   0.00000  Uiso   1.00
C238   C     0.78481   0.89829   0.18896   0.00000  Uiso   1.00
C239   C     0.76998   0.60187   0.20563   0.00000  Uiso   1.00
C240   C     0.71538   0.89861   0.14438   0.00000  Uiso   1.00
H241   H     0.71639   0.53406   0.09508   0.00000  Uiso   1.00
H242   H     0.81400   0.96573   0.20572   0.00000  Uiso   1.00
H243   H     0.78494   0.53450   0.23828   0.00000  Uiso   1.00
H244   H     0.68692   0.96634   0.12813   0.00000  Uiso   1.00
N245   N     0.70888   0.62533   0.08664   0.00000  Uiso   1.00
O246   O     0.67229   0.64833   0.09398   0.00000  Uiso   1.00
O247   O     0.71886   0.61434   0.04108   0.00000  Uiso   1.00
N248   N     0.82122   0.87443   0.21308   0.00000  Uiso   1.00
O249   O     0.81471   0.85223   0.25474   0.00000  Uiso   1.00
O250   O     0.86184   0.88537   0.20147   0.00000  Uiso   1.00
N251   N     0.79190   0.62597   0.24615   0.00000  Uiso   1.00
O252   O     0.82932   0.64760   0.23856   0.00000  Uiso   1.00
O253   O     0.78128   0.61615   0.29186   0.00000  Uiso   1.00
N254   N     0.67885   0.87535   0.11930   0.00000  Uiso   1.00
O255   O     0.68635   0.84967   0.08038   0.00000  Uiso   1.00
O256   O     0.63848   0.89060   0.12546   0.00000  Uiso   1.00
O257   O     0.18453   0.28974   0.50000   0.00000  Uiso   1.00
O258   O     0.31547   0.21026   0.50000   0.00000  Uiso   1.00
O259   O     0.31547   0.28974   0.50000   0.00000  Uiso   1.00
O260   O     0.18453   0.21026   0.50000   0.00000  Uiso   1.00
C261   C     0.16385   0.24986   0.50086   0.00000  Uiso   1.00
C262   C     0.33588   0.25000   0.50033   0.00000  Uiso   1.00
O263   O     0.25000   0.28973   0.42845   0.00000  Uiso   1.00
O264   O     0.25000   0.21027   0.57155   0.00000  Uiso   1.00
O265   O     0.25000   0.28973   0.57155   0.00000  Uiso   1.00
O266   O     0.25000   0.21027   0.42845   0.00000  Uiso   1.00
C267   C     0.23121   0.05219   0.46030   0.00000  Uiso   1.00
C268   C     0.28561   0.44775   0.52205   0.00000  Uiso   1.00
C269   C     0.26980   0.05244   0.53978   0.00000  Uiso   1.00
C270   C     0.21507   0.44805   0.47843   0.00000  Uiso   1.00
C271   C     0.24993   0.25001   0.40627   0.00000  Uiso   1.00
C272   C     0.25011   0.24997   0.59373   0.00000  Uiso   1.00
Zn273  Zn    0.25000   0.30307   0.50000   0.00000  Uiso   1.00
Zn274  Zn    0.25000   0.19693   0.50000   0.00000  Uiso   1.00
N275   N     0.25000   0.12624   0.50000   0.00000  Uiso   1.00
N276   N     0.25000   0.37377   0.50000   0.00000  Uiso   1.00
C277   C     0.25054   0.02661   0.50013   0.00000  Uiso   1.00
C278   C     0.25044   0.47360   0.50027   0.00000  Uiso   1.00
C279   C     0.25000   0.25000   0.35514   0.00000  Uiso   1.00
C280   C     0.25007   0.24995   0.64486   0.00000  Uiso   1.00
C281   C     0.04653   0.29052   0.51210   0.00000  Uiso   1.00
C282   C     0.45254   0.21901   0.47365   0.00000  Uiso   1.00
C283   C     0.45218   0.27638   0.54096   0.00000  Uiso   1.00
C284   C     0.04705   0.20559   0.50642   0.00000  Uiso   1.00
H285   H     0.02878   0.32339   0.51448   0.00000  Uiso   1.00
H286   H     0.47024   0.19694   0.44792   0.00000  Uiso   1.00
H287   H     0.46960   0.29777   0.56868   0.00000  Uiso   1.00
H288   H     0.02971   0.17226   0.50559   0.00000  Uiso   1.00
C289   C     0.09252   0.29118   0.50989   0.00000  Uiso   1.00
C290   C     0.40646   0.21987   0.47100   0.00000  Uiso   1.00
C291   C     0.40612   0.27770   0.53774   0.00000  Uiso   1.00
C292   C     0.09297   0.20630   0.50345   0.00000  Uiso   1.00
H293   H     0.10968   0.32442   0.51236   0.00000  Uiso   1.00
H294   H     0.38875   0.19801   0.44392   0.00000  Uiso   1.00
H295   H     0.38814   0.29958   0.56332   0.00000  Uiso   1.00
H296   H     0.11040   0.17333   0.50025   0.00000  Uiso   1.00
C297   C     0.11581   0.24919   0.50439   0.00000  Uiso   1.00
C298   C     0.38353   0.24968   0.50259   0.00000  Uiso   1.00
C299   C     0.02373   0.24775   0.50984   0.00000  Uiso   1.00
C300   C     0.47546   0.24732   0.50860   0.00000  Uiso   1.00
C301   C     0.23049   0.10159   0.46095   0.00000  Uiso   1.00
C302   C     0.28481   0.39829   0.52230   0.00000  Uiso   1.00
C303   C     0.26998   0.10187   0.53897   0.00000  Uiso   1.00
C304   C     0.21538   0.39861   0.47771   0.00000  Uiso   1.00
H305   H     0.21639   0.03406   0.42842   0.00000  Uiso   1.00
H306   H     0.31400   0.46573   0.53905   0.00000  Uiso   1.00
H307   H     0.28494   0.03450   0.57162   0.00000  Uiso   1.00
H308   H     0.18692   0.46634   0.46146   0.00000  Uiso   1.00
N309   N     0.20888   0.12533   0.41997   0.00000  Uiso   1.00
O310   O     0.17229   0.14833   0.42731   0.00000  Uiso   1.00
O311   O     0.21886   0.11434   0.37441   0.00000  Uiso   1.00
N312   N     0.32122   0.37443   0.54642   0.00000  Uiso   1.00
O313   O     0.31471   0.35223   0.58808   0.00000  Uiso   1.00
O314   O     0.36184   0.38537   0.53481   0.00000  Uiso   1.00
N315   N     0.29190   0.12597   0.57948   0.00000  Uiso   1.00
O316   O     0.32932   0.14760   0.57190   0.00000  Uiso   1.00
O317   O     0.28128   0.11615   0.62519   0.00000  Uiso   1.00
N318   N     0.17885   0.37535   0.45263   0.00000  Uiso   1.00
O319   O     0.18635   0.34967   0.41371   0.00000  Uiso   1.00
O320   O     0.13848   0.39060   0.45880   0.00000  Uiso   1.00
O321   O     0.68453   0.28974   0.50000   0.00000  Uiso   1.00
O322   O     0.81547   0.21026   0.50000   0.00000  Uiso   1.00
O323   O     0.81547   0.28974   0.50000   0.00000  Uiso   1.00
O324   O     0.68453   0.21026   0.50000   0.00000  Uiso   1.00
C325   C     0.66385   0.24986   0.50086   0.00000  Uiso   1.00
C326   C     0.83588   0.25000   0.50033   0.00000  Uiso   1.00
O327   O     0.75000   0.28973   0.42845   0.00000  Uiso   1.00
O328   O     0.75000   0.21027   0.57155   0.00000  Uiso   1.00
O329   O     0.75000   0.28973   0.57155   0.00000  Uiso   1.00
O330   O     0.75000   0.21027   0.42845   0.00000  Uiso   1.00
C331   C     0.73121   0.05219   0.46030   0.00000  Uiso   1.00
C332   C     0.78561   0.44775   0.52205   0.00000  Uiso   1.00
C333   C     0.76980   0.05244   0.53978   0.00000  Uiso   1.00
C334   C     0.71507   0.44805   0.47843   0.00000  Uiso   1.00
C335   C     0.74993   0.25001   0.40627   0.00000  Uiso   1.00
C336   C     0.75011   0.24997   0.59373   0.00000  Uiso   1.00
Zn337  Zn    0.75000   0.30307   0.50000   0.00000  Uiso   1.00
Zn338  Zn    0.75000   0.19693   0.50000   0.00000  Uiso   1.00
N339   N     0.75000   0.12624   0.50000   0.00000  Uiso   1.00
N340   N     0.75000   0.37377   0.50000   0.00000  Uiso   1.00
C341   C     0.75054   0.02661   0.50013   0.00000  Uiso   1.00
C342   C     0.75044   0.47360   0.50027   0.00000  Uiso   1.00
C343   C     0.75000   0.25000   0.35514   0.00000  Uiso   1.00
C344   C     0.75007   0.24995   0.64486   0.00000  Uiso   1.00
C345   C     0.54653   0.29052   0.51210   0.00000  Uiso   1.00
C346   C     0.95254   0.21901   0.47365   0.00000  Uiso   1.00
C347   C     0.95218   0.27638   0.54096   0.00000  Uiso   1.00
C348   C     0.54705   0.20559   0.50642   0.00000  Uiso   1.00
H349   H     0.52878   0.32339   0.51448   0.00000  Uiso   1.00
H350   H     0.97024   0.19694   0.44792   0.00000  Uiso   1.00
H351   H     0.96960   0.29777   0.56868   0.00000  Uiso   1.00
H352   H     0.52971   0.17226   0.50559   0.00000  Uiso   1.00
C353   C     0.59252   0.29118   0.50989   0.00000  Uiso   1.00
C354   C     0.90646   0.21987   0.47100   0.00000  Uiso   1.00
C355   C     0.90612   0.27770   0.53774   0.00000  Uiso   1.00
C356   C     0.59297   0.20630   0.50345   0.00000  Uiso   1.00
H357   H     0.60968   0.32442   0.51236   0.00000  Uiso   1.00
H358   H     0.88875   0.19801   0.44392   0.00000  Uiso   1.00
H359   H     0.88814   0.29958   0.56332   0.00000  Uiso   1.00
H360   H     0.61040   0.17333   0.50025   0.00000  Uiso   1.00
C361   C     0.61581   0.24919   0.50439   0.00000  Uiso   1.00
C362   C     0.88353   0.24968   0.50259   0.00000  Uiso   1.00
C363   C     0.52373   0.24775   0.50984   0.00000  Uiso   1.00
C364   C     0.97546   0.24732   0.50860   0.00000  Uiso   1.00
C365   C     0.73049   0.10159   0.46095   0.00000  Uiso   1.00
C366   C     0.78481   0.39829   0.52230   0.00000  Uiso   1.00
C367   C     0.76998   0.10187   0.53897   0.00000  Uiso   1.00
C368   C     0.71538   0.39861   0.47771   0.00000  Uiso   1.00
H369   H     0.71639   0.03406   0.42842   0.00000  Uiso   1.00
H370   H     0.81400   0.46573   0.53905   0.00000  Uiso   1.00
H371   H     0.78494   0.03450   0.57162   0.00000  Uiso   1.00
H372   H     0.68692   0.46634   0.46146   0.00000  Uiso   1.00
N373   N     0.70888   0.12533   0.41997   0.00000  Uiso   1.00
O374   O     0.67229   0.14833   0.42731   0.00000  Uiso   1.00
O375   O     0.71886   0.11434   0.37441   0.00000  Uiso   1.00
N376   N     0.82122   0.37443   0.54642   0.00000  Uiso   1.00
O377   O     0.81471   0.35223   0.58808   0.00000  Uiso   1.00
O378   O     0.86184   0.38537   0.53481   0.00000  Uiso   1.00
N379   N     0.79190   0.12597   0.57948   0.00000  Uiso   1.00
O380   O     0.82932   0.14760   0.57190   0.00000  Uiso   1.00
O381   O     0.78128   0.11615   0.62519   0.00000  Uiso   1.00
N382   N     0.67885   0.37535   0.45263   0.00000  Uiso   1.00
O383   O     0.68635   0.34967   0.41371   0.00000  Uiso   1.00
O384   O     0.63848   0.39060   0.45880   0.00000  Uiso   1.00
O385   O     0.18453   0.78974   0.50000   0.00000  Uiso   1.00
O386   O     0.31547   0.71026   0.50000   0.00000  Uiso   1.00
O387   O     0.31547   0.78974   0.50000   0.00000  Uiso   1.00
O388   O     0.18453   0.71026   0.50000   0.00000  Uiso   1.00
C389   C     0.16385   0.74986   0.50086   0.00000  Uiso   1.00
C390   C     0.33588   0.75000   0.50033   0.00000  Uiso   1.00
O391   O     0.25000   0.78973   0.42845   0.00000  Uiso   1.00
O392   O     0.25000   0.71027   0.57155   0.00000  Uiso   1.00
O393   O     0.25000   0.78973   0.57155   0.00000  Uiso   1.00
O394   O     0.25000   0.71027   0.42845   0.00000  Uiso   1.00
C395   C     0.23121   0.55219   0.46030   0.00000  Uiso   1.00
C396   C     0.28561   0.94775   0.52205   0.00000  Uiso   1.00
C397   C     0.26980   0.55244   0.53978   0.00000  Uiso   1.00
C398   C     0.21507   0.94805   0.47843   0.00000  Uiso   1.00
C399   C     0.24993   0.75001   0.40627   0.00000  Uiso   1.00
C400   C     0.25011   0.74997   0.59373   0.00000  Uiso   1.00
Zn401  Zn    0.25000   0.80307   0.50000   0.00000  Uiso   1.00
Zn402  Zn    0.25000   0.69693   0.50000   0.00000  Uiso   1.00
N403   N     0.25000   0.62624   0.50000   0.00000  Uiso   1.00
N404   N     0.25000   0.87377   0.50000   0.00000  Uiso   1.00
C405   C     0.25054   0.52661   0.50013   0.00000  Uiso   1.00
C406   C     0.25044   0.97360   0.50027   0.00000  Uiso   1.00
C407   C     0.25000   0.75000   0.35514   0.00000  Uiso   1.00
C408   C     0.25007   0.74995   0.64486   0.00000  Uiso   1.00
C409   C     0.04653   0.79052   0.51210   0.00000  Uiso   1.00
C410   C     0.45254   0.71901   0.47365   0.00000  Uiso   1.00
C411   C     0.45218   0.77638   0.54096   0.00000  Uiso   1.00
C412   C     0.04705   0.70559   0.50642   0.00000  Uiso   1.00
H413   H     0.02878   0.82339   0.51448   0.00000  Uiso   1.00
H414   H     0.47024   0.69694   0.44792   0.00000  Uiso   1.00
H415   H     0.46960   0.79777   0.56868   0.00000  Uiso   1.00
H416   H     0.02971   0.67226   0.50559   0.00000  Uiso   1.00
C417   C     0.09252   0.79118   0.50989   0.00000  Uiso   1.00
C418   C     0.40646   0.71987   0.47100   0.00000  Uiso   1.00
C419   C     0.40612   0.77770   0.53774   0.00000  Uiso   1.00
C420   C     0.09297   0.70630   0.50345   0.00000  Uiso   1.00
H421   H     0.10968   0.82442   0.51236   0.00000  Uiso   1.00
H422   H     0.38875   0.69801   0.44392   0.00000  Uiso   1.00
H423   H     0.38814   0.79958   0.56332   0.00000  Uiso   1.00
H424   H     0.11040   0.67333   0.50025   0.00000  Uiso   1.00
C425   C     0.11581   0.74919   0.50439   0.00000  Uiso   1.00
C426   C     0.38353   0.74968   0.50259   0.00000  Uiso   1.00
C427   C     0.02373   0.74775   0.50984   0.00000  Uiso   1.00
C428   C     0.47546   0.74732   0.50860   0.00000  Uiso   1.00
C429   C     0.23049   0.60159   0.46095   0.00000  Uiso   1.00
C430   C     0.28481   0.89829   0.52230   0.00000  Uiso   1.00
C431   C     0.26998   0.60187   0.53897   0.00000  Uiso   1.00
C432   C     0.21538   0.89861   0.47771   0.00000  Uiso   1.00
H433   H     0.21639   0.53406   0.42842   0.00000  Uiso   1.00
H434   H     0.31400   0.96573   0.53905   0.00000  Uiso   1.00
H435   H     0.28494   0.53450   0.57162   0.00000  Uiso   1.00
H436   H     0.18692   0.96634   0.46146   0.00000  Uiso   1.00
N437   N     0.20888   0.62533   0.41997   0.00000  Uiso   1.00
O438   O     0.17229   0.64833   0.42731   0.00000  Uiso   1.00
O439   O     0.21886   0.61434   0.37441   0.00000  Uiso   1.00
N440   N     0.32122   0.87443   0.54642   0.00000  Uiso   1.00
O441   O     0.31471   0.85223   0.58808   0.00000  Uiso   1.00
O442   O     0.36184   0.88537   0.53481   0.00000  Uiso   1.00
N443   N     0.29190   0.62597   0.57948   0.00000  Uiso   1.00
O444   O     0.32932   0.64760   0.57190   0.00000  Uiso   1.00
O445   O     0.28128   0.61615   0.62519   0.00000  Uiso   1.00
N446   N     0.17885   0.87535   0.45263   0.00000  Uiso   1.00
O447   O     0.18635   0.84967   0.41371   0.00000  Uiso   1.00
O448   O     0.13848   0.89060   0.45880   0.00000  Uiso   1.00
O449   O     0.68453   0.78974   0.50000   0.00000  Uiso   1.00
O450   O     0.81547   0.71026   0.50000   0.00000  Uiso   1.00
O451   O     0.81547   0.78974   0.50000   0.00000  Uiso   1.00
O452   O     0.68453   0.71026   0.50000   0.00000  Uiso   1.00
C453   C     0.66385   0.74986   0.50086   0.00000  Uiso   1.00
C454   C     0.83588   0.75000   0.50033   0.00000  Uiso   1.00
O455   O     0.75000   0.78973   0.42845   0.00000  Uiso   1.00
O456   O     0.75000   0.71027   0.57155   0.00000  Uiso   1.00
O457   O     0.75000   0.78973   0.57155   0.00000  Uiso   1.00
O458   O     0.75000   0.71027   0.42845   0.00000  Uiso   1.00
C459   C     0.73121   0.55219   0.46030   0.00000  Uiso   1.00
C460   C     0.78561   0.94775   0.52205   0.00000  Uiso   1.00
C461   C     0.76980   0.55244   0.53978   0.00000  Uiso   1.00
C462   C     0.71507   0.94805   0.47843   0.00000  Uiso   1.00
C463   C     0.74993   0.75001   0.40627   0.00000  Uiso   1.00
C464   C     0.75011   0.74997   0.59373   0.00000  Uiso   1.00
Zn465  Zn    0.75000   0.80307   0.50000   0.00000  Uiso   1.00
Zn466  Zn    0.75000   0.69693   0.50000   0.00000  Uiso   1.00
N467   N     0.75000   0.62624   0.50000   0.00000  Uiso   1.00
N468   N     0.75000   0.87377   0.50000   0.00000  Uiso   1.00
C469   C     0.75054   0.52661   0.50013   0.00000  Uiso   1.00
C470   C     0.75044   0.97360   0.50027   0.00000  Uiso   1.00
C471   C     0.75000   0.75000   0.35514   0.00000  Uiso   1.00
C472   C     0.75007   0.74995   0.64486   0.00000  Uiso   1.00
C473   C     0.54653   0.79052   0.51210   0.00000  Uiso   1.00
C474   C     0.95254   0.71901   0.47365   0.00000  Uiso   1.00
C475   C     0.95218   0.77638   0.54096   0.00000  Uiso   1.00
C476   C     0.54705   0.70559   0.50642   0.00000  Uiso   1.00
H477   H     0.52878   0.82339   0.51448   0.00000  Uiso   1.00
H478   H     0.97024   0.69694   0.44792   0.00000  Uiso   1.00
H479   H     0.96960   0.79777   0.56868   0.00000  Uiso   1.00
H480   H     0.52971   0.67226   0.50559   0.00000  Uiso   1.00
C481   C     0.59252   0.79118   0.50989   0.00000  Uiso   1.00
C482   C     0.90646   0.71987   0.47100   0.00000  Uiso   1.00
C483   C     0.90612   0.77770   0.53774   0.00000  Uiso   1.00
C484   C     0.59297   0.70630   0.50345   0.00000  Uiso   1.00
H485   H     0.60968   0.82442   0.51236   0.00000  Uiso   1.00
H486   H     0.88875   0.69801   0.44392   0.00000  Uiso   1.00
H487   H     0.88814   0.79958   0.56332   0.00000  Uiso   1.00
H488   H     0.61040   0.67333   0.50025   0.00000  Uiso   1.00
C489   C     0.61581   0.74919   0.50439   0.00000  Uiso   1.00
C490   C     0.88353   0.74968   0.50259   0.00000  Uiso   1.00
C491   C     0.52373   0.74775   0.50984   0.00000  Uiso   1.00
C492   C     0.97546   0.74732   0.50860   0.00000  Uiso   1.00
C493   C     0.73049   0.60159   0.46095   0.00000  Uiso   1.00
C494   C     0.78481   0.89829   0.52230   0.00000  Uiso   1.00
C495   C     0.76998   0.60187   0.53897   0.00000  Uiso   1.00
C496   C     0.71538   0.89861   0.47771   0.00000  Uiso   1.00
H497   H     0.71639   0.53406   0.42842   0.00000  Uiso   1.00
H498   H     0.81400   0.96573   0.53905   0.00000  Uiso   1.00
H499   H     0.78494   0.53450   0.57162   0.00000  Uiso   1.00
H500   H     0.68692   0.96634   0.46146   0.00000  Uiso   1.00
N501   N     0.70888   0.62533   0.41997   0.00000  Uiso   1.00
O502   O     0.67229   0.64833   0.42731   0.00000  Uiso   1.00
O503   O     0.71886   0.61434   0.37441   0.00000  Uiso   1.00
N504   N     0.82122   0.87443   0.54642   0.00000  Uiso   1.00
O505   O     0.81471   0.85223   0.58808   0.00000  Uiso   1.00
O506   O     0.86184   0.88537   0.53481   0.00000  Uiso   1.00
N507   N     0.79190   0.62597   0.57948   0.00000  Uiso   1.00
O508   O     0.82932   0.64760   0.57190   0.00000  Uiso   1.00
O509   O     0.78128   0.61615   0.62519   0.00000  Uiso   1.00
N510   N     0.67885   0.87535   0.45263   0.00000  Uiso   1.00
O511   O     0.68635   0.84967   0.41371   0.00000  Uiso   1.00
O512   O     0.63848   0.89060   0.45880   0.00000  Uiso   1.00
O513   O     0.18453   0.28974   0.83334   0.00000  Uiso   1.00
O514   O     0.31547   0.21026   0.83333   0.00000  Uiso   1.00
O515   O     0.31547   0.28974   0.83333   0.00000  Uiso   1.00
O516   O     0.18453   0.21026   0.83334   0.00000  Uiso   1.00
C517   C     0.16385   0.24986   0.83419   0.00000  Uiso   1.00
C518   C     0.33588   0.25000   0.83367   0.00000  Uiso   1.00
O519   O     0.25000   0.28973   0.76178   0.00000  Uiso   1.00
O520   O     0.25000   0.21027   0.90489   0.00000  Uiso   1.00
O521   O     0.25000   0.28973   0.90489   0.00000  Uiso   1.00
O522   O     0.25000   0.21027   0.76178   0.00000  Uiso   1.00
C523   C     0.23121   0.05219   0.79364   0.00000  Uiso   1.00
C524   C     0.28561   0.44775   0.85538   0.00000  Uiso   1.00
C525   C     0.26980   0.05244   0.87312   0.00000  Uiso   1.00
C526   C     0.21507   0.44805   0.81176   0.00000  Uiso   1.00
C527   C     0.24993   0.25001   0.73960   0.00000  Uiso   1.00
C528   C     0.25011   0.24997   0.92707   0.00000  Uiso   1.00
Zn529  Zn    0.25000   0.30307   0.83333   0.00000  Uiso   1.00
Zn530  Zn    0.25000   0.19693   0.83333   0.00000  Uiso   1.00
N531   N     0.25000   0.12624   0.83333   0.00000  Uiso   1.00
N532   N     0.25000   0.37377   0.83333   0.00000  Uiso   1.00
C533   C     0.25054   0.02661   0.83346   0.00000  Uiso   1.00
C534   C     0.25044   0.47360   0.83360   0.00000  Uiso   1.00
C535   C     0.25000   0.25000   0.68847   0.00000  Uiso   1.00
C536   C     0.25007   0.24995   0.97819   0.00000  Uiso   1.00
C537   C     0.04653   0.29052   0.84544   0.00000  Uiso   1.00
C538   C     0.45254   0.21901   0.80698   0.00000  Uiso   1.00
C539   C     0.45218   0.27638   0.87429   0.00000  Uiso   1.00
C540   C     0.04705   0.20559   0.83975   0.00000  Uiso   1.00
H541   H     0.02878   0.32339   0.84782   0.00000  Uiso   1.00
H542   H     0.47024   0.19694   0.78125   0.00000  Uiso   1.00
H543   H     0.46960   0.29777   0.90201   0.00000  Uiso   1.00
H544   H     0.02971   0.17226   0.83892   0.00000  Uiso   1.00
C545   C     0.09252   0.29118   0.84322   0.00000  Uiso   1.00
C546   C     0.40646   0.21987   0.80433   0.00000  Uiso   1.00
C547   C     0.40612   0.27770   0.87107   0.00000  Uiso   1.00
C548   C     0.09297   0.20630   0.83678   0.00000  Uiso   1.00
H549   H     0.10968   0.32442   0.84569   0.00000  Uiso   1.00
H550   H     0.38875   0.19801   0.77725   0.00000  Uiso   1.00
H551   H     0.38814   0.29958   0.89665   0.00000  Uiso   1.00
H552   H     0.11040   0.17333   0.83358   0.00000  Uiso   1.00
C553   C     0.11581   0.24919   0.83772   0.00000  Uiso   1.00
C554   C     0.38353   0.24968   0.83592   0.00000  Uiso   1.00
C555   C     0.02373   0.24775   0.84317   0.00000  Uiso   1.00
C556   C     0.47546   0.24732   0.84193   0.00000  Uiso   1.00
C557   C     0.23049   0.10159   0.79429   0.00000  Uiso   1.00
C558   C     0.28481   0.39829   0.85563   0.00000  Uiso   1.00
C559   C     0.26998   0.10187   0.87230   0.00000  Uiso   1.00
C560   C     0.21538   0.39861   0.81104   0.00000  Uiso   1.00
H561   H     0.21639   0.03406   0.76175   0.00000  Uiso   1.00
H562   H     0.31400   0.46573   0.87238   0.00000  Uiso   1.00
H563   H     0.28494   0.03450   0.90495   0.00000  Uiso   1.00
H564   H     0.18692   0.46634   0.79479   0.00000  Uiso   1.00
N565   N     0.20888   0.12533   0.75331   0.00000  Uiso   1.00
O566   O     0.17229   0.14833   0.76064   0.00000  Uiso   1.00
O567   O     0.21886   0.11434   0.70775   0.00000  Uiso   1.00
N568   N     0.32122   0.37443   0.87975   0.00000  Uiso   1.00
O569   O     0.31471   0.35223   0.92141   0.00000  Uiso   1.00
O570   O     0.36184   0.38537   0.86814   0.00000  Uiso   1.00
N571   N     0.29190   0.12597   0.91282   0.00000  Uiso   1.00
O572   O     0.32932   0.14760   0.90523   0.00000  Uiso   1.00
O573   O     0.28128   0.11615   0.95853   0.00000  Uiso   1.00
N574   N     0.17885   0.37535   0.78597   0.00000  Uiso   1.00
O575   O     0.18635   0.34967   0.74704   0.00000  Uiso   1.00
O576   O     0.13848   0.39060   0.79213   0.00000  Uiso   1.00
O577   O     0.68453   0.28974   0.83334   0.00000  Uiso   1.00
O578   O     0.81547   0.21026   0.83333   0.00000  Uiso   1.00
O579   O     0.81547   0.28974   0.83333   0.00000  Uiso   1.00
O580   O     0.68453   0.21026   0.83334   0.00000  Uiso   1.00
C581   C     0.66385   0.24986   0.83419   0.00000  Uiso   1.00
C582   C     0.83588   0.25000   0.83367   0.00000  Uiso   1.00
O583   O     0.75000   0.28973   0.76178   0.00000  Uiso   1.00
O584   O     0.75000   0.21027   0.90489   0.00000  Uiso   1.00
O585   O     0.75000   0.28973   0.90489   0.00000  Uiso   1.00
O586   O     0.75000   0.21027   0.76178   0.00000  Uiso   1.00
C587   C     0.73121   0.05219   0.79364   0.00000  Uiso   1.00
C588   C     0.78561   0.44775   0.85538   0.00000  Uiso   1.00
C589   C     0.76980   0.05244   0.87312   0.00000  Uiso   1.00
C590   C     0.71507   0.44805   0.81176   0.00000  Uiso   1.00
C591   C     0.74993   0.25001   0.73960   0.00000  Uiso   1.00
C592   C     0.75011   0.24997   0.92707   0.00000  Uiso   1.00
Zn593  Zn    0.75000   0.30307   0.83333   0.00000  Uiso   1.00
Zn594  Zn    0.75000   0.19693   0.83333   0.00000  Uiso   1.00
N595   N     0.75000   0.12624   0.83333   0.00000  Uiso   1.00
N596   N     0.75000   0.37377   0.83333   0.00000  Uiso   1.00
C597   C     0.75054   0.02661   0.83346   0.00000  Uiso   1.00
C598   C     0.75044   0.47360   0.83360   0.00000  Uiso   1.00
C599   C     0.75000   0.25000   0.68847   0.00000  Uiso   1.00
C600   C     0.75007   0.24995   0.97819   0.00000  Uiso   1.00
C601   C     0.54653   0.29052   0.84544   0.00000  Uiso   1.00
C602   C     0.95254   0.21901   0.80698   0.00000  Uiso   1.00
C603   C     0.95218   0.27638   0.87429   0.00000  Uiso   1.00
C604   C     0.54705   0.20559   0.83975   0.00000  Uiso   1.00
H605   H     0.52878   0.32339   0.84782   0.00000  Uiso   1.00
H606   H     0.97024   0.19694   0.78125   0.00000  Uiso   1.00
H607   H     0.96960   0.29777   0.90201   0.00000  Uiso   1.00
H608   H     0.52971   0.17226   0.83892   0.00000  Uiso   1.00
C609   C     0.59252   0.29118   0.84322   0.00000  Uiso   1.00
C610   C     0.90646   0.21987   0.80433   0.00000  Uiso   1.00
C611   C     0.90612   0.27770   0.87107   0.00000  Uiso   1.00
C612   C     0.59297   0.20630   0.83678   0.00000  Uiso   1.00
H613   H     0.60968   0.32442   0.84569   0.00000  Uiso   1.00
H614   H     0.88875   0.19801   0.77725   0.00000  Uiso   1.00
H615   H     0.88814   0.29958   0.89665   0.00000  Uiso   1.00
H616   H     0.61040   0.17333   0.83358   0.00000  Uiso   1.00
C617   C     0.61581   0.24919   0.83772   0.00000  Uiso   1.00
C618   C     0.88353   0.24968   0.83592   0.00000  Uiso   1.00
C619   C     0.52373   0.24775   0.84317   0.00000  Uiso   1.00
C620   C     0.97546   0.24732   0.84193   0.00000  Uiso   1.00
C621   C     0.73049   0.10159   0.79429   0.00000  Uiso   1.00
C622   C     0.78481   0.39829   0.85563   0.00000  Uiso   1.00
C623   C     0.76998   0.10187   0.87230   0.00000  Uiso   1.00
C624   C     0.71538   0.39861   0.81104   0.00000  Uiso   1.00
H625   H     0.71639   0.03406   0.76175   0.00000  Uiso   1.00
H626   H     0.81400   0.46573   0.87238   0.00000  Uiso   1.00
H627   H     0.78494   0.03450   0.90495   0.00000  Uiso   1.00
H628   H     0.68692   0.46634   0.79479   0.00000  Uiso   1.00
N629   N     0.70888   0.12533   0.75331   0.00000  Uiso   1.00
O630   O     0.67229   0.14833   0.76064   0.00000  Uiso   1.00
O631   O     0.71886   0.11434   0.70775   0.00000  Uiso   1.00
N632   N     0.82122   0.37443   0.87975   0.00000  Uiso   1.00
O633   O     0.81471   0.35223   0.92141   0.00000  Uiso   1.00
O634   O     0.86184   0.38537   0.86814   0.00000  Uiso   1.00
N635   N     0.79190   0.12597   0.91282   0.00000  Uiso   1.00
O636   O     0.82932   0.14760   0.90523   0.00000  Uiso   1.00
O637   O     0.78128   0.11615   0.95853   0.00000  Uiso   1.00
N638   N     0.67885   0.37535   0.78597   0.00000  Uiso   1.00
O639   O     0.68635   0.34967   0.74704   0.00000  Uiso   1.00
O640   O     0.63848   0.39060   0.79213   0.00000  Uiso   1.00
O641   O     0.18453   0.78974   0.83334   0.00000  Uiso   1.00
O642   O     0.31547   0.71026   0.83333   0.00000  Uiso   1.00
O643   O     0.31547   0.78974   0.83333   0.00000  Uiso   1.00
O644   O     0.18453   0.71026   0.83334   0.00000  Uiso   1.00
C645   C     0.16385   0.74986   0.83419   0.00000  Uiso   1.00
C646   C     0.33588   0.75000   0.83367   0.00000  Uiso   1.00
O647   O     0.25000   0.78973   0.76178   0.00000  Uiso   1.00
O648   O     0.25000   0.71027   0.90489   0.00000  Uiso   1.00
O649   O     0.25000   0.78973   0.90489   0.00000  Uiso   1.00
O650   O     0.25000   0.71027   0.76178   0.00000  Uiso   1.00
C651   C     0.23121   0.55219   0.79364   0.00000  Uiso   1.00
C652   C     0.28561   0.94775   0.85538   0.00000  Uiso   1.00
C653   C     0.26980   0.55244   0.87312   0.00000  Uiso   1.00
C654   C     0.21507   0.94805   0.81176   0.00000  Uiso   1.00
C655   C     0.24993   0.75001   0.73960   0.00000  Uiso   1.00
C656   C     0.25011   0.74997   0.92707   0.00000  Uiso   1.00
Zn657  Zn    0.25000   0.80307   0.83333   0.00000  Uiso   1.00
Zn658  Zn    0.25000   0.69693   0.83333   0.00000  Uiso   1.00
N659   N     0.25000   0.62624   0.83333   0.00000  Uiso   1.00
N660   N     0.25000   0.87377   0.83333   0.00000  Uiso   1.00
C661   C     0.25054   0.52661   0.83346   0.00000  Uiso   1.00
C662   C     0.25044   0.97360   0.83360   0.00000  Uiso   1.00
C663   C     0.25000   0.75000   0.68847   0.00000  Uiso   1.00
C664   C     0.25007   0.74995   0.97819   0.00000  Uiso   1.00
C665   C     0.04653   0.79052   0.84544   0.00000  Uiso   1.00
C666   C     0.45254   0.71901   0.80698   0.00000  Uiso   1.00
C667   C     0.45218   0.77638   0.87429   0.00000  Uiso   1.00
C668   C     0.04705   0.70559   0.83975   0.00000  Uiso   1.00
H669   H     0.02878   0.82339   0.84782   0.00000  Uiso   1.00
H670   H     0.47024   0.69694   0.78125   0.00000  Uiso   1.00
H671   H     0.46960   0.79777   0.90201   0.00000  Uiso   1.00
H672   H     0.02971   0.67226   0.83892   0.00000  Uiso   1.00
C673   C     0.09252   0.79118   0.84322   0.00000  Uiso   1.00
C674   C     0.40646   0.71987   0.80433   0.00000  Uiso   1.00
C675   C     0.40612   0.77770   0.87107   0.00000  Uiso   1.00
C676   C     0.09297   0.70630   0.83678   0.00000  Uiso   1.00
H677   H     0.10968   0.82442   0.84569   0.00000  Uiso   1.00
H678   H     0.38875   0.69801   0.77725   0.00000  Uiso   1.00
H679   H     0.38814   0.79958   0.89665   0.00000  Uiso   1.00
H680   H     0.11040   0.67333   0.83358   0.00000  Uiso   1.00
C681   C     0.11581   0.74919   0.83772   0.00000  Uiso   1.00
C682   C     0.38353   0.74968   0.83592   0.00000  Uiso   1.00
C683   C     0.02373   0.74775   0.84317   0.00000  Uiso   1.00
C684   C     0.47546   0.74732   0.84193   0.00000  Uiso   1.00
C685   C     0.23049   0.60159   0.79429   0.00000  Uiso   1.00
C686   C     0.28481   0.89829   0.85563   0.00000  Uiso   1.00
C687   C     0.26998   0.60187   0.87230   0.00000  Uiso   1.00
C688   C     0.21538   0.89861   0.81104   0.00000  Uiso   1.00
H689   H     0.21639   0.53406   0.76175   0.00000  Uiso   1.00
H690   H     0.31400   0.96573   0.87238   0.00000  Uiso   1.00
H691   H     0.28494   0.53450   0.90495   0.00000  Uiso   1.00
H692   H     0.18692   0.96634   0.79479   0.00000  Uiso   1.00
N693   N     0.20888   0.62533   0.75331   0.00000  Uiso   1.00
O694   O     0.17229   0.64833   0.76064   0.00000  Uiso   1.00
O695   O     0.21886   0.61434   0.70775   0.00000  Uiso   1.00
N696   N     0.32122   0.87443   0.87975   0.00000  Uiso   1.00
O697   O     0.31471   0.85223   0.92141   0.00000  Uiso   1.00
O698   O     0.36184   0.88537   0.86814   0.00000  Uiso   1.00
N699   N     0.29190   0.62597   0.91282   0.00000  Uiso   1.00
O700   O     0.32932   0.64760   0.90523   0.00000  Uiso   1.00
O701   O     0.28128   0.61615   0.95853   0.00000  Uiso   1.00
N702   N     0.17885   0.87535   0.78597   0.00000  Uiso   1.00
O703   O     0.18635   0.84967   0.74704   0.00000  Uiso   1.00
O704   O     0.13848   0.89060   0.79213   0.00000  Uiso   1.00
O705   O     0.68453   0.78974   0.83334   0.00000  Uiso   1.00
O706   O     0.81547   0.71026   0.83333   0.00000  Uiso   1.00
O707   O     0.81547   0.78974   0.83333   0.00000  Uiso   1.00
O708   O     0.68453   0.71026   0.83334   0.00000  Uiso   1.00
C709   C     0.66385   0.74986   0.83419   0.00000  Uiso   1.00
C710   C     0.83588   0.75000   0.83367   0.00000  Uiso   1.00
O711   O     0.75000   0.78973   0.76178   0.00000  Uiso   1.00
O712   O     0.75000   0.71027   0.90489   0.00000  Uiso   1.00
O713   O     0.75000   0.78973   0.90489   0.00000  Uiso   1.00
O714   O     0.75000   0.71027   0.76178   0.00000  Uiso   1.00
C715   C     0.73121   0.55219   0.79364   0.00000  Uiso   1.00
C716   C     0.78561   0.94775   0.85538   0.00000  Uiso   1.00
C717   C     0.76980   0.55244   0.87312   0.00000  Uiso   1.00
C718   C     0.71507   0.94805   0.81176   0.00000  Uiso   1.00
C719   C     0.74993   0.75001   0.73960   0.00000  Uiso   1.00
C720   C     0.75011   0.74997   0.92707   0.00000  Uiso   1.00
Zn721  Zn    0.75000   0.80307   0.83333   0.00000  Uiso   1.00
Zn722  Zn    0.75000   0.69693   0.83333   0.00000  Uiso   1.00
N723   N     0.75000   0.62624   0.83333   0.00000  Uiso   1.00
N724   N     0.75000   0.87377   0.83333   0.00000  Uiso   1.00
C725   C     0.75054   0.52661   0.83346   0.00000  Uiso   1.00
C726   C     0.75044   0.97360   0.83360   0.00000  Uiso   1.00
C727   C     0.75000   0.75000   0.68847   0.00000  Uiso   1.00
C728   C     0.75007   0.74995   0.97819   0.00000  Uiso   1.00
C729   C     0.54653   0.79052   0.84544   0.00000  Uiso   1.00
C730   C     0.95254   0.71901   0.80698   0.00000  Uiso   1.00
C731   C     0.95218   0.77638   0.87429   0.00000  Uiso   1.00
C732   C     0.54705   0.70559   0.83975   0.00000  Uiso   1.00
H733   H     0.52878   0.82339   0.84782   0.00000  Uiso   1.00
H734   H     0.97024   0.69694   0.78125   0.00000  Uiso   1.00
H735   H     0.96960   0.79777   0.90201   0.00000  Uiso   1.00
H736   H     0.52971   0.67226   0.83892   0.00000  Uiso   1.00
C737   C     0.59252   0.79118   0.84322   0.00000  Uiso   1.00
C738   C     0.90646   0.71987   0.80433   0.00000  Uiso   1.00
C739   C     0.90612   0.77770   0.87107   0.00000  Uiso   1.00
C740   C     0.59297   0.70630   0.83678   0.00000  Uiso   1.00
H741   H     0.60968   0.82442   0.84569   0.00000  Uiso   1.00
H742   H     0.88875   0.69801   0.77725   0.00000  Uiso   1.00
H743   H     0.88814   0.79958   0.89665   0.00000  Uiso   1.00
H744   H     0.61040   0.67333   0.83358   0.00000  Uiso   1.00
C745   C     0.61581   0.74919   0.83772   0.00000  Uiso   1.00
C746   C     0.88353   0.74968   0.83592   0.00000  Uiso   1.00
C747   C     0.52373   0.74775   0.84317   0.00000  Uiso   1.00
C748   C     0.97546   0.74732   0.84193   0.00000  Uiso   1.00
C749   C     0.73049   0.60159   0.79429   0.00000  Uiso   1.00
C750   C     0.78481   0.89829   0.85563   0.00000  Uiso   1.00
C751   C     0.76998   0.60187   0.87230   0.00000  Uiso   1.00
C752   C     0.71538   0.89861   0.81104   0.00000  Uiso   1.00
H753   H     0.71639   0.53406   0.76175   0.00000  Uiso   1.00
H754   H     0.81400   0.96573   0.87238   0.00000  Uiso   1.00
H755   H     0.78494   0.53450   0.90495   0.00000  Uiso   1.00
H756   H     0.68692   0.96634   0.79479   0.00000  Uiso   1.00
N757   N     0.70888   0.62533   0.75331   0.00000  Uiso   1.00
O758   O     0.67229   0.64833   0.76064   0.00000  Uiso   1.00
O759   O     0.71886   0.61434   0.70775   0.00000  Uiso   1.00
N760   N     0.82122   0.87443   0.87975   0.00000  Uiso   1.00
O761   O     0.81471   0.85223   0.92141   0.00000  Uiso   1.00
O762   O     0.86184   0.88537   0.86814   0.00000  Uiso   1.00
N763   N     0.79190   0.62597   0.91282   0.00000  Uiso   1.00
O764   O     0.82932   0.64760   0.90523   0.00000  Uiso   1.00
O765   O     0.78128   0.61615   0.95853   0.00000  Uiso   1.00
N766   N     0.67885   0.87535   0.78597   0.00000  Uiso   1.00
O767   O     0.68635   0.84967   0.74704   0.00000  Uiso   1.00
O768   O     0.63848   0.89060   0.79213   0.00000  Uiso   1.00
loop_
_geom_bond_atom_site_label_1
_geom_bond_atom_site_label_2
_geom_bond_distance
_geom_bond_site_symmetry_2
_ccdc_geom_bond_type
O1     Zn17    1.997   .     S
O1     C5      1.296   .     A
O2     Zn18    1.997   .     S
O2     C6      1.288   .     A
O3     Zn17    1.999   .     S
O3     C6      1.291   .     A
O4     Zn18    1.999   .     S
O4     C5      1.292   .     A
C5     C41     1.445   .     S
C6     C42     1.428   .     S
O7     C15     1.281   .     A
O7     Zn17    1.950   .     S
O8     C16     1.281   .     A
O8     Zn18    1.950   .     S
O9     C16     1.281   .     A
O9     Zn17    1.949   .     S
O10    Zn18    1.949   .     S
O10    C15     1.280   .     A
C11    H49     1.083   .     S
C11    C45     1.412   .     A
C11    C21     1.404   .     A
C12    H50     1.083   .     S
C12    C22     1.402   .     A
C12    C46     1.413   .     A
C13    H51     1.083   .     S
C13    C21     1.403   .     A
C13    C47     1.412   .     A
C14    C22     1.401   .     A
C14    C48     1.413   .     A
C14    H52     1.082   .     S
C15    C23     1.366   .     S
C16    C24     1.366   .     S
Zn17   N20     2.020   .     S
Zn18   N19     2.020   .     S
N19    C45     1.376   .     A
N19    C47     1.377   .     A
N20    C48     1.380   .     A
N20    C46     1.378   .     A
C21    C150    1.515   1_545 S
C22    C149    1.515   .     S
C23    C536    1.166   1_554 S
C24    C279    1.166   .     S
C25    C43     1.399   .     A
C25    H29     1.083   .     S
C25    C33     1.381   .     A
C26    C34     1.381   .     A
C26    C44     1.402   .     A
C26    H30     1.083   .     S
C27    C35     1.381   .     A
C27    H31     1.083   .     S
C27    C44     1.400   .     A
C28    C43     1.398   .     A
C28    H32     1.084   .     S
C28    C36     1.380   .     A
C33    C41     1.399   .     A
C33    H37     1.080   .     S
C34    C42     1.395   .     A
C34    H38     1.084   .     S
C35    H39     1.082   .     S
C35    C42     1.395   .     A
C36    H40     1.083   .     S
C36    C41     1.402   .     A
C43    C108    1.446   1_455 S
C44    C107    1.446   .     S
C45    N53     1.429   .     S
C46    N56     1.427   .     S
C47    N59     1.428   .     S
C48    N62     1.431   .     S
N53    O54     1.299   .     A
N53    O55     1.301   .     A
N56    O58     1.301   .     A
N56    O57     1.299   .     A
N59    O60     1.299   .     A
N59    O61     1.300   .     A
N62    O63     1.299   .     A
N62    O64     1.301   .     A
O65    Zn81    1.997   .     S
O65    C69     1.296   .     A
O66    Zn82    1.997   .     S
O66    C70     1.288   .     A
O67    Zn81    1.999   .     S
O67    C70     1.291   .     A
O68    Zn82    1.999   .     S
O68    C69     1.292   .     A
C69    C105    1.445   .     S
C70    C106    1.428   .     S
O71    C79     1.281   .     A
O71    Zn81    1.950   .     S
O72    C80     1.281   .     A
O72    Zn82    1.950   .     S
O73    C80     1.281   .     A
O73    Zn81    1.949   .     S
O74    Zn82    1.949   .     S
O74    C79     1.280   .     A
C75    H113    1.083   .     S
C75    C109    1.412   .     A
C75    C85     1.404   .     A
C76    H114    1.083   .     S
C76    C86     1.402   .     A
C76    C110    1.413   .     A
C77    H115    1.083   .     S
C77    C85     1.403   .     A
C77    C111    1.412   .     A
C78    C86     1.401   .     A
C78    C112    1.413   .     A
C78    H116    1.082   .     S
C79    C87     1.366   .     S
C80    C88     1.366   .     S
Zn81   N84     2.020   .     S
Zn82   N83     2.020   .     S
N83    C109    1.376   .     A
N83    C111    1.377   .     A
N84    C112    1.380   .     A
N84    C110    1.378   .     A
C85    C214    1.515   1_545 S
C86    C213    1.515   .     S
C87    C600    1.166   1_554 S
C88    C343    1.166   .     S
C89    C107    1.399   .     A
C89    H93     1.083   .     S
C89    C97     1.381   .     A
C90    C98     1.381   .     A
C90    C108    1.402   .     A
C90    H94     1.083   .     S
C91    C99     1.381   .     A
C91    H95     1.083   .     S
C91    C108    1.400   .     A
C92    C107    1.398   .     A
C92    H96     1.084   .     S
C92    C100    1.380   .     A
C97    C105    1.399   .     A
C97    H101    1.080   .     S
C98    C106    1.395   .     A
C98    H102    1.084   .     S
C99    H103    1.082   .     S
C99    C106    1.395   .     A
C100   H104    1.083   .     S
C100   C105    1.402   .     A
C108   C43     1.446   1_655 S
C109   N117    1.429   .     S
C110   N120    1.427   .     S
C111   N123    1.428   .     S
C112   N126    1.431   .     S
N117   O118    1.299   .     A
N117   O119    1.301   .     A
N120   O122    1.301   .     A
N120   O121    1.299   .     A
N123   O124    1.299   .     A
N123   O125    1.300   .     A
N126   O127    1.299   .     A
N126   O128    1.301   .     A
O129   Zn145   1.997   .     S
O129   C133    1.296   .     A
O130   Zn146   1.997   .     S
O130   C134    1.288   .     A
O131   Zn145   1.999   .     S
O131   C134    1.291   .     A
O132   Zn146   1.999   .     S
O132   C133    1.292   .     A
C133   C169    1.445   .     S
C134   C170    1.428   .     S
O135   C143    1.281   .     A
O135   Zn145   1.950   .     S
O136   C144    1.281   .     A
O136   Zn146   1.950   .     S
O137   C144    1.281   .     A
O137   Zn145   1.949   .     S
O138   Zn146   1.949   .     S
O138   C143    1.280   .     A
C139   H177    1.083   .     S
C139   C173    1.412   .     A
C139   C149    1.404   .     A
C140   H178    1.083   .     S
C140   C150    1.402   .     A
C140   C174    1.413   .     A
C141   H179    1.083   .     S
C141   C149    1.403   .     A
C141   C175    1.412   .     A
C142   C150    1.401   .     A
C142   C176    1.413   .     A
C142   H180    1.082   .     S
C143   C151    1.366   .     S
C144   C152    1.366   .     S
Zn145  N148    2.020   .     S
Zn146  N147    2.020   .     S
N147   C173    1.376   .     A
N147   C175    1.377   .     A
N148   C176    1.380   .     A
N148   C174    1.378   .     A
C150   C21     1.515   1_565 S
C151   C664    1.166   1_554 S
C152   C407    1.166   .     S
C153   C171    1.399   .     A
C153   H157    1.083   .     S
C153   C161    1.381   .     A
C154   C162    1.381   .     A
C154   C172    1.402   .     A
C154   H158    1.083   .     S
C155   C163    1.381   .     A
C155   H159    1.083   .     S
C155   C172    1.400   .     A
C156   C171    1.398   .     A
C156   H160    1.084   .     S
C156   C164    1.380   .     A
C161   C169    1.399   .     A
C161   H165    1.080   .     S
C162   C170    1.395   .     A
C162   H166    1.084   .     S
C163   H167    1.082   .     S
C163   C170    1.395   .     A
C164   H168    1.083   .     S
C164   C169    1.402   .     A
C171   C236    1.446   1_455 S
C172   C235    1.446   .     S
C173   N181    1.429   .     S
C174   N184    1.427   .     S
C175   N187    1.428   .     S
C176   N190    1.431   .     S
N181   O182    1.299   .     A
N181   O183    1.301   .     A
N184   O186    1.301   .     A
N184   O185    1.299   .     A
N187   O188    1.299   .     A
N187   O189    1.300   .     A
N190   O191    1.299   .     A
N190   O192    1.301   .     A
O193   Zn209   1.997   .     S
O193   C197    1.296   .     A
O194   Zn210   1.997   .     S
O194   C198    1.288   .     A
O195   Zn209   1.999   .     S
O195   C198    1.291   .     A
O196   Zn210   1.999   .     S
O196   C197    1.292   .     A
C197   C233    1.445   .     S
C198   C234    1.428   .     S
O199   C207    1.281   .     A
O199   Zn209   1.950   .     S
O200   C208    1.281   .     A
O200   Zn210   1.950   .     S
O201   C208    1.281   .     A
O201   Zn209   1.949   .     S
O202   Zn210   1.949   .     S
O202   C207    1.280   .     A
C203   H241    1.083   .     S
C203   C237    1.412   .     A
C203   C213    1.404   .     A
C204   H242    1.083   .     S
C204   C214    1.402   .     A
C204   C238    1.413   .     A
C205   H243    1.083   .     S
C205   C213    1.403   .     A
C205   C239    1.412   .     A
C206   C214    1.401   .     A
C206   C240    1.413   .     A
C206   H244    1.082   .     S
C207   C215    1.366   .     S
C208   C216    1.366   .     S
Zn209  N212    2.020   .     S
Zn210  N211    2.020   .     S
N211   C237    1.376   .     A
N211   C239    1.377   .     A
N212   C240    1.380   .     A
N212   C238    1.378   .     A
C214   C85     1.515   1_565 S
C215   C728    1.166   1_554 S
C216   C471    1.166   .     S
C217   C235    1.399   .     A
C217   H221    1.083   .     S
C217   C225    1.381   .     A
C218   C226    1.381   .     A
C218   C236    1.402   .     A
C218   H222    1.083   .     S
C219   C227    1.381   .     A
C219   H223    1.083   .     S
C219   C236    1.400   .     A
C220   C235    1.398   .     A
C220   H224    1.084   .     S
C220   C228    1.380   .     A
C225   C233    1.399   .     A
C225   H229    1.080   .     S
C226   C234    1.395   .     A
C226   H230    1.084   .     S
C227   H231    1.082   .     S
C227   C234    1.395   .     A
C228   H232    1.083   .     S
C228   C233    1.402   .     A
C236   C171    1.446   1_655 S
C237   N245    1.429   .     S
C238   N248    1.427   .     S
C239   N251    1.428   .     S
C240   N254    1.431   .     S
N245   O246    1.299   .     A
N245   O247    1.301   .     A
N248   O250    1.301   .     A
N248   O249    1.299   .     A
N251   O252    1.299   .     A
N251   O253    1.300   .     A
N254   O255    1.299   .     A
N254   O256    1.301   .     A
O257   Zn273   1.997   .     S
O257   C261    1.296   .     A
O258   Zn274   1.997   .     S
O258   C262    1.288   .     A
O259   Zn273   1.999   .     S
O259   C262    1.291   .     A
O260   Zn274   1.999   .     S
O260   C261    1.292   .     A
C261   C297    1.445   .     S
C262   C298    1.428   .     S
O263   C271    1.281   .     A
O263   Zn273   1.950   .     S
O264   C272    1.281   .     A
O264   Zn274   1.950   .     S
O265   C272    1.281   .     A
O265   Zn273   1.949   .     S
O266   Zn274   1.949   .     S
O266   C271    1.280   .     A
C267   H305    1.083   .     S
C267   C301    1.412   .     A
C267   C277    1.404   .     A
C268   H306    1.083   .     S
C268   C278    1.402   .     A
C268   C302    1.413   .     A
C269   H307    1.083   .     S
C269   C277    1.403   .     A
C269   C303    1.412   .     A
C270   C278    1.401   .     A
C270   C304    1.413   .     A
C270   H308    1.082   .     S
C271   C279    1.366   .     S
C272   C280    1.366   .     S
Zn273  N276    2.020   .     S
Zn274  N275    2.020   .     S
N275   C301    1.376   .     A
N275   C303    1.377   .     A
N276   C304    1.380   .     A
N276   C302    1.378   .     A
C277   C406    1.515   1_545 S
C278   C405    1.515   .     S
C280   C535    1.166   .     S
C281   C299    1.399   .     A
C281   H285    1.083   .     S
C281   C289    1.381   .     A
C282   C290    1.381   .     A
C282   C300    1.402   .     A
C282   H286    1.083   .     S
C283   C291    1.381   .     A
C283   H287    1.083   .     S
C283   C300    1.400   .     A
C284   C299    1.398   .     A
C284   H288    1.084   .     S
C284   C292    1.380   .     A
C289   C297    1.399   .     A
C289   H293    1.080   .     S
C290   C298    1.395   .     A
C290   H294    1.084   .     S
C291   H295    1.082   .     S
C291   C298    1.395   .     A
C292   H296    1.083   .     S
C292   C297    1.402   .     A
C299   C364    1.446   1_455 S
C300   C363    1.446   .     S
C301   N309    1.429   .     S
C302   N312    1.427   .     S
C303   N315    1.428   .     S
C304   N318    1.431   .     S
N309   O310    1.299   .     A
N309   O311    1.301   .     A
N312   O314    1.301   .     A
N312   O313    1.299   .     A
N315   O316    1.299   .     A
N315   O317    1.300   .     A
N318   O319    1.299   .     A
N318   O320    1.301   .     A
O321   Zn337   1.997   .     S
O321   C325    1.296   .     A
O322   Zn338   1.997   .     S
O322   C326    1.288   .     A
O323   Zn337   1.999   .     S
O323   C326    1.291   .     A
O324   Zn338   1.999   .     S
O324   C325    1.292   .     A
C325   C361    1.445   .     S
C326   C362    1.428   .     S
O327   C335    1.281   .     A
O327   Zn337   1.950   .     S
O328   C336    1.281   .     A
O328   Zn338   1.950   .     S
O329   C336    1.281   .     A
O329   Zn337   1.949   .     S
O330   Zn338   1.949   .     S
O330   C335    1.280   .     A
C331   H369    1.083   .     S
C331   C365    1.412   .     A
C331   C341    1.404   .     A
C332   H370    1.083   .     S
C332   C342    1.402   .     A
C332   C366    1.413   .     A
C333   H371    1.083   .     S
C333   C341    1.403   .     A
C333   C367    1.412   .     A
C334   C342    1.401   .     A
C334   C368    1.413   .     A
C334   H372    1.082   .     S
C335   C343    1.366   .     S
C336   C344    1.366   .     S
Zn337  N340    2.020   .     S
Zn338  N339    2.020   .     S
N339   C365    1.376   .     A
N339   C367    1.377   .     A
N340   C368    1.380   .     A
N340   C366    1.378   .     A
C341   C470    1.515   1_545 S
C342   C469    1.515   .     S
C344   C599    1.166   .     S
C345   C363    1.399   .     A
C345   H349    1.083   .     S
C345   C353    1.381   .     A
C346   C354    1.381   .     A
C346   C364    1.402   .     A
C346   H350    1.083   .     S
C347   C355    1.381   .     A
C347   H351    1.083   .     S
C347   C364    1.400   .     A
C348   C363    1.398   .     A
C348   H352    1.084   .     S
C348   C356    1.380   .     A
C353   C361    1.399   .     A
C353   H357    1.080   .     S
C354   C362    1.395   .     A
C354   H358    1.084   .     S
C355   H359    1.082   .     S
C355   C362    1.395   .     A
C356   H360    1.083   .     S
C356   C361    1.402   .     A
C364   C299    1.446   1_655 S
C365   N373    1.429   .     S
C366   N376    1.427   .     S
C367   N379    1.428   .     S
C368   N382    1.431   .     S
N373   O374    1.299   .     A
N373   O375    1.301   .     A
N376   O378    1.301   .     A
N376   O377    1.299   .     A
N379   O380    1.299   .     A
N379   O381    1.300   .     A
N382   O383    1.299   .     A
N382   O384    1.301   .     A
O385   Zn401   1.997   .     S
O385   C389    1.296   .     A
O386   Zn402   1.997   .     S
O386   C390    1.288   .     A
O387   Zn401   1.999   .     S
O387   C390    1.291   .     A
O388   Zn402   1.999   .     S
O388   C389    1.292   .     A
C389   C425    1.445   .     S
C390   C426    1.428   .     S
O391   C399    1.281   .     A
O391   Zn401   1.950   .     S
O392   C400    1.281   .     A
O392   Zn402   1.950   .     S
O393   C400    1.281   .     A
O393   Zn401   1.949   .     S
O394   Zn402   1.949   .     S
O394   C399    1.280   .     A
C395   H433    1.083   .     S
C395   C429    1.412   .     A
C395   C405    1.404   .     A
C396   H434    1.083   .     S
C396   C406    1.402   .     A
C396   C430    1.413   .     A
C397   H435    1.083   .     S
C397   C405    1.403   .     A
C397   C431    1.412   .     A
C398   C406    1.401   .     A
C398   C432    1.413   .     A
C398   H436    1.082   .     S
C399   C407    1.366   .     S
C400   C408    1.366   .     S
Zn401  N404    2.020   .     S
Zn402  N403    2.020   .     S
N403   C429    1.376   .     A
N403   C431    1.377   .     A
N404   C432    1.380   .     A
N404   C430    1.378   .     A
C406   C277    1.515   1_565 S
C408   C663    1.166   .     S
C409   C427    1.399   .     A
C409   H413    1.083   .     S
C409   C417    1.381   .     A
C410   C418    1.381   .     A
C410   C428    1.402   .     A
C410   H414    1.083   .     S
C411   C419    1.381   .     A
C411   H415    1.083   .     S
C411   C428    1.400   .     A
C412   C427    1.398   .     A
C412   H416    1.084   .     S
C412   C420    1.380   .     A
C417   C425    1.399   .     A
C417   H421    1.080   .     S
C418   C426    1.395   .     A
C418   H422    1.084   .     S
C419   H423    1.082   .     S
C419   C426    1.395   .     A
C420   H424    1.083   .     S
C420   C425    1.402   .     A
C427   C492    1.446   1_455 S
C428   C491    1.446   .     S
C429   N437    1.429   .     S
C430   N440    1.427   .     S
C431   N443    1.428   .     S
C432   N446    1.431   .     S
N437   O438    1.299   .     A
N437   O439    1.301   .     A
N440   O442    1.301   .     A
N440   O441    1.299   .     A
N443   O444    1.299   .     A
N443   O445    1.300   .     A
N446   O447    1.299   .     A
N446   O448    1.301   .     A
O449   Zn465   1.997   .     S
O449   C453    1.296   .     A
O450   Zn466   1.997   .     S
O450   C454    1.288   .     A
O451   Zn465   1.999   .     S
O451   C454    1.291   .     A
O452   Zn466   1.999   .     S
O452   C453    1.292   .     A
C453   C489    1.445   .     S
C454   C490    1.428   .     S
O455   C463    1.281   .     A
O455   Zn465   1.950   .     S
O456   C464    1.281   .     A
O456   Zn466   1.950   .     S
O457   C464    1.281   .     A
O457   Zn465   1.949   .     S
O458   Zn466   1.949   .     S
O458   C463    1.280   .     A
C459   H497    1.083   .     S
C459   C493    1.412   .     A
C459   C469    1.404   .     A
C460   H498    1.083   .     S
C460   C470    1.402   .     A
C460   C494    1.413   .     A
C461   H499    1.083   .     S
C461   C469    1.403   .     A
C461   C495    1.412   .     A
C462   C470    1.401   .     A
C462   C496    1.413   .     A
C462   H500    1.082   .     S
C463   C471    1.366   .     S
C464   C472    1.366   .     S
Zn465  N468    2.020   .     S
Zn466  N467    2.020   .     S
N467   C493    1.376   .     A
N467   C495    1.377   .     A
N468   C496    1.380   .     A
N468   C494    1.378   .     A
C470   C341    1.515   1_565 S
C472   C727    1.166   .     S
C473   C491    1.399   .     A
C473   H477    1.083   .     S
C473   C481    1.381   .     A
C474   C482    1.381   .     A
C474   C492    1.402   .     A
C474   H478    1.083   .     S
C475   C483    1.381   .     A
C475   H479    1.083   .     S
C475   C492    1.400   .     A
C476   C491    1.398   .     A
C476   H480    1.084   .     S
C476   C484    1.380   .     A
C481   C489    1.399   .     A
C481   H485    1.080   .     S
C482   C490    1.395   .     A
C482   H486    1.084   .     S
C483   H487    1.082   .     S
C483   C490    1.395   .     A
C484   H488    1.083   .     S
C484   C489    1.402   .     A
C492   C427    1.446   1_655 S
C493   N501    1.429   .     S
C494   N504    1.427   .     S
C495   N507    1.428   .     S
C496   N510    1.431   .     S
N501   O502    1.299   .     A
N501   O503    1.301   .     A
N504   O506    1.301   .     A
N504   O505    1.299   .     A
N507   O508    1.299   .     A
N507   O509    1.300   .     A
N510   O511    1.299   .     A
N510   O512    1.301   .     A
O513   Zn529   1.997   .     S
O513   C517    1.296   .     A
O514   Zn530   1.997   .     S
O514   C518    1.288   .     A
O515   Zn529   1.999   .     S
O515   C518    1.291   .     A
O516   Zn530   1.999   .     S
O516   C517    1.292   .     A
C517   C553    1.445   .     S
C518   C554    1.428   .     S
O519   C527    1.281   .     A
O519   Zn529   1.950   .     S
O520   C528    1.281   .     A
O520   Zn530   1.950   .     S
O521   C528    1.281   .     A
O521   Zn529   1.949   .     S
O522   Zn530   1.949   .     S
O522   C527    1.280   .     A
C523   H561    1.083   .     S
C523   C557    1.412   .     A
C523   C533    1.404   .     A
C524   H562    1.083   .     S
C524   C534    1.402   .     A
C524   C558    1.413   .     A
C525   H563    1.083   .     S
C525   C533    1.403   .     A
C525   C559    1.412   .     A
C526   C534    1.401   .     A
C526   C560    1.413   .     A
C526   H564    1.082   .     S
C527   C535    1.366   .     S
C528   C536    1.366   .     S
Zn529  N532    2.020   .     S
Zn530  N531    2.020   .     S
N531   C557    1.376   .     A
N531   C559    1.377   .     A
N532   C560    1.380   .     A
N532   C558    1.378   .     A
C533   C662    1.515   1_545 S
C534   C661    1.515   .     S
C536   C23     1.166   1_556 S
C537   C555    1.399   .     A
C537   H541    1.083   .     S
C537   C545    1.381   .     A
C538   C546    1.381   .     A
C538   C556    1.402   .     A
C538   H542    1.083   .     S
C539   C547    1.381   .     A
C539   H543    1.083   .     S
C539   C556    1.400   .     A
C540   C555    1.398   .     A
C540   H544    1.084   .     S
C540   C548    1.380   .     A
C545   C553    1.399   .     A
C545   H549    1.080   .     S
C546   C554    1.395   .     A
C546   H550    1.084   .     S
C547   H551    1.082   .     S
C547   C554    1.395   .     A
C548   H552    1.083   .     S
C548   C553    1.402   .     A
C555   C620    1.446   1_455 S
C556   C619    1.446   .     S
C557   N565    1.429   .     S
C558   N568    1.427   .     S
C559   N571    1.428   .     S
C560   N574    1.431   .     S
N565   O566    1.299   .     A
N565   O567    1.301   .     A
N568   O570    1.301   .     A
N568   O569    1.299   .     A
N571   O572    1.299   .     A
N571   O573    1.300   .     A
N574   O575    1.299   .     A
N574   O576    1.301   .     A
O577   Zn593   1.997   .     S
O577   C581    1.296   .     A
O578   Zn594   1.997   .     S
O578   C582    1.288   .     A
O579   Zn593   1.999   .     S
O579   C582    1.291   .     A
O580   Zn594   1.999   .     S
O580   C581    1.292   .     A
C581   C617    1.445   .     S
C582   C618    1.428   .     S
O583   C591    1.281   .     A
O583   Zn593   1.950   .     S
O584   C592    1.281   .     A
O584   Zn594   1.950   .     S
O585   C592    1.281   .     A
O585   Zn593   1.949   .     S
O586   Zn594   1.949   .     S
O586   C591    1.280   .     A
C587   H625    1.083   .     S
C587   C621    1.412   .     A
C587   C597    1.404   .     A
C588   H626    1.083   .     S
C588   C598    1.402   .     A
C588   C622    1.413   .     A
C589   H627    1.083   .     S
C589   C597    1.403   .     A
C589   C623    1.412   .     A
C590   C598    1.401   .     A
C590   C624    1.413   .     A
C590   H628    1.082   .     S
C591   C599    1.366   .     S
C592   C600    1.366   .     S
Zn593  N596    2.020   .     S
Zn594  N595    2.020   .     S
N595   C621    1.376   .     A
N595   C623    1.377   .     A
N596   C624    1.380   .     A
N596   C622    1.378   .     A
C597   C726    1.515   1_545 S
C598   C725    1.515   .     S
C600   C87     1.166   1_556 S
C601   C619    1.399   .     A
C601   H605    1.083   .     S
C601   C609    1.381   .     A
C602   C610    1.381   .     A
C602   C620    1.402   .     A
C602   H606    1.083   .     S
C603   C611    1.381   .     A
C603   H607    1.083   .     S
C603   C620    1.400   .     A
C604   C619    1.398   .     A
C604   H608    1.084   .     S
C604   C612    1.380   .     A
C609   C617    1.399   .     A
C609   H613    1.080   .     S
C610   C618    1.395   .     A
C610   H614    1.084   .     S
C611   H615    1.082   .     S
C611   C618    1.395   .     A
C612   H616    1.083   .     S
C612   C617    1.402   .     A
C620   C555    1.446   1_655 S
C621   N629    1.429   .     S
C622   N632    1.427   .     S
C623   N635    1.428   .     S
C624   N638    1.431   .     S
N629   O630    1.299   .     A
N629   O631    1.301   .     A
N632   O634    1.301   .     A
N632   O633    1.299   .     A
N635   O636    1.299   .     A
N635   O637    1.300   .     A
N638   O639    1.299   .     A
N638   O640    1.301   .     A
O641   Zn657   1.997   .     S
O641   C645    1.296   .     A
O642   Zn658   1.997   .     S
O642   C646    1.288   .     A
O643   Zn657   1.999   .     S
O643   C646    1.291   .     A
O644   Zn658   1.999   .     S
O644   C645    1.292   .     A
C645   C681    1.445   .     S
C646   C682    1.428   .     S
O647   C655    1.281   .     A
O647   Zn657   1.950   .     S
O648   C656    1.281   .     A
O648   Zn658   1.950   .     S
O649   C656    1.281   .     A
O649   Zn657   1.949   .     S
O650   Zn658   1.949   .     S
O650   C655    1.280   .     A
C651   H689    1.083   .     S
C651   C685    1.412   .     A
C651   C661    1.404   .     A
C652   H690    1.083   .     S
C652   C662    1.402   .     A
C652   C686    1.413   .     A
C653   H691    1.083   .     S
C653   C661    1.403   .     A
C653   C687    1.412   .     A
C654   C662    1.401   .     A
C654   C688    1.413   .     A
C654   H692    1.082   .     S
C655   C663    1.366   .     S
C656   C664    1.366   .     S
Zn657  N660    2.020   .     S
Zn658  N659    2.020   .     S
N659   C685    1.376   .     A
N659   C687    1.377   .     A
N660   C688    1.380   .     A
N660   C686    1.378   .     A
C662   C533    1.515   1_565 S
C664   C151    1.166   1_556 S
C665   C683    1.399   .     A
C665   H669    1.083   .     S
C665   C673    1.381   .     A
C666   C674    1.381   .     A
C666   C684    1.402   .     A
C666   H670    1.083   .     S
C667   C675    1.381   .     A
C667   H671    1.083   .     S
C667   C684    1.400   .     A
C668   C683    1.398   .     A
C668   H672    1.084   .     S
C668   C676    1.380   .     A
C673   C681    1.399   .     A
C673   H677    1.080   .     S
C674   C682    1.395   .     A
C674   H678    1.084   .     S
C675   H679    1.082   .     S
C675   C682    1.395   .     A
C676   H680    1.083   .     S
C676   C681    1.402   .     A
C683   C748    1.446   1_455 S
C684   C747    1.446   .     S
C685   N693    1.429   .     S
C686   N696    1.427   .     S
C687   N699    1.428   .     S
C688   N702    1.431   .     S
N693   O694    1.299   .     A
N693   O695    1.301   .     A
N696   O698    1.301   .     A
N696   O697    1.299   .     A
N699   O700    1.299   .     A
N699   O701    1.300   .     A
N702   O703    1.299   .     A
N702   O704    1.301   .     A
O705   Zn721   1.997   .     S
O705   C709    1.296   .     A
O706   Zn722   1.997   .     S
O706   C710    1.288   .     A
O707   Zn721   1.999   .     S
O707   C710    1.291   .     A
O708   Zn722   1.999   .     S
O708   C709    1.292   .     A
C709   C745    1.445   .     S
C710   C746    1.428   .     S
O711   C719    1.281   .     A
O711   Zn721   1.950   .     S
O712   C720    1.281   .     A
O712   Zn722   1.950   .     S
O713   C720    1.281   .     A
O713   Zn721   1.949   .     S
O714   Zn722   1.949   .     S
O714   C719    1.280   .     A
C715   H753    1.083   .     S
C715   C749    1.412   .     A
C715   C725    1.404   .     A
C716   H754    1.083   .     S
C716   C726    1.402   .     A
C716   C750    1.413   .     A
C717   H755    1.083   .     S
C717   C725    1.403   .     A
C717   C751    1.412   .     A
C718   C726    1.401   .     A
C718   C752    1.413   .     A
C718   H756    1.082   .     S
C719   C727    1.366   .     S
C720   C728    1.366   .     S
Zn721  N724    2.020   .     S
Zn722  N723    2.020   .     S
N723   C749    1.376   .     A
N723   C751    1.377   .     A
N724   C752    1.380   .     A
N724   C750    1.378   .     A
C726   C597    1.515   1_565 S
C728   C215    1.166   1_556 S
C729   C747    1.399   .     A
C729   H733    1.083   .     S
C729   C737    1.381   .     A
C730   C738    1.381   .     A
C730   C748    1.402   .     A
C730   H734    1.083   .     S
C731   C739    1.381   .     A
C731   H735    1.083   .     S
C731   C748    1.400   .     A
C732   C747    1.398   .     A
C732   H736    1.084   .     S
C732   C740    1.380   .     A
C737   C745    1.399   .     A
C737   H741    1.080   .     S
C738   C746    1.395   .     A
C738   H742    1.084   .     S
C739   H743    1.082   .     S
C739   C746    1.395   .     A
C740   H744    1.083   .     S
C740   C745    1.402   .     A
C748   C683    1.446   1_655 S
C749   N757    1.429   .     S
C750   N760    1.427   .     S
C751   N763    1.428   .     S
C752   N766    1.431   .     S
N757   O758    1.299   .     A
N757   O759    1.301   .     A
N760   O762    1.301   .     A
N760   O761    1.299   .     A
N763   O764    1.299   .     A
N763   O765    1.300   .     A
N766   O767    1.299   .     A
N766   O768    1.301   .     A
