data_str_m3_o1_o18_pcu_sym.136
_audit_creation_date              2020-01-03
_audit_creation_method            'Materials Studio'
_symmetry_space_group_name_H-M    'P1'
_symmetry_Int_Tables_number       1
_symmetry_cell_setting            triclinic
loop_
_symmetry_equiv_pos_as_xyz
  x,y,z
_cell_length_a                    29.9861
_cell_length_b                    32.2283
_cell_length_c                    31.2745
_cell_angle_alpha                 94.7279
_cell_angle_beta                  69.5482
_cell_angle_gamma                 90.0656
loop_
_atom_site_label
_atom_site_type_symbol
_atom_site_fract_x
_atom_site_fract_y
_atom_site_fract_z
_atom_site_U_iso_or_equiv
_atom_site_adp_type
_atom_site_occupancy
C1     C     0.16658   0.24661   0.24971   0.00000  Uiso   1.00
C2     C     0.16542   0.08723   0.25391   0.00000  Uiso   1.00
C3     C     0.10735   0.15799   0.05060   0.00000  Uiso   1.00
C4     C     0.20992   0.11476   0.45393   0.00000  Uiso   1.00
C5     C     0.07569   0.17035   0.03011   0.00000  Uiso   1.00
C6     C     0.24299   0.10874   0.47542   0.00000  Uiso   1.00
C7     C     0.19880   0.31243   0.26647   0.00000  Uiso   1.00
C8     C     0.12623   0.02218   0.25210   0.00000  Uiso   1.00
C9     C     0.19851   0.02193   0.27040   0.00000  Uiso   1.00
C10    C     0.12788   0.31301   0.24523   0.00000  Uiso   1.00
C11    C     0.16342   0.04348   0.25985   0.00000  Uiso   1.00
C12    C     0.16483   0.29113   0.25255   0.00000  Uiso   1.00
C13    C     0.32012   0.13992   0.21994   0.00000  Uiso   1.00
C14    C     0.01330   0.19465   0.27929   0.00000  Uiso   1.00
C15    C     0.03368   0.13809   0.22199   0.00000  Uiso   1.00
C16    C     0.29918   0.19590   0.27752   0.00000  Uiso   1.00
C17    C     0.13712   0.16659   0.33738   0.00000  Uiso   1.00
C18    C     0.19637   0.16544   0.16231   0.00000  Uiso   1.00
C19    C     0.11980   0.16609   0.38709   0.00000  Uiso   1.00
C20    C     0.21355   0.15701   0.11214   0.00000  Uiso   1.00
C21    C     0.05887   0.18276   0.46125   0.00000  Uiso   1.00
C22    C     0.26727   0.11914   0.04268   0.00000  Uiso   1.00
C23    C     0.07320   0.17871   0.41370   0.00000  Uiso   1.00
C24    C     0.25655   0.13511   0.08815   0.00000  Uiso   1.00
C25    C     0.15133   0.15451   0.40806   0.00000  Uiso   1.00
C26    C     0.18232   0.16455   0.08945   0.00000  Uiso   1.00
C27    C     0.13672   0.15388   0.45551   0.00000  Uiso   1.00
C28    C     0.19071   0.14687   0.04478   0.00000  Uiso   1.00
C29    C     0.09034   0.16996   0.48259   0.00000  Uiso   1.00
C30    C     0.23448   0.12536   0.02038   0.00000  Uiso   1.00
C31    C     0.16835   0.14043   0.47681   0.00000  Uiso   1.00
C32    C     0.15597   0.15049   0.02415   0.00000  Uiso   1.00
H33    H     0.03877   0.17649   0.05133   0.00000  Uiso   1.00
H34    H     0.27441   0.08944   0.45708   0.00000  Uiso   1.00
H35    H     0.15051   0.18356   0.10755   0.00000  Uiso   1.00
H36    H     0.18785   0.14714   0.38694   0.00000  Uiso   1.00
H37    H     0.28114   0.12857   0.10491   0.00000  Uiso   1.00
H38    H     0.04849   0.18694   0.39755   0.00000  Uiso   1.00
H39    H     0.22574   0.29593   0.27453   0.00000  Uiso   1.00
H40    H     0.09637   0.03870   0.24968   0.00000  Uiso   1.00
N41    N     0.04759   0.16668   0.25001   0.00000  Uiso   1.00
N42    N     0.28574   0.16666   0.24999   0.00000  Uiso   1.00
O43    O     0.12846   0.22775   0.25001   0.00000  Uiso   1.00
O44    O     0.20488   0.10558   0.25000   0.00000  Uiso   1.00
O45    O     0.20490   0.22774   0.25000   0.00000  Uiso   1.00
O46    O     0.12843   0.10559   0.25000   0.00000  Uiso   1.00
O47    O     0.10661   0.16667   0.31613   0.00000  Uiso   1.00
O48    O     0.22672   0.16666   0.18388   0.00000  Uiso   1.00
O49    O     0.18305   0.16666   0.31612   0.00000  Uiso   1.00
O50    O     0.15028   0.16667   0.18388   0.00000  Uiso   1.00
Zn51   Zn    0.11562   0.16667   0.25000   0.00000  Uiso   1.00
Zn52   Zn    0.21771   0.16666   0.25000   0.00000  Uiso   1.00
I53    I     0.32423   0.21178   0.49721   0.00000  Uiso   1.00
I54    I     0.33186   0.08324   0.01213   0.00000  Uiso   1.00
N55    N     0.08839   0.14023   0.09302   0.00000  Uiso   1.00
H56    H     0.05668   0.15358   0.11507   0.00000  Uiso   1.00
C57    C     0.08974   0.09493   0.08817   0.00000  Uiso   1.00
H58    H     0.11286   0.08302   0.10566   0.00000  Uiso   1.00
H59    H     0.10429   0.08174   0.05177   0.00000  Uiso   1.00
H60    H     0.05342   0.08319   0.10269   0.00000  Uiso   1.00
N61    N     0.21492   0.08903   0.41319   0.00000  Uiso   1.00
H62    H     0.24929   0.07919   0.39372   0.00000  Uiso   1.00
C63    C     0.18016   0.05671   0.41778   0.00000  Uiso   1.00
H64    H     0.19809   0.02550   0.41158   0.00000  Uiso   1.00
H65    H     0.16272   0.05950   0.39212   0.00000  Uiso   1.00
H66    H     0.15199   0.05893   0.45238   0.00000  Uiso   1.00
I67    I     0.24937   0.04910   0.29690   0.00000  Uiso   1.00
I68    I     0.07536   0.28780   0.21922   0.00000  Uiso   1.00
N69    N     0.31465   0.12438   0.17819   0.00000  Uiso   1.00
H70    H     0.31040   0.14714   0.15868   0.00000  Uiso   1.00
C71    C     0.29069   0.08584   0.17499   0.00000  Uiso   1.00
H72    H     0.25553   0.09190   0.17234   0.00000  Uiso   1.00
H73    H     0.28714   0.06734   0.20404   0.00000  Uiso   1.00
H74    H     0.31125   0.06684   0.14298   0.00000  Uiso   1.00
N75    N     0.02645   0.22470   0.30887   0.00000  Uiso   1.00
H76    H     0.06070   0.22198   0.30739   0.00000  Uiso   1.00
C77    C     0.32859   0.23387   0.35593   0.00000  Uiso   1.00
H78    H     0.01645   0.24028   0.37841   0.00000  Uiso   1.00
H79    H     0.30504   0.20757   0.36864   0.00000  Uiso   1.00
H80    H     0.30863   0.26342   0.35906   0.00000  Uiso   1.00
N81    N     0.06717   0.10802   0.19179   0.00000  Uiso   1.00
H82    H     0.10209   0.11265   0.18720   0.00000  Uiso   1.00
C83    C     0.05512   0.06461   0.19548   0.00000  Uiso   1.00
H84    H     0.03673   0.05426   0.17184   0.00000  Uiso   1.00
H85    H     0.03277   0.05888   0.23108   0.00000  Uiso   1.00
H86    H     0.08823   0.04495   0.18359   0.00000  Uiso   1.00
N87    N     0.27024   0.23292   0.29505   0.00000  Uiso   1.00
H88    H     0.28857   0.26024   0.28962   0.00000  Uiso   1.00
C89    C     0.23200   0.23378   0.33910   0.00000  Uiso   1.00
H90    H     0.23500   0.26070   0.36227   0.00000  Uiso   1.00
H91    H     0.23196   0.20485   0.35599   0.00000  Uiso   1.00
H92    H     0.19743   0.23893   0.33470   0.00000  Uiso   1.00
C93    C     0.49991   0.24661   0.24971   0.00000  Uiso   1.00
C94    C     0.49875   0.08723   0.25391   0.00000  Uiso   1.00
C95    C     0.44068   0.15799   0.05060   0.00000  Uiso   1.00
C96    C     0.54325   0.11476   0.45393   0.00000  Uiso   1.00
C97    C     0.40902   0.17035   0.03011   0.00000  Uiso   1.00
C98    C     0.57633   0.10874   0.47542   0.00000  Uiso   1.00
C99    C     0.53213   0.31243   0.26647   0.00000  Uiso   1.00
C100   C     0.45956   0.02218   0.25210   0.00000  Uiso   1.00
C101   C     0.53184   0.02193   0.27040   0.00000  Uiso   1.00
C102   C     0.46121   0.31301   0.24523   0.00000  Uiso   1.00
C103   C     0.49676   0.04348   0.25985   0.00000  Uiso   1.00
C104   C     0.49816   0.29113   0.25255   0.00000  Uiso   1.00
C105   C     0.65345   0.13992   0.21994   0.00000  Uiso   1.00
C106   C     0.34663   0.19465   0.27929   0.00000  Uiso   1.00
C107   C     0.36701   0.13809   0.22199   0.00000  Uiso   1.00
C108   C     0.63251   0.19590   0.27752   0.00000  Uiso   1.00
C109   C     0.47045   0.16659   0.33738   0.00000  Uiso   1.00
C110   C     0.52970   0.16544   0.16231   0.00000  Uiso   1.00
C111   C     0.45313   0.16609   0.38709   0.00000  Uiso   1.00
C112   C     0.54688   0.15701   0.11214   0.00000  Uiso   1.00
C113   C     0.39220   0.18276   0.46125   0.00000  Uiso   1.00
C114   C     0.60060   0.11914   0.04268   0.00000  Uiso   1.00
C115   C     0.40653   0.17871   0.41370   0.00000  Uiso   1.00
C116   C     0.58989   0.13511   0.08815   0.00000  Uiso   1.00
C117   C     0.48466   0.15451   0.40806   0.00000  Uiso   1.00
C118   C     0.51565   0.16455   0.08945   0.00000  Uiso   1.00
C119   C     0.47006   0.15388   0.45551   0.00000  Uiso   1.00
C120   C     0.52404   0.14687   0.04478   0.00000  Uiso   1.00
C121   C     0.42367   0.16996   0.48259   0.00000  Uiso   1.00
C122   C     0.56781   0.12536   0.02038   0.00000  Uiso   1.00
C123   C     0.50168   0.14043   0.47681   0.00000  Uiso   1.00
C124   C     0.48931   0.15049   0.02415   0.00000  Uiso   1.00
H125   H     0.37211   0.17649   0.05133   0.00000  Uiso   1.00
H126   H     0.60775   0.08944   0.45708   0.00000  Uiso   1.00
H127   H     0.48385   0.18356   0.10755   0.00000  Uiso   1.00
H128   H     0.52118   0.14714   0.38694   0.00000  Uiso   1.00
H129   H     0.61448   0.12857   0.10491   0.00000  Uiso   1.00
H130   H     0.38183   0.18694   0.39755   0.00000  Uiso   1.00
H131   H     0.55908   0.29593   0.27453   0.00000  Uiso   1.00
H132   H     0.42970   0.03870   0.24968   0.00000  Uiso   1.00
N133   N     0.38093   0.16668   0.25001   0.00000  Uiso   1.00
N134   N     0.61907   0.16666   0.24999   0.00000  Uiso   1.00
O135   O     0.46179   0.22775   0.25001   0.00000  Uiso   1.00
O136   O     0.53821   0.10558   0.25000   0.00000  Uiso   1.00
O137   O     0.53823   0.22774   0.25000   0.00000  Uiso   1.00
O138   O     0.46177   0.10559   0.25000   0.00000  Uiso   1.00
O139   O     0.43994   0.16667   0.31613   0.00000  Uiso   1.00
O140   O     0.56006   0.16666   0.18388   0.00000  Uiso   1.00
O141   O     0.51639   0.16666   0.31612   0.00000  Uiso   1.00
O142   O     0.48361   0.16667   0.18388   0.00000  Uiso   1.00
Zn143  Zn    0.44896   0.16667   0.25000   0.00000  Uiso   1.00
Zn144  Zn    0.55104   0.16666   0.25000   0.00000  Uiso   1.00
I145   I     0.65757   0.21178   0.49721   0.00000  Uiso   1.00
I146   I     0.66519   0.08324   0.01213   0.00000  Uiso   1.00
N147   N     0.42173   0.14023   0.09302   0.00000  Uiso   1.00
H148   H     0.39001   0.15358   0.11507   0.00000  Uiso   1.00
C149   C     0.42308   0.09493   0.08817   0.00000  Uiso   1.00
H150   H     0.44619   0.08302   0.10566   0.00000  Uiso   1.00
H151   H     0.43762   0.08174   0.05177   0.00000  Uiso   1.00
H152   H     0.38675   0.08319   0.10269   0.00000  Uiso   1.00
N153   N     0.54825   0.08903   0.41319   0.00000  Uiso   1.00
H154   H     0.58263   0.07919   0.39372   0.00000  Uiso   1.00
C155   C     0.51349   0.05671   0.41778   0.00000  Uiso   1.00
H156   H     0.53142   0.02550   0.41158   0.00000  Uiso   1.00
H157   H     0.49605   0.05950   0.39212   0.00000  Uiso   1.00
H158   H     0.48532   0.05893   0.45238   0.00000  Uiso   1.00
I159   I     0.58270   0.04910   0.29690   0.00000  Uiso   1.00
I160   I     0.40869   0.28780   0.21922   0.00000  Uiso   1.00
N161   N     0.64798   0.12438   0.17819   0.00000  Uiso   1.00
H162   H     0.64374   0.14714   0.15868   0.00000  Uiso   1.00
C163   C     0.62403   0.08584   0.17499   0.00000  Uiso   1.00
H164   H     0.58886   0.09190   0.17234   0.00000  Uiso   1.00
H165   H     0.62047   0.06734   0.20404   0.00000  Uiso   1.00
H166   H     0.64459   0.06684   0.14298   0.00000  Uiso   1.00
N167   N     0.35979   0.22470   0.30887   0.00000  Uiso   1.00
H168   H     0.39404   0.22198   0.30739   0.00000  Uiso   1.00
C169   C     0.66192   0.23387   0.35593   0.00000  Uiso   1.00
H170   H     0.34979   0.24028   0.37841   0.00000  Uiso   1.00
H171   H     0.63837   0.20757   0.36864   0.00000  Uiso   1.00
H172   H     0.64197   0.26342   0.35906   0.00000  Uiso   1.00
N173   N     0.40050   0.10802   0.19179   0.00000  Uiso   1.00
H174   H     0.43542   0.11265   0.18720   0.00000  Uiso   1.00
C175   C     0.38845   0.06461   0.19548   0.00000  Uiso   1.00
H176   H     0.37006   0.05426   0.17184   0.00000  Uiso   1.00
H177   H     0.36610   0.05888   0.23108   0.00000  Uiso   1.00
H178   H     0.42156   0.04495   0.18359   0.00000  Uiso   1.00
N179   N     0.60357   0.23292   0.29505   0.00000  Uiso   1.00
H180   H     0.62190   0.26024   0.28962   0.00000  Uiso   1.00
C181   C     0.56533   0.23378   0.33910   0.00000  Uiso   1.00
H182   H     0.56834   0.26070   0.36227   0.00000  Uiso   1.00
H183   H     0.56529   0.20485   0.35599   0.00000  Uiso   1.00
H184   H     0.53076   0.23893   0.33470   0.00000  Uiso   1.00
C185   C     0.83325   0.24661   0.24971   0.00000  Uiso   1.00
C186   C     0.83208   0.08723   0.25391   0.00000  Uiso   1.00
C187   C     0.77401   0.15799   0.05060   0.00000  Uiso   1.00
C188   C     0.87658   0.11476   0.45393   0.00000  Uiso   1.00
C189   C     0.74236   0.17035   0.03011   0.00000  Uiso   1.00
C190   C     0.90966   0.10874   0.47542   0.00000  Uiso   1.00
C191   C     0.86547   0.31243   0.26647   0.00000  Uiso   1.00
C192   C     0.79289   0.02218   0.25210   0.00000  Uiso   1.00
C193   C     0.86517   0.02193   0.27040   0.00000  Uiso   1.00
C194   C     0.79455   0.31301   0.24523   0.00000  Uiso   1.00
C195   C     0.83009   0.04348   0.25985   0.00000  Uiso   1.00
C196   C     0.83149   0.29113   0.25255   0.00000  Uiso   1.00
C197   C     0.98678   0.13992   0.21994   0.00000  Uiso   1.00
C198   C     0.67996   0.19465   0.27929   0.00000  Uiso   1.00
C199   C     0.70035   0.13809   0.22199   0.00000  Uiso   1.00
C200   C     0.96584   0.19590   0.27752   0.00000  Uiso   1.00
C201   C     0.80378   0.16659   0.33738   0.00000  Uiso   1.00
C202   C     0.86304   0.16544   0.16231   0.00000  Uiso   1.00
C203   C     0.78647   0.16609   0.38709   0.00000  Uiso   1.00
C204   C     0.88021   0.15701   0.11214   0.00000  Uiso   1.00
C205   C     0.72553   0.18276   0.46125   0.00000  Uiso   1.00
C206   C     0.93393   0.11914   0.04268   0.00000  Uiso   1.00
C207   C     0.73987   0.17871   0.41370   0.00000  Uiso   1.00
C208   C     0.92322   0.13511   0.08815   0.00000  Uiso   1.00
C209   C     0.81799   0.15451   0.40806   0.00000  Uiso   1.00
C210   C     0.84899   0.16455   0.08945   0.00000  Uiso   1.00
C211   C     0.80339   0.15388   0.45551   0.00000  Uiso   1.00
C212   C     0.85738   0.14687   0.04478   0.00000  Uiso   1.00
C213   C     0.75701   0.16996   0.48259   0.00000  Uiso   1.00
C214   C     0.90115   0.12536   0.02038   0.00000  Uiso   1.00
C215   C     0.83502   0.14043   0.47681   0.00000  Uiso   1.00
C216   C     0.82264   0.15049   0.02415   0.00000  Uiso   1.00
H217   H     0.70544   0.17649   0.05133   0.00000  Uiso   1.00
H218   H     0.94108   0.08944   0.45708   0.00000  Uiso   1.00
H219   H     0.81718   0.18356   0.10755   0.00000  Uiso   1.00
H220   H     0.85451   0.14714   0.38694   0.00000  Uiso   1.00
H221   H     0.94781   0.12857   0.10491   0.00000  Uiso   1.00
H222   H     0.71516   0.18694   0.39755   0.00000  Uiso   1.00
H223   H     0.89241   0.29593   0.27453   0.00000  Uiso   1.00
H224   H     0.76303   0.03870   0.24968   0.00000  Uiso   1.00
N225   N     0.71426   0.16668   0.25001   0.00000  Uiso   1.00
N226   N     0.95241   0.16666   0.24999   0.00000  Uiso   1.00
O227   O     0.79512   0.22775   0.25001   0.00000  Uiso   1.00
O228   O     0.87154   0.10558   0.25000   0.00000  Uiso   1.00
O229   O     0.87157   0.22774   0.25000   0.00000  Uiso   1.00
O230   O     0.79510   0.10559   0.25000   0.00000  Uiso   1.00
O231   O     0.77328   0.16667   0.31613   0.00000  Uiso   1.00
O232   O     0.89339   0.16666   0.18388   0.00000  Uiso   1.00
O233   O     0.84972   0.16666   0.31612   0.00000  Uiso   1.00
O234   O     0.81695   0.16667   0.18388   0.00000  Uiso   1.00
Zn235  Zn    0.78229   0.16667   0.25000   0.00000  Uiso   1.00
Zn236  Zn    0.88438   0.16666   0.25000   0.00000  Uiso   1.00
I237   I     0.99090   0.21178   0.49721   0.00000  Uiso   1.00
I238   I     0.99853   0.08324   0.01213   0.00000  Uiso   1.00
N239   N     0.75506   0.14023   0.09302   0.00000  Uiso   1.00
H240   H     0.72335   0.15358   0.11507   0.00000  Uiso   1.00
C241   C     0.75641   0.09493   0.08817   0.00000  Uiso   1.00
H242   H     0.77952   0.08302   0.10566   0.00000  Uiso   1.00
H243   H     0.77096   0.08174   0.05177   0.00000  Uiso   1.00
H244   H     0.72008   0.08319   0.10269   0.00000  Uiso   1.00
N245   N     0.88159   0.08903   0.41319   0.00000  Uiso   1.00
H246   H     0.91596   0.07919   0.39372   0.00000  Uiso   1.00
C247   C     0.84682   0.05671   0.41778   0.00000  Uiso   1.00
H248   H     0.86476   0.02550   0.41158   0.00000  Uiso   1.00
H249   H     0.82939   0.05950   0.39212   0.00000  Uiso   1.00
H250   H     0.81866   0.05893   0.45238   0.00000  Uiso   1.00
I251   I     0.91603   0.04910   0.29690   0.00000  Uiso   1.00
I252   I     0.74203   0.28780   0.21922   0.00000  Uiso   1.00
N253   N     0.98131   0.12438   0.17819   0.00000  Uiso   1.00
H254   H     0.97707   0.14714   0.15868   0.00000  Uiso   1.00
C255   C     0.95736   0.08584   0.17499   0.00000  Uiso   1.00
H256   H     0.92220   0.09190   0.17234   0.00000  Uiso   1.00
H257   H     0.95381   0.06734   0.20404   0.00000  Uiso   1.00
H258   H     0.97792   0.06684   0.14298   0.00000  Uiso   1.00
N259   N     0.69312   0.22470   0.30887   0.00000  Uiso   1.00
H260   H     0.72737   0.22198   0.30739   0.00000  Uiso   1.00
C261   C     0.99525   0.23387   0.35593   0.00000  Uiso   1.00
H262   H     0.68312   0.24028   0.37841   0.00000  Uiso   1.00
H263   H     0.97170   0.20757   0.36864   0.00000  Uiso   1.00
H264   H     0.97530   0.26342   0.35906   0.00000  Uiso   1.00
N265   N     0.73383   0.10802   0.19179   0.00000  Uiso   1.00
H266   H     0.76875   0.11265   0.18720   0.00000  Uiso   1.00
C267   C     0.72178   0.06461   0.19548   0.00000  Uiso   1.00
H268   H     0.70339   0.05426   0.17184   0.00000  Uiso   1.00
H269   H     0.69943   0.05888   0.23108   0.00000  Uiso   1.00
H270   H     0.75490   0.04495   0.18359   0.00000  Uiso   1.00
N271   N     0.93691   0.23292   0.29505   0.00000  Uiso   1.00
H272   H     0.95524   0.26024   0.28962   0.00000  Uiso   1.00
C273   C     0.89866   0.23378   0.33910   0.00000  Uiso   1.00
H274   H     0.90167   0.26070   0.36227   0.00000  Uiso   1.00
H275   H     0.89862   0.20485   0.35599   0.00000  Uiso   1.00
H276   H     0.86409   0.23893   0.33470   0.00000  Uiso   1.00
C277   C     0.16658   0.57995   0.24971   0.00000  Uiso   1.00
C278   C     0.16542   0.42057   0.25391   0.00000  Uiso   1.00
C279   C     0.10735   0.49133   0.05060   0.00000  Uiso   1.00
C280   C     0.20992   0.44809   0.45393   0.00000  Uiso   1.00
C281   C     0.07569   0.50368   0.03011   0.00000  Uiso   1.00
C282   C     0.24299   0.44207   0.47542   0.00000  Uiso   1.00
C283   C     0.19880   0.64576   0.26647   0.00000  Uiso   1.00
C284   C     0.12623   0.35551   0.25210   0.00000  Uiso   1.00
C285   C     0.19851   0.35526   0.27040   0.00000  Uiso   1.00
C286   C     0.12788   0.64634   0.24523   0.00000  Uiso   1.00
C287   C     0.16342   0.37681   0.25985   0.00000  Uiso   1.00
C288   C     0.16483   0.62446   0.25255   0.00000  Uiso   1.00
C289   C     0.32012   0.47325   0.21994   0.00000  Uiso   1.00
C290   C     0.01330   0.52799   0.27929   0.00000  Uiso   1.00
C291   C     0.03368   0.47143   0.22199   0.00000  Uiso   1.00
C292   C     0.29918   0.52924   0.27752   0.00000  Uiso   1.00
C293   C     0.13712   0.49992   0.33738   0.00000  Uiso   1.00
C294   C     0.19637   0.49877   0.16231   0.00000  Uiso   1.00
C295   C     0.11980   0.49943   0.38709   0.00000  Uiso   1.00
C296   C     0.21355   0.49035   0.11214   0.00000  Uiso   1.00
C297   C     0.05887   0.51609   0.46125   0.00000  Uiso   1.00
C298   C     0.26727   0.45248   0.04268   0.00000  Uiso   1.00
C299   C     0.07320   0.51205   0.41370   0.00000  Uiso   1.00
C300   C     0.25655   0.46845   0.08815   0.00000  Uiso   1.00
C301   C     0.15133   0.48784   0.40806   0.00000  Uiso   1.00
C302   C     0.18232   0.49789   0.08945   0.00000  Uiso   1.00
C303   C     0.13672   0.48721   0.45551   0.00000  Uiso   1.00
C304   C     0.19071   0.48020   0.04478   0.00000  Uiso   1.00
C305   C     0.09034   0.50329   0.48259   0.00000  Uiso   1.00
C306   C     0.23448   0.45869   0.02038   0.00000  Uiso   1.00
C307   C     0.16835   0.47376   0.47681   0.00000  Uiso   1.00
C308   C     0.15597   0.48382   0.02415   0.00000  Uiso   1.00
H309   H     0.03877   0.50982   0.05133   0.00000  Uiso   1.00
H310   H     0.27441   0.42277   0.45708   0.00000  Uiso   1.00
H311   H     0.15051   0.51690   0.10755   0.00000  Uiso   1.00
H312   H     0.18785   0.48047   0.38694   0.00000  Uiso   1.00
H313   H     0.28114   0.46191   0.10491   0.00000  Uiso   1.00
H314   H     0.04849   0.52028   0.39755   0.00000  Uiso   1.00
H315   H     0.22574   0.62926   0.27453   0.00000  Uiso   1.00
H316   H     0.09637   0.37203   0.24968   0.00000  Uiso   1.00
N317   N     0.04759   0.50001   0.25001   0.00000  Uiso   1.00
N318   N     0.28574   0.49999   0.24999   0.00000  Uiso   1.00
O319   O     0.12846   0.56108   0.25001   0.00000  Uiso   1.00
O320   O     0.20488   0.43892   0.25000   0.00000  Uiso   1.00
O321   O     0.20490   0.56107   0.25000   0.00000  Uiso   1.00
O322   O     0.12843   0.43893   0.25000   0.00000  Uiso   1.00
O323   O     0.10661   0.50001   0.31613   0.00000  Uiso   1.00
O324   O     0.22672   0.49999   0.18388   0.00000  Uiso   1.00
O325   O     0.18305   0.50000   0.31612   0.00000  Uiso   1.00
O326   O     0.15028   0.50000   0.18388   0.00000  Uiso   1.00
Zn327  Zn    0.11562   0.50001   0.25000   0.00000  Uiso   1.00
Zn328  Zn    0.21771   0.49999   0.25000   0.00000  Uiso   1.00
I329   I     0.32423   0.54511   0.49721   0.00000  Uiso   1.00
I330   I     0.33186   0.41657   0.01213   0.00000  Uiso   1.00
N331   N     0.08839   0.47356   0.09302   0.00000  Uiso   1.00
H332   H     0.05668   0.48691   0.11507   0.00000  Uiso   1.00
C333   C     0.08974   0.42826   0.08817   0.00000  Uiso   1.00
H334   H     0.11286   0.41635   0.10566   0.00000  Uiso   1.00
H335   H     0.10429   0.41508   0.05177   0.00000  Uiso   1.00
H336   H     0.05342   0.41652   0.10269   0.00000  Uiso   1.00
N337   N     0.21492   0.42237   0.41319   0.00000  Uiso   1.00
H338   H     0.24929   0.41252   0.39372   0.00000  Uiso   1.00
C339   C     0.18016   0.39004   0.41778   0.00000  Uiso   1.00
H340   H     0.19809   0.35883   0.41158   0.00000  Uiso   1.00
H341   H     0.16272   0.39283   0.39212   0.00000  Uiso   1.00
H342   H     0.15199   0.39226   0.45238   0.00000  Uiso   1.00
I343   I     0.24937   0.38244   0.29690   0.00000  Uiso   1.00
I344   I     0.07536   0.62113   0.21922   0.00000  Uiso   1.00
N345   N     0.31465   0.45772   0.17819   0.00000  Uiso   1.00
H346   H     0.31040   0.48048   0.15868   0.00000  Uiso   1.00
C347   C     0.29069   0.41917   0.17499   0.00000  Uiso   1.00
H348   H     0.25553   0.42523   0.17234   0.00000  Uiso   1.00
H349   H     0.28714   0.40068   0.20404   0.00000  Uiso   1.00
H350   H     0.31125   0.40017   0.14298   0.00000  Uiso   1.00
N351   N     0.02645   0.55803   0.30887   0.00000  Uiso   1.00
H352   H     0.06070   0.55531   0.30739   0.00000  Uiso   1.00
C353   C     0.32859   0.56720   0.35593   0.00000  Uiso   1.00
H354   H     0.01645   0.57362   0.37841   0.00000  Uiso   1.00
H355   H     0.30504   0.54091   0.36864   0.00000  Uiso   1.00
H356   H     0.30863   0.59676   0.35906   0.00000  Uiso   1.00
N357   N     0.06717   0.44135   0.19179   0.00000  Uiso   1.00
H358   H     0.10209   0.44598   0.18720   0.00000  Uiso   1.00
C359   C     0.05512   0.39794   0.19548   0.00000  Uiso   1.00
H360   H     0.03673   0.38759   0.17184   0.00000  Uiso   1.00
H361   H     0.03277   0.39222   0.23108   0.00000  Uiso   1.00
H362   H     0.08823   0.37829   0.18359   0.00000  Uiso   1.00
N363   N     0.27024   0.56626   0.29505   0.00000  Uiso   1.00
H364   H     0.28857   0.59357   0.28962   0.00000  Uiso   1.00
C365   C     0.23200   0.56711   0.33910   0.00000  Uiso   1.00
H366   H     0.23500   0.59404   0.36227   0.00000  Uiso   1.00
H367   H     0.23196   0.53819   0.35599   0.00000  Uiso   1.00
H368   H     0.19743   0.57226   0.33470   0.00000  Uiso   1.00
C369   C     0.49991   0.57995   0.24971   0.00000  Uiso   1.00
C370   C     0.49875   0.42057   0.25391   0.00000  Uiso   1.00
C371   C     0.44068   0.49133   0.05060   0.00000  Uiso   1.00
C372   C     0.54325   0.44809   0.45393   0.00000  Uiso   1.00
C373   C     0.40902   0.50368   0.03011   0.00000  Uiso   1.00
C374   C     0.57633   0.44207   0.47542   0.00000  Uiso   1.00
C375   C     0.53213   0.64576   0.26647   0.00000  Uiso   1.00
C376   C     0.45956   0.35551   0.25210   0.00000  Uiso   1.00
C377   C     0.53184   0.35526   0.27040   0.00000  Uiso   1.00
C378   C     0.46121   0.64634   0.24523   0.00000  Uiso   1.00
C379   C     0.49676   0.37681   0.25985   0.00000  Uiso   1.00
C380   C     0.49816   0.62446   0.25255   0.00000  Uiso   1.00
C381   C     0.65345   0.47325   0.21994   0.00000  Uiso   1.00
C382   C     0.34663   0.52799   0.27929   0.00000  Uiso   1.00
C383   C     0.36701   0.47143   0.22199   0.00000  Uiso   1.00
C384   C     0.63251   0.52924   0.27752   0.00000  Uiso   1.00
C385   C     0.47045   0.49992   0.33738   0.00000  Uiso   1.00
C386   C     0.52970   0.49877   0.16231   0.00000  Uiso   1.00
C387   C     0.45313   0.49943   0.38709   0.00000  Uiso   1.00
C388   C     0.54688   0.49035   0.11214   0.00000  Uiso   1.00
C389   C     0.39220   0.51609   0.46125   0.00000  Uiso   1.00
C390   C     0.60060   0.45248   0.04268   0.00000  Uiso   1.00
C391   C     0.40653   0.51205   0.41370   0.00000  Uiso   1.00
C392   C     0.58989   0.46845   0.08815   0.00000  Uiso   1.00
C393   C     0.48466   0.48784   0.40806   0.00000  Uiso   1.00
C394   C     0.51565   0.49789   0.08945   0.00000  Uiso   1.00
C395   C     0.47006   0.48721   0.45551   0.00000  Uiso   1.00
C396   C     0.52404   0.48020   0.04478   0.00000  Uiso   1.00
C397   C     0.42367   0.50329   0.48259   0.00000  Uiso   1.00
C398   C     0.56781   0.45869   0.02038   0.00000  Uiso   1.00
C399   C     0.50168   0.47376   0.47681   0.00000  Uiso   1.00
C400   C     0.48931   0.48382   0.02415   0.00000  Uiso   1.00
H401   H     0.37211   0.50982   0.05133   0.00000  Uiso   1.00
H402   H     0.60775   0.42277   0.45708   0.00000  Uiso   1.00
H403   H     0.48385   0.51690   0.10755   0.00000  Uiso   1.00
H404   H     0.52118   0.48047   0.38694   0.00000  Uiso   1.00
H405   H     0.61448   0.46191   0.10491   0.00000  Uiso   1.00
H406   H     0.38183   0.52028   0.39755   0.00000  Uiso   1.00
H407   H     0.55908   0.62926   0.27453   0.00000  Uiso   1.00
H408   H     0.42970   0.37203   0.24968   0.00000  Uiso   1.00
N409   N     0.38093   0.50001   0.25001   0.00000  Uiso   1.00
N410   N     0.61907   0.49999   0.24999   0.00000  Uiso   1.00
O411   O     0.46179   0.56108   0.25001   0.00000  Uiso   1.00
O412   O     0.53821   0.43892   0.25000   0.00000  Uiso   1.00
O413   O     0.53823   0.56107   0.25000   0.00000  Uiso   1.00
O414   O     0.46177   0.43893   0.25000   0.00000  Uiso   1.00
O415   O     0.43994   0.50001   0.31613   0.00000  Uiso   1.00
O416   O     0.56006   0.49999   0.18388   0.00000  Uiso   1.00
O417   O     0.51639   0.50000   0.31612   0.00000  Uiso   1.00
O418   O     0.48361   0.50000   0.18388   0.00000  Uiso   1.00
Zn419  Zn    0.44896   0.50001   0.25000   0.00000  Uiso   1.00
Zn420  Zn    0.55104   0.49999   0.25000   0.00000  Uiso   1.00
I421   I     0.65757   0.54511   0.49721   0.00000  Uiso   1.00
I422   I     0.66519   0.41657   0.01213   0.00000  Uiso   1.00
N423   N     0.42173   0.47356   0.09302   0.00000  Uiso   1.00
H424   H     0.39001   0.48691   0.11507   0.00000  Uiso   1.00
C425   C     0.42308   0.42826   0.08817   0.00000  Uiso   1.00
H426   H     0.44619   0.41635   0.10566   0.00000  Uiso   1.00
H427   H     0.43762   0.41508   0.05177   0.00000  Uiso   1.00
H428   H     0.38675   0.41652   0.10269   0.00000  Uiso   1.00
N429   N     0.54825   0.42237   0.41319   0.00000  Uiso   1.00
H430   H     0.58263   0.41252   0.39372   0.00000  Uiso   1.00
C431   C     0.51349   0.39004   0.41778   0.00000  Uiso   1.00
H432   H     0.53142   0.35883   0.41158   0.00000  Uiso   1.00
H433   H     0.49605   0.39283   0.39212   0.00000  Uiso   1.00
H434   H     0.48532   0.39226   0.45238   0.00000  Uiso   1.00
I435   I     0.58270   0.38244   0.29690   0.00000  Uiso   1.00
I436   I     0.40869   0.62113   0.21922   0.00000  Uiso   1.00
N437   N     0.64798   0.45772   0.17819   0.00000  Uiso   1.00
H438   H     0.64374   0.48048   0.15868   0.00000  Uiso   1.00
C439   C     0.62403   0.41917   0.17499   0.00000  Uiso   1.00
H440   H     0.58886   0.42523   0.17234   0.00000  Uiso   1.00
H441   H     0.62047   0.40068   0.20404   0.00000  Uiso   1.00
H442   H     0.64459   0.40017   0.14298   0.00000  Uiso   1.00
N443   N     0.35979   0.55803   0.30887   0.00000  Uiso   1.00
H444   H     0.39404   0.55531   0.30739   0.00000  Uiso   1.00
C445   C     0.66192   0.56720   0.35593   0.00000  Uiso   1.00
H446   H     0.34979   0.57362   0.37841   0.00000  Uiso   1.00
H447   H     0.63837   0.54091   0.36864   0.00000  Uiso   1.00
H448   H     0.64197   0.59676   0.35906   0.00000  Uiso   1.00
N449   N     0.40050   0.44135   0.19179   0.00000  Uiso   1.00
H450   H     0.43542   0.44598   0.18720   0.00000  Uiso   1.00
C451   C     0.38845   0.39794   0.19548   0.00000  Uiso   1.00
H452   H     0.37006   0.38759   0.17184   0.00000  Uiso   1.00
H453   H     0.36610   0.39222   0.23108   0.00000  Uiso   1.00
H454   H     0.42156   0.37829   0.18359   0.00000  Uiso   1.00
N455   N     0.60357   0.56626   0.29505   0.00000  Uiso   1.00
H456   H     0.62190   0.59357   0.28962   0.00000  Uiso   1.00
C457   C     0.56533   0.56711   0.33910   0.00000  Uiso   1.00
H458   H     0.56834   0.59404   0.36227   0.00000  Uiso   1.00
H459   H     0.56529   0.53819   0.35599   0.00000  Uiso   1.00
H460   H     0.53076   0.57226   0.33470   0.00000  Uiso   1.00
C461   C     0.83325   0.57995   0.24971   0.00000  Uiso   1.00
C462   C     0.83208   0.42057   0.25391   0.00000  Uiso   1.00
C463   C     0.77401   0.49133   0.05060   0.00000  Uiso   1.00
C464   C     0.87658   0.44809   0.45393   0.00000  Uiso   1.00
C465   C     0.74236   0.50368   0.03011   0.00000  Uiso   1.00
C466   C     0.90966   0.44207   0.47542   0.00000  Uiso   1.00
C467   C     0.86547   0.64576   0.26647   0.00000  Uiso   1.00
C468   C     0.79289   0.35551   0.25210   0.00000  Uiso   1.00
C469   C     0.86517   0.35526   0.27040   0.00000  Uiso   1.00
C470   C     0.79455   0.64634   0.24523   0.00000  Uiso   1.00
C471   C     0.83009   0.37681   0.25985   0.00000  Uiso   1.00
C472   C     0.83149   0.62446   0.25255   0.00000  Uiso   1.00
C473   C     0.98678   0.47325   0.21994   0.00000  Uiso   1.00
C474   C     0.67996   0.52799   0.27929   0.00000  Uiso   1.00
C475   C     0.70035   0.47143   0.22199   0.00000  Uiso   1.00
C476   C     0.96584   0.52924   0.27752   0.00000  Uiso   1.00
C477   C     0.80378   0.49992   0.33738   0.00000  Uiso   1.00
C478   C     0.86304   0.49877   0.16231   0.00000  Uiso   1.00
C479   C     0.78647   0.49943   0.38709   0.00000  Uiso   1.00
C480   C     0.88021   0.49035   0.11214   0.00000  Uiso   1.00
C481   C     0.72553   0.51609   0.46125   0.00000  Uiso   1.00
C482   C     0.93393   0.45248   0.04268   0.00000  Uiso   1.00
C483   C     0.73987   0.51205   0.41370   0.00000  Uiso   1.00
C484   C     0.92322   0.46845   0.08815   0.00000  Uiso   1.00
C485   C     0.81799   0.48784   0.40806   0.00000  Uiso   1.00
C486   C     0.84899   0.49789   0.08945   0.00000  Uiso   1.00
C487   C     0.80339   0.48721   0.45551   0.00000  Uiso   1.00
C488   C     0.85738   0.48020   0.04478   0.00000  Uiso   1.00
C489   C     0.75701   0.50329   0.48259   0.00000  Uiso   1.00
C490   C     0.90115   0.45869   0.02038   0.00000  Uiso   1.00
C491   C     0.83502   0.47376   0.47681   0.00000  Uiso   1.00
C492   C     0.82264   0.48382   0.02415   0.00000  Uiso   1.00
H493   H     0.70544   0.50982   0.05133   0.00000  Uiso   1.00
H494   H     0.94108   0.42277   0.45708   0.00000  Uiso   1.00
H495   H     0.81718   0.51690   0.10755   0.00000  Uiso   1.00
H496   H     0.85451   0.48047   0.38694   0.00000  Uiso   1.00
H497   H     0.94781   0.46191   0.10491   0.00000  Uiso   1.00
H498   H     0.71516   0.52028   0.39755   0.00000  Uiso   1.00
H499   H     0.89241   0.62926   0.27453   0.00000  Uiso   1.00
H500   H     0.76303   0.37203   0.24968   0.00000  Uiso   1.00
N501   N     0.71426   0.50001   0.25001   0.00000  Uiso   1.00
N502   N     0.95241   0.49999   0.24999   0.00000  Uiso   1.00
O503   O     0.79512   0.56108   0.25001   0.00000  Uiso   1.00
O504   O     0.87154   0.43892   0.25000   0.00000  Uiso   1.00
O505   O     0.87157   0.56107   0.25000   0.00000  Uiso   1.00
O506   O     0.79510   0.43893   0.25000   0.00000  Uiso   1.00
O507   O     0.77328   0.50001   0.31613   0.00000  Uiso   1.00
O508   O     0.89339   0.49999   0.18388   0.00000  Uiso   1.00
O509   O     0.84972   0.50000   0.31612   0.00000  Uiso   1.00
O510   O     0.81695   0.50000   0.18388   0.00000  Uiso   1.00
Zn511  Zn    0.78229   0.50001   0.25000   0.00000  Uiso   1.00
Zn512  Zn    0.88438   0.49999   0.25000   0.00000  Uiso   1.00
I513   I     0.99090   0.54511   0.49721   0.00000  Uiso   1.00
I514   I     0.99853   0.41657   0.01213   0.00000  Uiso   1.00
N515   N     0.75506   0.47356   0.09302   0.00000  Uiso   1.00
H516   H     0.72335   0.48691   0.11507   0.00000  Uiso   1.00
C517   C     0.75641   0.42826   0.08817   0.00000  Uiso   1.00
H518   H     0.77952   0.41635   0.10566   0.00000  Uiso   1.00
H519   H     0.77096   0.41508   0.05177   0.00000  Uiso   1.00
H520   H     0.72008   0.41652   0.10269   0.00000  Uiso   1.00
N521   N     0.88159   0.42237   0.41319   0.00000  Uiso   1.00
H522   H     0.91596   0.41252   0.39372   0.00000  Uiso   1.00
C523   C     0.84682   0.39004   0.41778   0.00000  Uiso   1.00
H524   H     0.86476   0.35883   0.41158   0.00000  Uiso   1.00
H525   H     0.82939   0.39283   0.39212   0.00000  Uiso   1.00
H526   H     0.81866   0.39226   0.45238   0.00000  Uiso   1.00
I527   I     0.91603   0.38244   0.29690   0.00000  Uiso   1.00
I528   I     0.74203   0.62113   0.21922   0.00000  Uiso   1.00
N529   N     0.98131   0.45772   0.17819   0.00000  Uiso   1.00
H530   H     0.97707   0.48048   0.15868   0.00000  Uiso   1.00
C531   C     0.95736   0.41917   0.17499   0.00000  Uiso   1.00
H532   H     0.92220   0.42523   0.17234   0.00000  Uiso   1.00
H533   H     0.95381   0.40068   0.20404   0.00000  Uiso   1.00
H534   H     0.97792   0.40017   0.14298   0.00000  Uiso   1.00
N535   N     0.69312   0.55803   0.30887   0.00000  Uiso   1.00
H536   H     0.72737   0.55531   0.30739   0.00000  Uiso   1.00
C537   C     0.99525   0.56720   0.35593   0.00000  Uiso   1.00
H538   H     0.68312   0.57362   0.37841   0.00000  Uiso   1.00
H539   H     0.97170   0.54091   0.36864   0.00000  Uiso   1.00
H540   H     0.97530   0.59676   0.35906   0.00000  Uiso   1.00
N541   N     0.73383   0.44135   0.19179   0.00000  Uiso   1.00
H542   H     0.76875   0.44598   0.18720   0.00000  Uiso   1.00
C543   C     0.72178   0.39794   0.19548   0.00000  Uiso   1.00
H544   H     0.70339   0.38759   0.17184   0.00000  Uiso   1.00
H545   H     0.69943   0.39222   0.23108   0.00000  Uiso   1.00
H546   H     0.75490   0.37829   0.18359   0.00000  Uiso   1.00
N547   N     0.93691   0.56626   0.29505   0.00000  Uiso   1.00
H548   H     0.95524   0.59357   0.28962   0.00000  Uiso   1.00
C549   C     0.89866   0.56711   0.33910   0.00000  Uiso   1.00
H550   H     0.90167   0.59404   0.36227   0.00000  Uiso   1.00
H551   H     0.89862   0.53819   0.35599   0.00000  Uiso   1.00
H552   H     0.86409   0.57226   0.33470   0.00000  Uiso   1.00
C553   C     0.16658   0.91328   0.24971   0.00000  Uiso   1.00
C554   C     0.16542   0.75390   0.25391   0.00000  Uiso   1.00
C555   C     0.10735   0.82466   0.05060   0.00000  Uiso   1.00
C556   C     0.20992   0.78143   0.45393   0.00000  Uiso   1.00
C557   C     0.07569   0.83702   0.03011   0.00000  Uiso   1.00
C558   C     0.24299   0.77540   0.47542   0.00000  Uiso   1.00
C559   C     0.19880   0.97910   0.26647   0.00000  Uiso   1.00
C560   C     0.12623   0.68885   0.25210   0.00000  Uiso   1.00
C561   C     0.19851   0.68859   0.27040   0.00000  Uiso   1.00
C562   C     0.12788   0.97967   0.24523   0.00000  Uiso   1.00
C563   C     0.16342   0.71015   0.25985   0.00000  Uiso   1.00
C564   C     0.16483   0.95780   0.25255   0.00000  Uiso   1.00
C565   C     0.32012   0.80658   0.21994   0.00000  Uiso   1.00
C566   C     0.01330   0.86132   0.27929   0.00000  Uiso   1.00
C567   C     0.03368   0.80476   0.22199   0.00000  Uiso   1.00
C568   C     0.29918   0.86257   0.27752   0.00000  Uiso   1.00
C569   C     0.13712   0.83325   0.33738   0.00000  Uiso   1.00
C570   C     0.19637   0.83210   0.16231   0.00000  Uiso   1.00
C571   C     0.11980   0.83276   0.38709   0.00000  Uiso   1.00
C572   C     0.21355   0.82368   0.11214   0.00000  Uiso   1.00
C573   C     0.05887   0.84942   0.46125   0.00000  Uiso   1.00
C574   C     0.26727   0.78581   0.04268   0.00000  Uiso   1.00
C575   C     0.07320   0.84538   0.41370   0.00000  Uiso   1.00
C576   C     0.25655   0.80178   0.08815   0.00000  Uiso   1.00
C577   C     0.15133   0.82118   0.40806   0.00000  Uiso   1.00
C578   C     0.18232   0.83122   0.08945   0.00000  Uiso   1.00
C579   C     0.13672   0.82055   0.45551   0.00000  Uiso   1.00
C580   C     0.19071   0.81354   0.04478   0.00000  Uiso   1.00
C581   C     0.09034   0.83663   0.48259   0.00000  Uiso   1.00
C582   C     0.23448   0.79203   0.02038   0.00000  Uiso   1.00
C583   C     0.16835   0.80709   0.47681   0.00000  Uiso   1.00
C584   C     0.15597   0.81716   0.02415   0.00000  Uiso   1.00
H585   H     0.03877   0.84316   0.05133   0.00000  Uiso   1.00
H586   H     0.27441   0.75611   0.45708   0.00000  Uiso   1.00
H587   H     0.15051   0.85023   0.10755   0.00000  Uiso   1.00
H588   H     0.18785   0.81380   0.38694   0.00000  Uiso   1.00
H589   H     0.28114   0.79524   0.10491   0.00000  Uiso   1.00
H590   H     0.04849   0.85361   0.39755   0.00000  Uiso   1.00
H591   H     0.22574   0.96260   0.27453   0.00000  Uiso   1.00
H592   H     0.09637   0.70537   0.24968   0.00000  Uiso   1.00
N593   N     0.04759   0.83334   0.25001   0.00000  Uiso   1.00
N594   N     0.28574   0.83332   0.24999   0.00000  Uiso   1.00
O595   O     0.12846   0.89442   0.25001   0.00000  Uiso   1.00
O596   O     0.20488   0.77225   0.25000   0.00000  Uiso   1.00
O597   O     0.20490   0.89441   0.25000   0.00000  Uiso   1.00
O598   O     0.12843   0.77226   0.25000   0.00000  Uiso   1.00
O599   O     0.10661   0.83334   0.31613   0.00000  Uiso   1.00
O600   O     0.22672   0.83333   0.18388   0.00000  Uiso   1.00
O601   O     0.18305   0.83333   0.31612   0.00000  Uiso   1.00
O602   O     0.15028   0.83334   0.18388   0.00000  Uiso   1.00
Zn603  Zn    0.11562   0.83334   0.25000   0.00000  Uiso   1.00
Zn604  Zn    0.21771   0.83333   0.25000   0.00000  Uiso   1.00
I605   I     0.32423   0.87845   0.49721   0.00000  Uiso   1.00
I606   I     0.33186   0.74990   0.01213   0.00000  Uiso   1.00
N607   N     0.08839   0.80690   0.09302   0.00000  Uiso   1.00
H608   H     0.05668   0.82025   0.11507   0.00000  Uiso   1.00
C609   C     0.08974   0.76160   0.08817   0.00000  Uiso   1.00
H610   H     0.11286   0.74968   0.10566   0.00000  Uiso   1.00
H611   H     0.10429   0.74841   0.05177   0.00000  Uiso   1.00
H612   H     0.05342   0.74986   0.10269   0.00000  Uiso   1.00
N613   N     0.21492   0.75570   0.41319   0.00000  Uiso   1.00
H614   H     0.24929   0.74586   0.39372   0.00000  Uiso   1.00
C615   C     0.18016   0.72338   0.41778   0.00000  Uiso   1.00
H616   H     0.19809   0.69217   0.41158   0.00000  Uiso   1.00
H617   H     0.16272   0.72617   0.39212   0.00000  Uiso   1.00
H618   H     0.15199   0.72559   0.45238   0.00000  Uiso   1.00
I619   I     0.24937   0.71577   0.29690   0.00000  Uiso   1.00
I620   I     0.07536   0.95447   0.21922   0.00000  Uiso   1.00
N621   N     0.31465   0.79105   0.17819   0.00000  Uiso   1.00
H622   H     0.31040   0.81381   0.15868   0.00000  Uiso   1.00
C623   C     0.29069   0.75250   0.17499   0.00000  Uiso   1.00
H624   H     0.25553   0.75857   0.17234   0.00000  Uiso   1.00
H625   H     0.28714   0.73401   0.20404   0.00000  Uiso   1.00
H626   H     0.31125   0.73351   0.14298   0.00000  Uiso   1.00
N627   N     0.02645   0.89137   0.30887   0.00000  Uiso   1.00
H628   H     0.06070   0.88864   0.30739   0.00000  Uiso   1.00
C629   C     0.32859   0.90053   0.35593   0.00000  Uiso   1.00
H630   H     0.01645   0.90695   0.37841   0.00000  Uiso   1.00
H631   H     0.30504   0.87424   0.36864   0.00000  Uiso   1.00
H632   H     0.30863   0.93009   0.35906   0.00000  Uiso   1.00
N633   N     0.06717   0.77469   0.19179   0.00000  Uiso   1.00
H634   H     0.10209   0.77932   0.18720   0.00000  Uiso   1.00
C635   C     0.05512   0.73128   0.19548   0.00000  Uiso   1.00
H636   H     0.03673   0.72093   0.17184   0.00000  Uiso   1.00
H637   H     0.03277   0.72555   0.23108   0.00000  Uiso   1.00
H638   H     0.08823   0.71162   0.18359   0.00000  Uiso   1.00
N639   N     0.27024   0.89959   0.29505   0.00000  Uiso   1.00
H640   H     0.28857   0.92691   0.28962   0.00000  Uiso   1.00
C641   C     0.23200   0.90044   0.33910   0.00000  Uiso   1.00
H642   H     0.23500   0.92737   0.36227   0.00000  Uiso   1.00
H643   H     0.23196   0.87152   0.35599   0.00000  Uiso   1.00
H644   H     0.19743   0.90560   0.33470   0.00000  Uiso   1.00
C645   C     0.49991   0.91328   0.24971   0.00000  Uiso   1.00
C646   C     0.49875   0.75390   0.25391   0.00000  Uiso   1.00
C647   C     0.44068   0.82466   0.05060   0.00000  Uiso   1.00
C648   C     0.54325   0.78143   0.45393   0.00000  Uiso   1.00
C649   C     0.40902   0.83702   0.03011   0.00000  Uiso   1.00
C650   C     0.57633   0.77540   0.47542   0.00000  Uiso   1.00
C651   C     0.53213   0.97910   0.26647   0.00000  Uiso   1.00
C652   C     0.45956   0.68885   0.25210   0.00000  Uiso   1.00
C653   C     0.53184   0.68859   0.27040   0.00000  Uiso   1.00
C654   C     0.46121   0.97967   0.24523   0.00000  Uiso   1.00
C655   C     0.49676   0.71015   0.25985   0.00000  Uiso   1.00
C656   C     0.49816   0.95780   0.25255   0.00000  Uiso   1.00
C657   C     0.65345   0.80658   0.21994   0.00000  Uiso   1.00
C658   C     0.34663   0.86132   0.27929   0.00000  Uiso   1.00
C659   C     0.36701   0.80476   0.22199   0.00000  Uiso   1.00
C660   C     0.63251   0.86257   0.27752   0.00000  Uiso   1.00
C661   C     0.47045   0.83325   0.33738   0.00000  Uiso   1.00
C662   C     0.52970   0.83210   0.16231   0.00000  Uiso   1.00
C663   C     0.45313   0.83276   0.38709   0.00000  Uiso   1.00
C664   C     0.54688   0.82368   0.11214   0.00000  Uiso   1.00
C665   C     0.39220   0.84942   0.46125   0.00000  Uiso   1.00
C666   C     0.60060   0.78581   0.04268   0.00000  Uiso   1.00
C667   C     0.40653   0.84538   0.41370   0.00000  Uiso   1.00
C668   C     0.58989   0.80178   0.08815   0.00000  Uiso   1.00
C669   C     0.48466   0.82118   0.40806   0.00000  Uiso   1.00
C670   C     0.51565   0.83122   0.08945   0.00000  Uiso   1.00
C671   C     0.47006   0.82055   0.45551   0.00000  Uiso   1.00
C672   C     0.52404   0.81354   0.04478   0.00000  Uiso   1.00
C673   C     0.42367   0.83663   0.48259   0.00000  Uiso   1.00
C674   C     0.56781   0.79203   0.02038   0.00000  Uiso   1.00
C675   C     0.50168   0.80709   0.47681   0.00000  Uiso   1.00
C676   C     0.48931   0.81716   0.02415   0.00000  Uiso   1.00
H677   H     0.37211   0.84316   0.05133   0.00000  Uiso   1.00
H678   H     0.60775   0.75611   0.45708   0.00000  Uiso   1.00
H679   H     0.48385   0.85023   0.10755   0.00000  Uiso   1.00
H680   H     0.52118   0.81380   0.38694   0.00000  Uiso   1.00
H681   H     0.61448   0.79524   0.10491   0.00000  Uiso   1.00
H682   H     0.38183   0.85361   0.39755   0.00000  Uiso   1.00
H683   H     0.55908   0.96260   0.27453   0.00000  Uiso   1.00
H684   H     0.42970   0.70537   0.24968   0.00000  Uiso   1.00
N685   N     0.38093   0.83334   0.25001   0.00000  Uiso   1.00
N686   N     0.61907   0.83332   0.24999   0.00000  Uiso   1.00
O687   O     0.46179   0.89442   0.25001   0.00000  Uiso   1.00
O688   O     0.53821   0.77225   0.25000   0.00000  Uiso   1.00
O689   O     0.53823   0.89441   0.25000   0.00000  Uiso   1.00
O690   O     0.46177   0.77226   0.25000   0.00000  Uiso   1.00
O691   O     0.43994   0.83334   0.31613   0.00000  Uiso   1.00
O692   O     0.56006   0.83333   0.18388   0.00000  Uiso   1.00
O693   O     0.51639   0.83333   0.31612   0.00000  Uiso   1.00
O694   O     0.48361   0.83334   0.18388   0.00000  Uiso   1.00
Zn695  Zn    0.44896   0.83334   0.25000   0.00000  Uiso   1.00
Zn696  Zn    0.55104   0.83333   0.25000   0.00000  Uiso   1.00
I697   I     0.65757   0.87845   0.49721   0.00000  Uiso   1.00
I698   I     0.66519   0.74990   0.01213   0.00000  Uiso   1.00
N699   N     0.42173   0.80690   0.09302   0.00000  Uiso   1.00
H700   H     0.39001   0.82025   0.11507   0.00000  Uiso   1.00
C701   C     0.42308   0.76160   0.08817   0.00000  Uiso   1.00
H702   H     0.44619   0.74968   0.10566   0.00000  Uiso   1.00
H703   H     0.43762   0.74841   0.05177   0.00000  Uiso   1.00
H704   H     0.38675   0.74986   0.10269   0.00000  Uiso   1.00
N705   N     0.54825   0.75570   0.41319   0.00000  Uiso   1.00
H706   H     0.58263   0.74586   0.39372   0.00000  Uiso   1.00
C707   C     0.51349   0.72338   0.41778   0.00000  Uiso   1.00
H708   H     0.53142   0.69217   0.41158   0.00000  Uiso   1.00
H709   H     0.49605   0.72617   0.39212   0.00000  Uiso   1.00
H710   H     0.48532   0.72559   0.45238   0.00000  Uiso   1.00
I711   I     0.58270   0.71577   0.29690   0.00000  Uiso   1.00
I712   I     0.40869   0.95447   0.21922   0.00000  Uiso   1.00
N713   N     0.64798   0.79105   0.17819   0.00000  Uiso   1.00
H714   H     0.64374   0.81381   0.15868   0.00000  Uiso   1.00
C715   C     0.62403   0.75250   0.17499   0.00000  Uiso   1.00
H716   H     0.58886   0.75857   0.17234   0.00000  Uiso   1.00
H717   H     0.62047   0.73401   0.20404   0.00000  Uiso   1.00
H718   H     0.64459   0.73351   0.14298   0.00000  Uiso   1.00
N719   N     0.35979   0.89137   0.30887   0.00000  Uiso   1.00
H720   H     0.39404   0.88864   0.30739   0.00000  Uiso   1.00
C721   C     0.66192   0.90053   0.35593   0.00000  Uiso   1.00
H722   H     0.34979   0.90695   0.37841   0.00000  Uiso   1.00
H723   H     0.63837   0.87424   0.36864   0.00000  Uiso   1.00
H724   H     0.64197   0.93009   0.35906   0.00000  Uiso   1.00
N725   N     0.40050   0.77469   0.19179   0.00000  Uiso   1.00
H726   H     0.43542   0.77932   0.18720   0.00000  Uiso   1.00
C727   C     0.38845   0.73128   0.19548   0.00000  Uiso   1.00
H728   H     0.37006   0.72093   0.17184   0.00000  Uiso   1.00
H729   H     0.36610   0.72555   0.23108   0.00000  Uiso   1.00
H730   H     0.42156   0.71162   0.18359   0.00000  Uiso   1.00
N731   N     0.60357   0.89959   0.29505   0.00000  Uiso   1.00
H732   H     0.62190   0.92691   0.28962   0.00000  Uiso   1.00
C733   C     0.56533   0.90044   0.33910   0.00000  Uiso   1.00
H734   H     0.56834   0.92737   0.36227   0.00000  Uiso   1.00
H735   H     0.56529   0.87152   0.35599   0.00000  Uiso   1.00
H736   H     0.53076   0.90560   0.33470   0.00000  Uiso   1.00
C737   C     0.83325   0.91328   0.24971   0.00000  Uiso   1.00
C738   C     0.83208   0.75390   0.25391   0.00000  Uiso   1.00
C739   C     0.77401   0.82466   0.05060   0.00000  Uiso   1.00
C740   C     0.87658   0.78143   0.45393   0.00000  Uiso   1.00
C741   C     0.74236   0.83702   0.03011   0.00000  Uiso   1.00
C742   C     0.90966   0.77540   0.47542   0.00000  Uiso   1.00
C743   C     0.86547   0.97910   0.26647   0.00000  Uiso   1.00
C744   C     0.79289   0.68885   0.25210   0.00000  Uiso   1.00
C745   C     0.86517   0.68859   0.27040   0.00000  Uiso   1.00
C746   C     0.79455   0.97967   0.24523   0.00000  Uiso   1.00
C747   C     0.83009   0.71015   0.25985   0.00000  Uiso   1.00
C748   C     0.83149   0.95780   0.25255   0.00000  Uiso   1.00
C749   C     0.98678   0.80658   0.21994   0.00000  Uiso   1.00
C750   C     0.67996   0.86132   0.27929   0.00000  Uiso   1.00
C751   C     0.70035   0.80476   0.22199   0.00000  Uiso   1.00
C752   C     0.96584   0.86257   0.27752   0.00000  Uiso   1.00
C753   C     0.80378   0.83325   0.33738   0.00000  Uiso   1.00
C754   C     0.86304   0.83210   0.16231   0.00000  Uiso   1.00
C755   C     0.78647   0.83276   0.38709   0.00000  Uiso   1.00
C756   C     0.88021   0.82368   0.11214   0.00000  Uiso   1.00
C757   C     0.72553   0.84942   0.46125   0.00000  Uiso   1.00
C758   C     0.93393   0.78581   0.04268   0.00000  Uiso   1.00
C759   C     0.73987   0.84538   0.41370   0.00000  Uiso   1.00
C760   C     0.92322   0.80178   0.08815   0.00000  Uiso   1.00
C761   C     0.81799   0.82118   0.40806   0.00000  Uiso   1.00
C762   C     0.84899   0.83122   0.08945   0.00000  Uiso   1.00
C763   C     0.80339   0.82055   0.45551   0.00000  Uiso   1.00
C764   C     0.85738   0.81354   0.04478   0.00000  Uiso   1.00
C765   C     0.75701   0.83663   0.48259   0.00000  Uiso   1.00
C766   C     0.90115   0.79203   0.02038   0.00000  Uiso   1.00
C767   C     0.83502   0.80709   0.47681   0.00000  Uiso   1.00
C768   C     0.82264   0.81716   0.02415   0.00000  Uiso   1.00
H769   H     0.70544   0.84316   0.05133   0.00000  Uiso   1.00
H770   H     0.94108   0.75611   0.45708   0.00000  Uiso   1.00
H771   H     0.81718   0.85023   0.10755   0.00000  Uiso   1.00
H772   H     0.85451   0.81380   0.38694   0.00000  Uiso   1.00
H773   H     0.94781   0.79524   0.10491   0.00000  Uiso   1.00
H774   H     0.71516   0.85361   0.39755   0.00000  Uiso   1.00
H775   H     0.89241   0.96260   0.27453   0.00000  Uiso   1.00
H776   H     0.76303   0.70537   0.24968   0.00000  Uiso   1.00
N777   N     0.71426   0.83334   0.25001   0.00000  Uiso   1.00
N778   N     0.95241   0.83332   0.24999   0.00000  Uiso   1.00
O779   O     0.79512   0.89442   0.25001   0.00000  Uiso   1.00
O780   O     0.87154   0.77225   0.25000   0.00000  Uiso   1.00
O781   O     0.87157   0.89441   0.25000   0.00000  Uiso   1.00
O782   O     0.79510   0.77226   0.25000   0.00000  Uiso   1.00
O783   O     0.77328   0.83334   0.31613   0.00000  Uiso   1.00
O784   O     0.89339   0.83333   0.18388   0.00000  Uiso   1.00
O785   O     0.84972   0.83333   0.31612   0.00000  Uiso   1.00
O786   O     0.81695   0.83334   0.18388   0.00000  Uiso   1.00
Zn787  Zn    0.78229   0.83334   0.25000   0.00000  Uiso   1.00
Zn788  Zn    0.88438   0.83333   0.25000   0.00000  Uiso   1.00
I789   I     0.99090   0.87845   0.49721   0.00000  Uiso   1.00
I790   I     0.99853   0.74990   0.01213   0.00000  Uiso   1.00
N791   N     0.75506   0.80690   0.09302   0.00000  Uiso   1.00
H792   H     0.72335   0.82025   0.11507   0.00000  Uiso   1.00
C793   C     0.75641   0.76160   0.08817   0.00000  Uiso   1.00
H794   H     0.77952   0.74968   0.10566   0.00000  Uiso   1.00
H795   H     0.77096   0.74841   0.05177   0.00000  Uiso   1.00
H796   H     0.72008   0.74986   0.10269   0.00000  Uiso   1.00
N797   N     0.88159   0.75570   0.41319   0.00000  Uiso   1.00
H798   H     0.91596   0.74586   0.39372   0.00000  Uiso   1.00
C799   C     0.84682   0.72338   0.41778   0.00000  Uiso   1.00
H800   H     0.86476   0.69217   0.41158   0.00000  Uiso   1.00
H801   H     0.82939   0.72617   0.39212   0.00000  Uiso   1.00
H802   H     0.81866   0.72559   0.45238   0.00000  Uiso   1.00
I803   I     0.91603   0.71577   0.29690   0.00000  Uiso   1.00
I804   I     0.74203   0.95447   0.21922   0.00000  Uiso   1.00
N805   N     0.98131   0.79105   0.17819   0.00000  Uiso   1.00
H806   H     0.97707   0.81381   0.15868   0.00000  Uiso   1.00
C807   C     0.95736   0.75250   0.17499   0.00000  Uiso   1.00
H808   H     0.92220   0.75857   0.17234   0.00000  Uiso   1.00
H809   H     0.95381   0.73401   0.20404   0.00000  Uiso   1.00
H810   H     0.97792   0.73351   0.14298   0.00000  Uiso   1.00
N811   N     0.69312   0.89137   0.30887   0.00000  Uiso   1.00
H812   H     0.72737   0.88864   0.30739   0.00000  Uiso   1.00
C813   C     0.99525   0.90053   0.35593   0.00000  Uiso   1.00
H814   H     0.68312   0.90695   0.37841   0.00000  Uiso   1.00
H815   H     0.97170   0.87424   0.36864   0.00000  Uiso   1.00
H816   H     0.97530   0.93009   0.35906   0.00000  Uiso   1.00
N817   N     0.73383   0.77469   0.19179   0.00000  Uiso   1.00
H818   H     0.76875   0.77932   0.18720   0.00000  Uiso   1.00
C819   C     0.72178   0.73128   0.19548   0.00000  Uiso   1.00
H820   H     0.70339   0.72093   0.17184   0.00000  Uiso   1.00
H821   H     0.69943   0.72555   0.23108   0.00000  Uiso   1.00
H822   H     0.75490   0.71162   0.18359   0.00000  Uiso   1.00
N823   N     0.93691   0.89959   0.29505   0.00000  Uiso   1.00
H824   H     0.95524   0.92691   0.28962   0.00000  Uiso   1.00
C825   C     0.89866   0.90044   0.33910   0.00000  Uiso   1.00
H826   H     0.90167   0.92737   0.36227   0.00000  Uiso   1.00
H827   H     0.89862   0.87152   0.35599   0.00000  Uiso   1.00
H828   H     0.86409   0.90560   0.33470   0.00000  Uiso   1.00
C829   C     0.16658   0.24661   0.74971   0.00000  Uiso   1.00
C830   C     0.16542   0.08723   0.75391   0.00000  Uiso   1.00
C831   C     0.10735   0.15799   0.55060   0.00000  Uiso   1.00
C832   C     0.20992   0.11476   0.95393   0.00000  Uiso   1.00
C833   C     0.07569   0.17035   0.53011   0.00000  Uiso   1.00
C834   C     0.24299   0.10874   0.97542   0.00000  Uiso   1.00
C835   C     0.19880   0.31243   0.76647   0.00000  Uiso   1.00
C836   C     0.12623   0.02218   0.75210   0.00000  Uiso   1.00
C837   C     0.19851   0.02193   0.77040   0.00000  Uiso   1.00
C838   C     0.12788   0.31301   0.74523   0.00000  Uiso   1.00
C839   C     0.16342   0.04348   0.75985   0.00000  Uiso   1.00
C840   C     0.16483   0.29113   0.75255   0.00000  Uiso   1.00
C841   C     0.32012   0.13992   0.71994   0.00000  Uiso   1.00
C842   C     0.01330   0.19465   0.77929   0.00000  Uiso   1.00
C843   C     0.03368   0.13809   0.72199   0.00000  Uiso   1.00
C844   C     0.29918   0.19590   0.77752   0.00000  Uiso   1.00
C845   C     0.13712   0.16659   0.83738   0.00000  Uiso   1.00
C846   C     0.19637   0.16544   0.66231   0.00000  Uiso   1.00
C847   C     0.11980   0.16609   0.88709   0.00000  Uiso   1.00
C848   C     0.21355   0.15701   0.61214   0.00000  Uiso   1.00
C849   C     0.05887   0.18276   0.96125   0.00000  Uiso   1.00
C850   C     0.26727   0.11914   0.54268   0.00000  Uiso   1.00
C851   C     0.07320   0.17871   0.91370   0.00000  Uiso   1.00
C852   C     0.25655   0.13511   0.58815   0.00000  Uiso   1.00
C853   C     0.15133   0.15451   0.90806   0.00000  Uiso   1.00
C854   C     0.18232   0.16455   0.58945   0.00000  Uiso   1.00
C855   C     0.13672   0.15388   0.95551   0.00000  Uiso   1.00
C856   C     0.19071   0.14687   0.54478   0.00000  Uiso   1.00
C857   C     0.09034   0.16996   0.98259   0.00000  Uiso   1.00
C858   C     0.23448   0.12536   0.52038   0.00000  Uiso   1.00
C859   C     0.16835   0.14043   0.97681   0.00000  Uiso   1.00
C860   C     0.15597   0.15049   0.52415   0.00000  Uiso   1.00
H861   H     0.03877   0.17649   0.55133   0.00000  Uiso   1.00
H862   H     0.27441   0.08944   0.95708   0.00000  Uiso   1.00
H863   H     0.15051   0.18356   0.60755   0.00000  Uiso   1.00
H864   H     0.18785   0.14714   0.88694   0.00000  Uiso   1.00
H865   H     0.28114   0.12857   0.60491   0.00000  Uiso   1.00
H866   H     0.04849   0.18694   0.89755   0.00000  Uiso   1.00
H867   H     0.22574   0.29593   0.77453   0.00000  Uiso   1.00
H868   H     0.09637   0.03870   0.74968   0.00000  Uiso   1.00
N869   N     0.04759   0.16668   0.75001   0.00000  Uiso   1.00
N870   N     0.28574   0.16666   0.74999   0.00000  Uiso   1.00
O871   O     0.12846   0.22775   0.75001   0.00000  Uiso   1.00
O872   O     0.20488   0.10558   0.75000   0.00000  Uiso   1.00
O873   O     0.20490   0.22774   0.75000   0.00000  Uiso   1.00
O874   O     0.12843   0.10559   0.75000   0.00000  Uiso   1.00
O875   O     0.10661   0.16667   0.81613   0.00000  Uiso   1.00
O876   O     0.22672   0.16666   0.68388   0.00000  Uiso   1.00
O877   O     0.18305   0.16666   0.81612   0.00000  Uiso   1.00
O878   O     0.15028   0.16667   0.68388   0.00000  Uiso   1.00
Zn879  Zn    0.11562   0.16667   0.75000   0.00000  Uiso   1.00
Zn880  Zn    0.21771   0.16666   0.75000   0.00000  Uiso   1.00
I881   I     0.32423   0.21178   0.99721   0.00000  Uiso   1.00
I882   I     0.33186   0.08324   0.51213   0.00000  Uiso   1.00
N883   N     0.08839   0.14023   0.59302   0.00000  Uiso   1.00
H884   H     0.05668   0.15358   0.61507   0.00000  Uiso   1.00
C885   C     0.08974   0.09493   0.58817   0.00000  Uiso   1.00
H886   H     0.11286   0.08302   0.60566   0.00000  Uiso   1.00
H887   H     0.10429   0.08174   0.55177   0.00000  Uiso   1.00
H888   H     0.05342   0.08319   0.60269   0.00000  Uiso   1.00
N889   N     0.21492   0.08903   0.91319   0.00000  Uiso   1.00
H890   H     0.24929   0.07919   0.89372   0.00000  Uiso   1.00
C891   C     0.18016   0.05671   0.91778   0.00000  Uiso   1.00
H892   H     0.19809   0.02550   0.91158   0.00000  Uiso   1.00
H893   H     0.16272   0.05950   0.89212   0.00000  Uiso   1.00
H894   H     0.15199   0.05893   0.95238   0.00000  Uiso   1.00
I895   I     0.24937   0.04910   0.79690   0.00000  Uiso   1.00
I896   I     0.07536   0.28780   0.71922   0.00000  Uiso   1.00
N897   N     0.31465   0.12438   0.67819   0.00000  Uiso   1.00
H898   H     0.31040   0.14714   0.65868   0.00000  Uiso   1.00
C899   C     0.29069   0.08584   0.67499   0.00000  Uiso   1.00
H900   H     0.25553   0.09190   0.67234   0.00000  Uiso   1.00
H901   H     0.28714   0.06734   0.70404   0.00000  Uiso   1.00
H902   H     0.31125   0.06684   0.64298   0.00000  Uiso   1.00
N903   N     0.02645   0.22470   0.80887   0.00000  Uiso   1.00
H904   H     0.06070   0.22198   0.80739   0.00000  Uiso   1.00
C905   C     0.32859   0.23387   0.85593   0.00000  Uiso   1.00
H906   H     0.01645   0.24028   0.87841   0.00000  Uiso   1.00
H907   H     0.30504   0.20757   0.86864   0.00000  Uiso   1.00
H908   H     0.30863   0.26342   0.85906   0.00000  Uiso   1.00
N909   N     0.06717   0.10802   0.69179   0.00000  Uiso   1.00
H910   H     0.10209   0.11265   0.68720   0.00000  Uiso   1.00
C911   C     0.05512   0.06461   0.69548   0.00000  Uiso   1.00
H912   H     0.03673   0.05426   0.67184   0.00000  Uiso   1.00
H913   H     0.03277   0.05888   0.73108   0.00000  Uiso   1.00
H914   H     0.08823   0.04495   0.68359   0.00000  Uiso   1.00
N915   N     0.27024   0.23292   0.79505   0.00000  Uiso   1.00
H916   H     0.28857   0.26024   0.78962   0.00000  Uiso   1.00
C917   C     0.23200   0.23378   0.83910   0.00000  Uiso   1.00
H918   H     0.23500   0.26070   0.86227   0.00000  Uiso   1.00
H919   H     0.23196   0.20485   0.85599   0.00000  Uiso   1.00
H920   H     0.19743   0.23893   0.83470   0.00000  Uiso   1.00
C921   C     0.49991   0.24661   0.74971   0.00000  Uiso   1.00
C922   C     0.49875   0.08723   0.75391   0.00000  Uiso   1.00
C923   C     0.44068   0.15799   0.55060   0.00000  Uiso   1.00
C924   C     0.54325   0.11476   0.95393   0.00000  Uiso   1.00
C925   C     0.40902   0.17035   0.53011   0.00000  Uiso   1.00
C926   C     0.57633   0.10874   0.97542   0.00000  Uiso   1.00
C927   C     0.53213   0.31243   0.76647   0.00000  Uiso   1.00
C928   C     0.45956   0.02218   0.75210   0.00000  Uiso   1.00
C929   C     0.53184   0.02193   0.77040   0.00000  Uiso   1.00
C930   C     0.46121   0.31301   0.74523   0.00000  Uiso   1.00
C931   C     0.49676   0.04348   0.75985   0.00000  Uiso   1.00
C932   C     0.49816   0.29113   0.75255   0.00000  Uiso   1.00
C933   C     0.65345   0.13992   0.71994   0.00000  Uiso   1.00
C934   C     0.34663   0.19465   0.77929   0.00000  Uiso   1.00
C935   C     0.36701   0.13809   0.72199   0.00000  Uiso   1.00
C936   C     0.63251   0.19590   0.77752   0.00000  Uiso   1.00
C937   C     0.47045   0.16659   0.83738   0.00000  Uiso   1.00
C938   C     0.52970   0.16544   0.66231   0.00000  Uiso   1.00
C939   C     0.45313   0.16609   0.88709   0.00000  Uiso   1.00
C940   C     0.54688   0.15701   0.61214   0.00000  Uiso   1.00
C941   C     0.39220   0.18276   0.96125   0.00000  Uiso   1.00
C942   C     0.60060   0.11914   0.54268   0.00000  Uiso   1.00
C943   C     0.40653   0.17871   0.91370   0.00000  Uiso   1.00
C944   C     0.58989   0.13511   0.58815   0.00000  Uiso   1.00
C945   C     0.48466   0.15451   0.90806   0.00000  Uiso   1.00
C946   C     0.51565   0.16455   0.58945   0.00000  Uiso   1.00
C947   C     0.47006   0.15388   0.95551   0.00000  Uiso   1.00
C948   C     0.52404   0.14687   0.54478   0.00000  Uiso   1.00
C949   C     0.42367   0.16996   0.98259   0.00000  Uiso   1.00
C950   C     0.56781   0.12536   0.52038   0.00000  Uiso   1.00
C951   C     0.50168   0.14043   0.97681   0.00000  Uiso   1.00
C952   C     0.48931   0.15049   0.52415   0.00000  Uiso   1.00
H953   H     0.37211   0.17649   0.55133   0.00000  Uiso   1.00
H954   H     0.60775   0.08944   0.95708   0.00000  Uiso   1.00
H955   H     0.48385   0.18356   0.60755   0.00000  Uiso   1.00
H956   H     0.52118   0.14714   0.88694   0.00000  Uiso   1.00
H957   H     0.61448   0.12857   0.60491   0.00000  Uiso   1.00
H958   H     0.38183   0.18694   0.89755   0.00000  Uiso   1.00
H959   H     0.55908   0.29593   0.77453   0.00000  Uiso   1.00
H960   H     0.42970   0.03870   0.74968   0.00000  Uiso   1.00
N961   N     0.38093   0.16668   0.75001   0.00000  Uiso   1.00
N962   N     0.61907   0.16666   0.74999   0.00000  Uiso   1.00
O963   O     0.46179   0.22775   0.75001   0.00000  Uiso   1.00
O964   O     0.53821   0.10558   0.75000   0.00000  Uiso   1.00
O965   O     0.53823   0.22774   0.75000   0.00000  Uiso   1.00
O966   O     0.46177   0.10559   0.75000   0.00000  Uiso   1.00
O967   O     0.43994   0.16667   0.81613   0.00000  Uiso   1.00
O968   O     0.56006   0.16666   0.68388   0.00000  Uiso   1.00
O969   O     0.51639   0.16666   0.81612   0.00000  Uiso   1.00
O970   O     0.48361   0.16667   0.68388   0.00000  Uiso   1.00
Zn971  Zn    0.44896   0.16667   0.75000   0.00000  Uiso   1.00
Zn972  Zn    0.55104   0.16666   0.75000   0.00000  Uiso   1.00
I973   I     0.65757   0.21178   0.99721   0.00000  Uiso   1.00
I974   I     0.66519   0.08324   0.51213   0.00000  Uiso   1.00
N975   N     0.42173   0.14023   0.59302   0.00000  Uiso   1.00
H976   H     0.39001   0.15358   0.61507   0.00000  Uiso   1.00
C977   C     0.42308   0.09493   0.58817   0.00000  Uiso   1.00
H978   H     0.44619   0.08302   0.60566   0.00000  Uiso   1.00
H979   H     0.43762   0.08174   0.55177   0.00000  Uiso   1.00
H980   H     0.38675   0.08319   0.60269   0.00000  Uiso   1.00
N981   N     0.54825   0.08903   0.91319   0.00000  Uiso   1.00
H982   H     0.58263   0.07919   0.89372   0.00000  Uiso   1.00
C983   C     0.51349   0.05671   0.91778   0.00000  Uiso   1.00
H984   H     0.53142   0.02550   0.91158   0.00000  Uiso   1.00
H985   H     0.49605   0.05950   0.89212   0.00000  Uiso   1.00
H986   H     0.48532   0.05893   0.95238   0.00000  Uiso   1.00
I987   I     0.58270   0.04910   0.79690   0.00000  Uiso   1.00
I988   I     0.40869   0.28780   0.71922   0.00000  Uiso   1.00
N989   N     0.64798   0.12438   0.67819   0.00000  Uiso   1.00
H990   H     0.64374   0.14714   0.65868   0.00000  Uiso   1.00
C991   C     0.62403   0.08584   0.67499   0.00000  Uiso   1.00
H992   H     0.58886   0.09190   0.67234   0.00000  Uiso   1.00
H993   H     0.62047   0.06734   0.70404   0.00000  Uiso   1.00
H994   H     0.64459   0.06684   0.64298   0.00000  Uiso   1.00
N995   N     0.35979   0.22470   0.80887   0.00000  Uiso   1.00
H996   H     0.39404   0.22198   0.80739   0.00000  Uiso   1.00
C997   C     0.66192   0.23387   0.85593   0.00000  Uiso   1.00
H998   H     0.34979   0.24028   0.87841   0.00000  Uiso   1.00
H999   H     0.63837   0.20757   0.86864   0.00000  Uiso   1.00
H1000  H     0.64197   0.26342   0.85906   0.00000  Uiso   1.00
N1001  N     0.40050   0.10802   0.69179   0.00000  Uiso   1.00
H1002  H     0.43542   0.11265   0.68720   0.00000  Uiso   1.00
C1003  C     0.38845   0.06461   0.69548   0.00000  Uiso   1.00
H1004  H     0.37006   0.05426   0.67184   0.00000  Uiso   1.00
H1005  H     0.36610   0.05888   0.73108   0.00000  Uiso   1.00
H1006  H     0.42156   0.04495   0.68359   0.00000  Uiso   1.00
N1007  N     0.60357   0.23292   0.79505   0.00000  Uiso   1.00
H1008  H     0.62190   0.26024   0.78962   0.00000  Uiso   1.00
C1009  C     0.56533   0.23378   0.83910   0.00000  Uiso   1.00
H1010  H     0.56834   0.26070   0.86227   0.00000  Uiso   1.00
H1011  H     0.56529   0.20485   0.85599   0.00000  Uiso   1.00
H1012  H     0.53076   0.23893   0.83470   0.00000  Uiso   1.00
C1013  C     0.83325   0.24661   0.74971   0.00000  Uiso   1.00
C1014  C     0.83208   0.08723   0.75391   0.00000  Uiso   1.00
C1015  C     0.77401   0.15799   0.55060   0.00000  Uiso   1.00
C1016  C     0.87658   0.11476   0.95393   0.00000  Uiso   1.00
C1017  C     0.74236   0.17035   0.53011   0.00000  Uiso   1.00
C1018  C     0.90966   0.10874   0.97542   0.00000  Uiso   1.00
C1019  C     0.86547   0.31243   0.76647   0.00000  Uiso   1.00
C1020  C     0.79289   0.02218   0.75210   0.00000  Uiso   1.00
C1021  C     0.86517   0.02193   0.77040   0.00000  Uiso   1.00
C1022  C     0.79455   0.31301   0.74523   0.00000  Uiso   1.00
C1023  C     0.83009   0.04348   0.75985   0.00000  Uiso   1.00
C1024  C     0.83149   0.29113   0.75255   0.00000  Uiso   1.00
C1025  C     0.98678   0.13992   0.71994   0.00000  Uiso   1.00
C1026  C     0.67996   0.19465   0.77929   0.00000  Uiso   1.00
C1027  C     0.70035   0.13809   0.72199   0.00000  Uiso   1.00
C1028  C     0.96584   0.19590   0.77752   0.00000  Uiso   1.00
C1029  C     0.80378   0.16659   0.83738   0.00000  Uiso   1.00
C1030  C     0.86304   0.16544   0.66231   0.00000  Uiso   1.00
C1031  C     0.78647   0.16609   0.88709   0.00000  Uiso   1.00
C1032  C     0.88021   0.15701   0.61214   0.00000  Uiso   1.00
C1033  C     0.72553   0.18276   0.96125   0.00000  Uiso   1.00
C1034  C     0.93393   0.11914   0.54268   0.00000  Uiso   1.00
C1035  C     0.73987   0.17871   0.91370   0.00000  Uiso   1.00
C1036  C     0.92322   0.13511   0.58815   0.00000  Uiso   1.00
C1037  C     0.81799   0.15451   0.90806   0.00000  Uiso   1.00
C1038  C     0.84899   0.16455   0.58945   0.00000  Uiso   1.00
C1039  C     0.80339   0.15388   0.95551   0.00000  Uiso   1.00
C1040  C     0.85738   0.14687   0.54478   0.00000  Uiso   1.00
C1041  C     0.75701   0.16996   0.98259   0.00000  Uiso   1.00
C1042  C     0.90115   0.12536   0.52038   0.00000  Uiso   1.00
C1043  C     0.83502   0.14043   0.97681   0.00000  Uiso   1.00
C1044  C     0.82264   0.15049   0.52415   0.00000  Uiso   1.00
H1045  H     0.70544   0.17649   0.55133   0.00000  Uiso   1.00
H1046  H     0.94108   0.08944   0.95708   0.00000  Uiso   1.00
H1047  H     0.81718   0.18356   0.60755   0.00000  Uiso   1.00
H1048  H     0.85451   0.14714   0.88694   0.00000  Uiso   1.00
H1049  H     0.94781   0.12857   0.60491   0.00000  Uiso   1.00
H1050  H     0.71516   0.18694   0.89755   0.00000  Uiso   1.00
H1051  H     0.89241   0.29593   0.77453   0.00000  Uiso   1.00
H1052  H     0.76303   0.03870   0.74968   0.00000  Uiso   1.00
N1053  N     0.71426   0.16668   0.75001   0.00000  Uiso   1.00
N1054  N     0.95241   0.16666   0.74999   0.00000  Uiso   1.00
O1055  O     0.79512   0.22775   0.75001   0.00000  Uiso   1.00
O1056  O     0.87154   0.10558   0.75000   0.00000  Uiso   1.00
O1057  O     0.87157   0.22774   0.75000   0.00000  Uiso   1.00
O1058  O     0.79510   0.10559   0.75000   0.00000  Uiso   1.00
O1059  O     0.77328   0.16667   0.81613   0.00000  Uiso   1.00
O1060  O     0.89339   0.16666   0.68388   0.00000  Uiso   1.00
O1061  O     0.84972   0.16666   0.81612   0.00000  Uiso   1.00
O1062  O     0.81695   0.16667   0.68388   0.00000  Uiso   1.00
Zn1063 Zn    0.78229   0.16667   0.75000   0.00000  Uiso   1.00
Zn1064 Zn    0.88438   0.16666   0.75000   0.00000  Uiso   1.00
I1065  I     0.99090   0.21178   0.99721   0.00000  Uiso   1.00
I1066  I     0.99853   0.08324   0.51213   0.00000  Uiso   1.00
N1067  N     0.75506   0.14023   0.59302   0.00000  Uiso   1.00
H1068  H     0.72335   0.15358   0.61507   0.00000  Uiso   1.00
C1069  C     0.75641   0.09493   0.58817   0.00000  Uiso   1.00
H1070  H     0.77952   0.08302   0.60566   0.00000  Uiso   1.00
H1071  H     0.77096   0.08174   0.55177   0.00000  Uiso   1.00
H1072  H     0.72008   0.08319   0.60269   0.00000  Uiso   1.00
N1073  N     0.88159   0.08903   0.91319   0.00000  Uiso   1.00
H1074  H     0.91596   0.07919   0.89372   0.00000  Uiso   1.00
C1075  C     0.84682   0.05671   0.91778   0.00000  Uiso   1.00
H1076  H     0.86476   0.02550   0.91158   0.00000  Uiso   1.00
H1077  H     0.82939   0.05950   0.89212   0.00000  Uiso   1.00
H1078  H     0.81866   0.05893   0.95238   0.00000  Uiso   1.00
I1079  I     0.91603   0.04910   0.79690   0.00000  Uiso   1.00
I1080  I     0.74203   0.28780   0.71922   0.00000  Uiso   1.00
N1081  N     0.98131   0.12438   0.67819   0.00000  Uiso   1.00
H1082  H     0.97707   0.14714   0.65868   0.00000  Uiso   1.00
C1083  C     0.95736   0.08584   0.67499   0.00000  Uiso   1.00
H1084  H     0.92220   0.09190   0.67234   0.00000  Uiso   1.00
H1085  H     0.95381   0.06734   0.70404   0.00000  Uiso   1.00
H1086  H     0.97792   0.06684   0.64298   0.00000  Uiso   1.00
N1087  N     0.69312   0.22470   0.80887   0.00000  Uiso   1.00
H1088  H     0.72737   0.22198   0.80739   0.00000  Uiso   1.00
C1089  C     0.99525   0.23387   0.85593   0.00000  Uiso   1.00
H1090  H     0.68312   0.24028   0.87841   0.00000  Uiso   1.00
H1091  H     0.97170   0.20757   0.86864   0.00000  Uiso   1.00
H1092  H     0.97530   0.26342   0.85906   0.00000  Uiso   1.00
N1093  N     0.73383   0.10802   0.69179   0.00000  Uiso   1.00
H1094  H     0.76875   0.11265   0.68720   0.00000  Uiso   1.00
C1095  C     0.72178   0.06461   0.69548   0.00000  Uiso   1.00
H1096  H     0.70339   0.05426   0.67184   0.00000  Uiso   1.00
H1097  H     0.69943   0.05888   0.73108   0.00000  Uiso   1.00
H1098  H     0.75490   0.04495   0.68359   0.00000  Uiso   1.00
N1099  N     0.93691   0.23292   0.79505   0.00000  Uiso   1.00
H1100  H     0.95524   0.26024   0.78962   0.00000  Uiso   1.00
C1101  C     0.89866   0.23378   0.83910   0.00000  Uiso   1.00
H1102  H     0.90167   0.26070   0.86227   0.00000  Uiso   1.00
H1103  H     0.89862   0.20485   0.85599   0.00000  Uiso   1.00
H1104  H     0.86409   0.23893   0.83470   0.00000  Uiso   1.00
C1105  C     0.16658   0.57995   0.74971   0.00000  Uiso   1.00
C1106  C     0.16542   0.42057   0.75391   0.00000  Uiso   1.00
C1107  C     0.10735   0.49133   0.55060   0.00000  Uiso   1.00
C1108  C     0.20992   0.44809   0.95393   0.00000  Uiso   1.00
C1109  C     0.07569   0.50368   0.53011   0.00000  Uiso   1.00
C1110  C     0.24299   0.44207   0.97542   0.00000  Uiso   1.00
C1111  C     0.19880   0.64576   0.76647   0.00000  Uiso   1.00
C1112  C     0.12623   0.35551   0.75210   0.00000  Uiso   1.00
C1113  C     0.19851   0.35526   0.77040   0.00000  Uiso   1.00
C1114  C     0.12788   0.64634   0.74523   0.00000  Uiso   1.00
C1115  C     0.16342   0.37681   0.75985   0.00000  Uiso   1.00
C1116  C     0.16483   0.62446   0.75255   0.00000  Uiso   1.00
C1117  C     0.32012   0.47325   0.71994   0.00000  Uiso   1.00
C1118  C     0.01330   0.52799   0.77929   0.00000  Uiso   1.00
C1119  C     0.03368   0.47143   0.72199   0.00000  Uiso   1.00
C1120  C     0.29918   0.52924   0.77752   0.00000  Uiso   1.00
C1121  C     0.13712   0.49992   0.83738   0.00000  Uiso   1.00
C1122  C     0.19637   0.49877   0.66231   0.00000  Uiso   1.00
C1123  C     0.11980   0.49943   0.88709   0.00000  Uiso   1.00
C1124  C     0.21355   0.49035   0.61214   0.00000  Uiso   1.00
C1125  C     0.05887   0.51609   0.96125   0.00000  Uiso   1.00
C1126  C     0.26727   0.45248   0.54268   0.00000  Uiso   1.00
C1127  C     0.07320   0.51205   0.91370   0.00000  Uiso   1.00
C1128  C     0.25655   0.46845   0.58815   0.00000  Uiso   1.00
C1129  C     0.15133   0.48784   0.90806   0.00000  Uiso   1.00
C1130  C     0.18232   0.49789   0.58945   0.00000  Uiso   1.00
C1131  C     0.13672   0.48721   0.95551   0.00000  Uiso   1.00
C1132  C     0.19071   0.48020   0.54478   0.00000  Uiso   1.00
C1133  C     0.09034   0.50329   0.98259   0.00000  Uiso   1.00
C1134  C     0.23448   0.45869   0.52038   0.00000  Uiso   1.00
C1135  C     0.16835   0.47376   0.97681   0.00000  Uiso   1.00
C1136  C     0.15597   0.48382   0.52415   0.00000  Uiso   1.00
H1137  H     0.03877   0.50982   0.55133   0.00000  Uiso   1.00
H1138  H     0.27441   0.42277   0.95708   0.00000  Uiso   1.00
H1139  H     0.15051   0.51690   0.60755   0.00000  Uiso   1.00
H1140  H     0.18785   0.48047   0.88694   0.00000  Uiso   1.00
H1141  H     0.28114   0.46191   0.60491   0.00000  Uiso   1.00
H1142  H     0.04849   0.52028   0.89755   0.00000  Uiso   1.00
H1143  H     0.22574   0.62926   0.77453   0.00000  Uiso   1.00
H1144  H     0.09637   0.37203   0.74968   0.00000  Uiso   1.00
N1145  N     0.04759   0.50001   0.75001   0.00000  Uiso   1.00
N1146  N     0.28574   0.49999   0.74999   0.00000  Uiso   1.00
O1147  O     0.12846   0.56108   0.75001   0.00000  Uiso   1.00
O1148  O     0.20488   0.43892   0.75000   0.00000  Uiso   1.00
O1149  O     0.20490   0.56107   0.75000   0.00000  Uiso   1.00
O1150  O     0.12843   0.43893   0.75000   0.00000  Uiso   1.00
O1151  O     0.10661   0.50001   0.81613   0.00000  Uiso   1.00
O1152  O     0.22672   0.49999   0.68388   0.00000  Uiso   1.00
O1153  O     0.18305   0.50000   0.81612   0.00000  Uiso   1.00
O1154  O     0.15028   0.50000   0.68388   0.00000  Uiso   1.00
Zn1155 Zn    0.11562   0.50001   0.75000   0.00000  Uiso   1.00
Zn1156 Zn    0.21771   0.49999   0.75000   0.00000  Uiso   1.00
I1157  I     0.32423   0.54511   0.99721   0.00000  Uiso   1.00
I1158  I     0.33186   0.41657   0.51213   0.00000  Uiso   1.00
N1159  N     0.08839   0.47356   0.59302   0.00000  Uiso   1.00
H1160  H     0.05668   0.48691   0.61507   0.00000  Uiso   1.00
C1161  C     0.08974   0.42826   0.58817   0.00000  Uiso   1.00
H1162  H     0.11286   0.41635   0.60566   0.00000  Uiso   1.00
H1163  H     0.10429   0.41508   0.55177   0.00000  Uiso   1.00
H1164  H     0.05342   0.41652   0.60269   0.00000  Uiso   1.00
N1165  N     0.21492   0.42237   0.91319   0.00000  Uiso   1.00
H1166  H     0.24929   0.41252   0.89372   0.00000  Uiso   1.00
C1167  C     0.18016   0.39004   0.91778   0.00000  Uiso   1.00
H1168  H     0.19809   0.35883   0.91158   0.00000  Uiso   1.00
H1169  H     0.16272   0.39283   0.89212   0.00000  Uiso   1.00
H1170  H     0.15199   0.39226   0.95238   0.00000  Uiso   1.00
I1171  I     0.24937   0.38244   0.79690   0.00000  Uiso   1.00
I1172  I     0.07536   0.62113   0.71922   0.00000  Uiso   1.00
N1173  N     0.31465   0.45772   0.67819   0.00000  Uiso   1.00
H1174  H     0.31040   0.48048   0.65868   0.00000  Uiso   1.00
C1175  C     0.29069   0.41917   0.67499   0.00000  Uiso   1.00
H1176  H     0.25553   0.42523   0.67234   0.00000  Uiso   1.00
H1177  H     0.28714   0.40068   0.70404   0.00000  Uiso   1.00
H1178  H     0.31125   0.40017   0.64298   0.00000  Uiso   1.00
N1179  N     0.02645   0.55803   0.80887   0.00000  Uiso   1.00
H1180  H     0.06070   0.55531   0.80739   0.00000  Uiso   1.00
C1181  C     0.32859   0.56720   0.85593   0.00000  Uiso   1.00
H1182  H     0.01645   0.57362   0.87841   0.00000  Uiso   1.00
H1183  H     0.30504   0.54091   0.86864   0.00000  Uiso   1.00
H1184  H     0.30863   0.59676   0.85906   0.00000  Uiso   1.00
N1185  N     0.06717   0.44135   0.69179   0.00000  Uiso   1.00
H1186  H     0.10209   0.44598   0.68720   0.00000  Uiso   1.00
C1187  C     0.05512   0.39794   0.69548   0.00000  Uiso   1.00
H1188  H     0.03673   0.38759   0.67184   0.00000  Uiso   1.00
H1189  H     0.03277   0.39222   0.73108   0.00000  Uiso   1.00
H1190  H     0.08823   0.37829   0.68359   0.00000  Uiso   1.00
N1191  N     0.27024   0.56626   0.79505   0.00000  Uiso   1.00
H1192  H     0.28857   0.59357   0.78962   0.00000  Uiso   1.00
C1193  C     0.23200   0.56711   0.83910   0.00000  Uiso   1.00
H1194  H     0.23500   0.59404   0.86227   0.00000  Uiso   1.00
H1195  H     0.23196   0.53819   0.85599   0.00000  Uiso   1.00
H1196  H     0.19743   0.57226   0.83470   0.00000  Uiso   1.00
C1197  C     0.49991   0.57995   0.74971   0.00000  Uiso   1.00
C1198  C     0.49875   0.42057   0.75391   0.00000  Uiso   1.00
C1199  C     0.44068   0.49133   0.55060   0.00000  Uiso   1.00
C1200  C     0.54325   0.44809   0.95393   0.00000  Uiso   1.00
C1201  C     0.40902   0.50368   0.53011   0.00000  Uiso   1.00
C1202  C     0.57633   0.44207   0.97542   0.00000  Uiso   1.00
C1203  C     0.53213   0.64576   0.76647   0.00000  Uiso   1.00
C1204  C     0.45956   0.35551   0.75210   0.00000  Uiso   1.00
C1205  C     0.53184   0.35526   0.77040   0.00000  Uiso   1.00
C1206  C     0.46121   0.64634   0.74523   0.00000  Uiso   1.00
C1207  C     0.49676   0.37681   0.75985   0.00000  Uiso   1.00
C1208  C     0.49816   0.62446   0.75255   0.00000  Uiso   1.00
C1209  C     0.65345   0.47325   0.71994   0.00000  Uiso   1.00
C1210  C     0.34663   0.52799   0.77929   0.00000  Uiso   1.00
C1211  C     0.36701   0.47143   0.72199   0.00000  Uiso   1.00
C1212  C     0.63251   0.52924   0.77752   0.00000  Uiso   1.00
C1213  C     0.47045   0.49992   0.83738   0.00000  Uiso   1.00
C1214  C     0.52970   0.49877   0.66231   0.00000  Uiso   1.00
C1215  C     0.45313   0.49943   0.88709   0.00000  Uiso   1.00
C1216  C     0.54688   0.49035   0.61214   0.00000  Uiso   1.00
C1217  C     0.39220   0.51609   0.96125   0.00000  Uiso   1.00
C1218  C     0.60060   0.45248   0.54268   0.00000  Uiso   1.00
C1219  C     0.40653   0.51205   0.91370   0.00000  Uiso   1.00
C1220  C     0.58989   0.46845   0.58815   0.00000  Uiso   1.00
C1221  C     0.48466   0.48784   0.90806   0.00000  Uiso   1.00
C1222  C     0.51565   0.49789   0.58945   0.00000  Uiso   1.00
C1223  C     0.47006   0.48721   0.95551   0.00000  Uiso   1.00
C1224  C     0.52404   0.48020   0.54478   0.00000  Uiso   1.00
C1225  C     0.42367   0.50329   0.98259   0.00000  Uiso   1.00
C1226  C     0.56781   0.45869   0.52038   0.00000  Uiso   1.00
C1227  C     0.50168   0.47376   0.97681   0.00000  Uiso   1.00
C1228  C     0.48931   0.48382   0.52415   0.00000  Uiso   1.00
H1229  H     0.37211   0.50982   0.55133   0.00000  Uiso   1.00
H1230  H     0.60775   0.42277   0.95708   0.00000  Uiso   1.00
H1231  H     0.48385   0.51690   0.60755   0.00000  Uiso   1.00
H1232  H     0.52118   0.48047   0.88694   0.00000  Uiso   1.00
H1233  H     0.61448   0.46191   0.60491   0.00000  Uiso   1.00
H1234  H     0.38183   0.52028   0.89755   0.00000  Uiso   1.00
H1235  H     0.55908   0.62926   0.77453   0.00000  Uiso   1.00
H1236  H     0.42970   0.37203   0.74968   0.00000  Uiso   1.00
N1237  N     0.38093   0.50001   0.75001   0.00000  Uiso   1.00
N1238  N     0.61907   0.49999   0.74999   0.00000  Uiso   1.00
O1239  O     0.46179   0.56108   0.75001   0.00000  Uiso   1.00
O1240  O     0.53821   0.43892   0.75000   0.00000  Uiso   1.00
O1241  O     0.53823   0.56107   0.75000   0.00000  Uiso   1.00
O1242  O     0.46177   0.43893   0.75000   0.00000  Uiso   1.00
O1243  O     0.43994   0.50001   0.81613   0.00000  Uiso   1.00
O1244  O     0.56006   0.49999   0.68388   0.00000  Uiso   1.00
O1245  O     0.51639   0.50000   0.81612   0.00000  Uiso   1.00
O1246  O     0.48361   0.50000   0.68388   0.00000  Uiso   1.00
Zn1247 Zn    0.44896   0.50001   0.75000   0.00000  Uiso   1.00
Zn1248 Zn    0.55104   0.49999   0.75000   0.00000  Uiso   1.00
I1249  I     0.65757   0.54511   0.99721   0.00000  Uiso   1.00
I1250  I     0.66519   0.41657   0.51213   0.00000  Uiso   1.00
N1251  N     0.42173   0.47356   0.59302   0.00000  Uiso   1.00
H1252  H     0.39001   0.48691   0.61507   0.00000  Uiso   1.00
C1253  C     0.42308   0.42826   0.58817   0.00000  Uiso   1.00
H1254  H     0.44619   0.41635   0.60566   0.00000  Uiso   1.00
H1255  H     0.43762   0.41508   0.55177   0.00000  Uiso   1.00
H1256  H     0.38675   0.41652   0.60269   0.00000  Uiso   1.00
N1257  N     0.54825   0.42237   0.91319   0.00000  Uiso   1.00
H1258  H     0.58263   0.41252   0.89372   0.00000  Uiso   1.00
C1259  C     0.51349   0.39004   0.91778   0.00000  Uiso   1.00
H1260  H     0.53142   0.35883   0.91158   0.00000  Uiso   1.00
H1261  H     0.49605   0.39283   0.89212   0.00000  Uiso   1.00
H1262  H     0.48532   0.39226   0.95238   0.00000  Uiso   1.00
I1263  I     0.58270   0.38244   0.79690   0.00000  Uiso   1.00
I1264  I     0.40869   0.62113   0.71922   0.00000  Uiso   1.00
N1265  N     0.64798   0.45772   0.67819   0.00000  Uiso   1.00
H1266  H     0.64374   0.48048   0.65868   0.00000  Uiso   1.00
C1267  C     0.62403   0.41917   0.67499   0.00000  Uiso   1.00
H1268  H     0.58886   0.42523   0.67234   0.00000  Uiso   1.00
H1269  H     0.62047   0.40068   0.70404   0.00000  Uiso   1.00
H1270  H     0.64459   0.40017   0.64298   0.00000  Uiso   1.00
N1271  N     0.35979   0.55803   0.80887   0.00000  Uiso   1.00
H1272  H     0.39404   0.55531   0.80739   0.00000  Uiso   1.00
C1273  C     0.66192   0.56720   0.85593   0.00000  Uiso   1.00
H1274  H     0.34979   0.57362   0.87841   0.00000  Uiso   1.00
H1275  H     0.63837   0.54091   0.86864   0.00000  Uiso   1.00
H1276  H     0.64197   0.59676   0.85906   0.00000  Uiso   1.00
N1277  N     0.40050   0.44135   0.69179   0.00000  Uiso   1.00
H1278  H     0.43542   0.44598   0.68720   0.00000  Uiso   1.00
C1279  C     0.38845   0.39794   0.69548   0.00000  Uiso   1.00
H1280  H     0.37006   0.38759   0.67184   0.00000  Uiso   1.00
H1281  H     0.36610   0.39222   0.73108   0.00000  Uiso   1.00
H1282  H     0.42156   0.37829   0.68359   0.00000  Uiso   1.00
N1283  N     0.60357   0.56626   0.79505   0.00000  Uiso   1.00
H1284  H     0.62190   0.59357   0.78962   0.00000  Uiso   1.00
C1285  C     0.56533   0.56711   0.83910   0.00000  Uiso   1.00
H1286  H     0.56834   0.59404   0.86227   0.00000  Uiso   1.00
H1287  H     0.56529   0.53819   0.85599   0.00000  Uiso   1.00
H1288  H     0.53076   0.57226   0.83470   0.00000  Uiso   1.00
C1289  C     0.83325   0.57995   0.74971   0.00000  Uiso   1.00
C1290  C     0.83208   0.42057   0.75391   0.00000  Uiso   1.00
C1291  C     0.77401   0.49133   0.55060   0.00000  Uiso   1.00
C1292  C     0.87658   0.44809   0.95393   0.00000  Uiso   1.00
C1293  C     0.74236   0.50368   0.53011   0.00000  Uiso   1.00
C1294  C     0.90966   0.44207   0.97542   0.00000  Uiso   1.00
C1295  C     0.86547   0.64576   0.76647   0.00000  Uiso   1.00
C1296  C     0.79289   0.35551   0.75210   0.00000  Uiso   1.00
C1297  C     0.86517   0.35526   0.77040   0.00000  Uiso   1.00
C1298  C     0.79455   0.64634   0.74523   0.00000  Uiso   1.00
C1299  C     0.83009   0.37681   0.75985   0.00000  Uiso   1.00
C1300  C     0.83149   0.62446   0.75255   0.00000  Uiso   1.00
C1301  C     0.98678   0.47325   0.71994   0.00000  Uiso   1.00
C1302  C     0.67996   0.52799   0.77929   0.00000  Uiso   1.00
C1303  C     0.70035   0.47143   0.72199   0.00000  Uiso   1.00
C1304  C     0.96584   0.52924   0.77752   0.00000  Uiso   1.00
C1305  C     0.80378   0.49992   0.83738   0.00000  Uiso   1.00
C1306  C     0.86304   0.49877   0.66231   0.00000  Uiso   1.00
C1307  C     0.78647   0.49943   0.88709   0.00000  Uiso   1.00
C1308  C     0.88021   0.49035   0.61214   0.00000  Uiso   1.00
C1309  C     0.72553   0.51609   0.96125   0.00000  Uiso   1.00
C1310  C     0.93393   0.45248   0.54268   0.00000  Uiso   1.00
C1311  C     0.73987   0.51205   0.91370   0.00000  Uiso   1.00
C1312  C     0.92322   0.46845   0.58815   0.00000  Uiso   1.00
C1313  C     0.81799   0.48784   0.90806   0.00000  Uiso   1.00
C1314  C     0.84899   0.49789   0.58945   0.00000  Uiso   1.00
C1315  C     0.80339   0.48721   0.95551   0.00000  Uiso   1.00
C1316  C     0.85738   0.48020   0.54478   0.00000  Uiso   1.00
C1317  C     0.75701   0.50329   0.98259   0.00000  Uiso   1.00
C1318  C     0.90115   0.45869   0.52038   0.00000  Uiso   1.00
C1319  C     0.83502   0.47376   0.97681   0.00000  Uiso   1.00
C1320  C     0.82264   0.48382   0.52415   0.00000  Uiso   1.00
H1321  H     0.70544   0.50982   0.55133   0.00000  Uiso   1.00
H1322  H     0.94108   0.42277   0.95708   0.00000  Uiso   1.00
H1323  H     0.81718   0.51690   0.60755   0.00000  Uiso   1.00
H1324  H     0.85451   0.48047   0.88694   0.00000  Uiso   1.00
H1325  H     0.94781   0.46191   0.60491   0.00000  Uiso   1.00
H1326  H     0.71516   0.52028   0.89755   0.00000  Uiso   1.00
H1327  H     0.89241   0.62926   0.77453   0.00000  Uiso   1.00
H1328  H     0.76303   0.37203   0.74968   0.00000  Uiso   1.00
N1329  N     0.71426   0.50001   0.75001   0.00000  Uiso   1.00
N1330  N     0.95241   0.49999   0.74999   0.00000  Uiso   1.00
O1331  O     0.79512   0.56108   0.75001   0.00000  Uiso   1.00
O1332  O     0.87154   0.43892   0.75000   0.00000  Uiso   1.00
O1333  O     0.87157   0.56107   0.75000   0.00000  Uiso   1.00
O1334  O     0.79510   0.43893   0.75000   0.00000  Uiso   1.00
O1335  O     0.77328   0.50001   0.81613   0.00000  Uiso   1.00
O1336  O     0.89339   0.49999   0.68388   0.00000  Uiso   1.00
O1337  O     0.84972   0.50000   0.81612   0.00000  Uiso   1.00
O1338  O     0.81695   0.50000   0.68388   0.00000  Uiso   1.00
Zn1339 Zn    0.78229   0.50001   0.75000   0.00000  Uiso   1.00
Zn1340 Zn    0.88438   0.49999   0.75000   0.00000  Uiso   1.00
I1341  I     0.99090   0.54511   0.99721   0.00000  Uiso   1.00
I1342  I     0.99853   0.41657   0.51213   0.00000  Uiso   1.00
N1343  N     0.75506   0.47356   0.59302   0.00000  Uiso   1.00
H1344  H     0.72335   0.48691   0.61507   0.00000  Uiso   1.00
C1345  C     0.75641   0.42826   0.58817   0.00000  Uiso   1.00
H1346  H     0.77952   0.41635   0.60566   0.00000  Uiso   1.00
H1347  H     0.77096   0.41508   0.55177   0.00000  Uiso   1.00
H1348  H     0.72008   0.41652   0.60269   0.00000  Uiso   1.00
N1349  N     0.88159   0.42237   0.91319   0.00000  Uiso   1.00
H1350  H     0.91596   0.41252   0.89372   0.00000  Uiso   1.00
C1351  C     0.84682   0.39004   0.91778   0.00000  Uiso   1.00
H1352  H     0.86476   0.35883   0.91158   0.00000  Uiso   1.00
H1353  H     0.82939   0.39283   0.89212   0.00000  Uiso   1.00
H1354  H     0.81866   0.39226   0.95238   0.00000  Uiso   1.00
I1355  I     0.91603   0.38244   0.79690   0.00000  Uiso   1.00
I1356  I     0.74203   0.62113   0.71922   0.00000  Uiso   1.00
N1357  N     0.98131   0.45772   0.67819   0.00000  Uiso   1.00
H1358  H     0.97707   0.48048   0.65868   0.00000  Uiso   1.00
C1359  C     0.95736   0.41917   0.67499   0.00000  Uiso   1.00
H1360  H     0.92220   0.42523   0.67234   0.00000  Uiso   1.00
H1361  H     0.95381   0.40068   0.70404   0.00000  Uiso   1.00
H1362  H     0.97792   0.40017   0.64298   0.00000  Uiso   1.00
N1363  N     0.69312   0.55803   0.80887   0.00000  Uiso   1.00
H1364  H     0.72737   0.55531   0.80739   0.00000  Uiso   1.00
C1365  C     0.99525   0.56720   0.85593   0.00000  Uiso   1.00
H1366  H     0.68312   0.57362   0.87841   0.00000  Uiso   1.00
H1367  H     0.97170   0.54091   0.86864   0.00000  Uiso   1.00
H1368  H     0.97530   0.59676   0.85906   0.00000  Uiso   1.00
N1369  N     0.73383   0.44135   0.69179   0.00000  Uiso   1.00
H1370  H     0.76875   0.44598   0.68720   0.00000  Uiso   1.00
C1371  C     0.72178   0.39794   0.69548   0.00000  Uiso   1.00
H1372  H     0.70339   0.38759   0.67184   0.00000  Uiso   1.00
H1373  H     0.69943   0.39222   0.73108   0.00000  Uiso   1.00
H1374  H     0.75490   0.37829   0.68359   0.00000  Uiso   1.00
N1375  N     0.93691   0.56626   0.79505   0.00000  Uiso   1.00
H1376  H     0.95524   0.59357   0.78962   0.00000  Uiso   1.00
C1377  C     0.89866   0.56711   0.83910   0.00000  Uiso   1.00
H1378  H     0.90167   0.59404   0.86227   0.00000  Uiso   1.00
H1379  H     0.89862   0.53819   0.85599   0.00000  Uiso   1.00
H1380  H     0.86409   0.57226   0.83470   0.00000  Uiso   1.00
C1381  C     0.16658   0.91328   0.74971   0.00000  Uiso   1.00
C1382  C     0.16542   0.75390   0.75391   0.00000  Uiso   1.00
C1383  C     0.10735   0.82466   0.55060   0.00000  Uiso   1.00
C1384  C     0.20992   0.78143   0.95393   0.00000  Uiso   1.00
C1385  C     0.07569   0.83702   0.53011   0.00000  Uiso   1.00
C1386  C     0.24299   0.77540   0.97542   0.00000  Uiso   1.00
C1387  C     0.19880   0.97910   0.76647   0.00000  Uiso   1.00
C1388  C     0.12623   0.68885   0.75210   0.00000  Uiso   1.00
C1389  C     0.19851   0.68859   0.77040   0.00000  Uiso   1.00
C1390  C     0.12788   0.97967   0.74523   0.00000  Uiso   1.00
C1391  C     0.16342   0.71015   0.75985   0.00000  Uiso   1.00
C1392  C     0.16483   0.95780   0.75255   0.00000  Uiso   1.00
C1393  C     0.32012   0.80658   0.71994   0.00000  Uiso   1.00
C1394  C     0.01330   0.86132   0.77929   0.00000  Uiso   1.00
C1395  C     0.03368   0.80476   0.72199   0.00000  Uiso   1.00
C1396  C     0.29918   0.86257   0.77752   0.00000  Uiso   1.00
C1397  C     0.13712   0.83325   0.83738   0.00000  Uiso   1.00
C1398  C     0.19637   0.83210   0.66231   0.00000  Uiso   1.00
C1399  C     0.11980   0.83276   0.88709   0.00000  Uiso   1.00
C1400  C     0.21355   0.82368   0.61214   0.00000  Uiso   1.00
C1401  C     0.05887   0.84942   0.96125   0.00000  Uiso   1.00
C1402  C     0.26727   0.78581   0.54268   0.00000  Uiso   1.00
C1403  C     0.07320   0.84538   0.91370   0.00000  Uiso   1.00
C1404  C     0.25655   0.80178   0.58815   0.00000  Uiso   1.00
C1405  C     0.15133   0.82118   0.90806   0.00000  Uiso   1.00
C1406  C     0.18232   0.83122   0.58945   0.00000  Uiso   1.00
C1407  C     0.13672   0.82055   0.95551   0.00000  Uiso   1.00
C1408  C     0.19071   0.81354   0.54478   0.00000  Uiso   1.00
C1409  C     0.09034   0.83663   0.98259   0.00000  Uiso   1.00
C1410  C     0.23448   0.79203   0.52038   0.00000  Uiso   1.00
C1411  C     0.16835   0.80709   0.97681   0.00000  Uiso   1.00
C1412  C     0.15597   0.81716   0.52415   0.00000  Uiso   1.00
H1413  H     0.03877   0.84316   0.55133   0.00000  Uiso   1.00
H1414  H     0.27441   0.75611   0.95708   0.00000  Uiso   1.00
H1415  H     0.15051   0.85023   0.60755   0.00000  Uiso   1.00
H1416  H     0.18785   0.81380   0.88694   0.00000  Uiso   1.00
H1417  H     0.28114   0.79524   0.60491   0.00000  Uiso   1.00
H1418  H     0.04849   0.85361   0.89755   0.00000  Uiso   1.00
H1419  H     0.22574   0.96260   0.77453   0.00000  Uiso   1.00
H1420  H     0.09637   0.70537   0.74968   0.00000  Uiso   1.00
N1421  N     0.04759   0.83334   0.75001   0.00000  Uiso   1.00
N1422  N     0.28574   0.83332   0.74999   0.00000  Uiso   1.00
O1423  O     0.12846   0.89442   0.75001   0.00000  Uiso   1.00
O1424  O     0.20488   0.77225   0.75000   0.00000  Uiso   1.00
O1425  O     0.20490   0.89441   0.75000   0.00000  Uiso   1.00
O1426  O     0.12843   0.77226   0.75000   0.00000  Uiso   1.00
O1427  O     0.10661   0.83334   0.81613   0.00000  Uiso   1.00
O1428  O     0.22672   0.83333   0.68388   0.00000  Uiso   1.00
O1429  O     0.18305   0.83333   0.81612   0.00000  Uiso   1.00
O1430  O     0.15028   0.83334   0.68388   0.00000  Uiso   1.00
Zn1431 Zn    0.11562   0.83334   0.75000   0.00000  Uiso   1.00
Zn1432 Zn    0.21771   0.83333   0.75000   0.00000  Uiso   1.00
I1433  I     0.32423   0.87845   0.99721   0.00000  Uiso   1.00
I1434  I     0.33186   0.74990   0.51213   0.00000  Uiso   1.00
N1435  N     0.08839   0.80690   0.59302   0.00000  Uiso   1.00
H1436  H     0.05668   0.82025   0.61507   0.00000  Uiso   1.00
C1437  C     0.08974   0.76160   0.58817   0.00000  Uiso   1.00
H1438  H     0.11286   0.74968   0.60566   0.00000  Uiso   1.00
H1439  H     0.10429   0.74841   0.55177   0.00000  Uiso   1.00
H1440  H     0.05342   0.74986   0.60269   0.00000  Uiso   1.00
N1441  N     0.21492   0.75570   0.91319   0.00000  Uiso   1.00
H1442  H     0.24929   0.74586   0.89372   0.00000  Uiso   1.00
C1443  C     0.18016   0.72338   0.91778   0.00000  Uiso   1.00
H1444  H     0.19809   0.69217   0.91158   0.00000  Uiso   1.00
H1445  H     0.16272   0.72617   0.89212   0.00000  Uiso   1.00
H1446  H     0.15199   0.72559   0.95238   0.00000  Uiso   1.00
I1447  I     0.24937   0.71577   0.79690   0.00000  Uiso   1.00
I1448  I     0.07536   0.95447   0.71922   0.00000  Uiso   1.00
N1449  N     0.31465   0.79105   0.67819   0.00000  Uiso   1.00
H1450  H     0.31040   0.81381   0.65868   0.00000  Uiso   1.00
C1451  C     0.29069   0.75250   0.67499   0.00000  Uiso   1.00
H1452  H     0.25553   0.75857   0.67234   0.00000  Uiso   1.00
H1453  H     0.28714   0.73401   0.70404   0.00000  Uiso   1.00
H1454  H     0.31125   0.73351   0.64298   0.00000  Uiso   1.00
N1455  N     0.02645   0.89137   0.80887   0.00000  Uiso   1.00
H1456  H     0.06070   0.88864   0.80739   0.00000  Uiso   1.00
C1457  C     0.32859   0.90053   0.85593   0.00000  Uiso   1.00
H1458  H     0.01645   0.90695   0.87841   0.00000  Uiso   1.00
H1459  H     0.30504   0.87424   0.86864   0.00000  Uiso   1.00
H1460  H     0.30863   0.93009   0.85906   0.00000  Uiso   1.00
N1461  N     0.06717   0.77469   0.69179   0.00000  Uiso   1.00
H1462  H     0.10209   0.77932   0.68720   0.00000  Uiso   1.00
C1463  C     0.05512   0.73128   0.69548   0.00000  Uiso   1.00
H1464  H     0.03673   0.72093   0.67184   0.00000  Uiso   1.00
H1465  H     0.03277   0.72555   0.73108   0.00000  Uiso   1.00
H1466  H     0.08823   0.71162   0.68359   0.00000  Uiso   1.00
N1467  N     0.27024   0.89959   0.79505   0.00000  Uiso   1.00
H1468  H     0.28857   0.92691   0.78962   0.00000  Uiso   1.00
C1469  C     0.23200   0.90044   0.83910   0.00000  Uiso   1.00
H1470  H     0.23500   0.92737   0.86227   0.00000  Uiso   1.00
H1471  H     0.23196   0.87152   0.85599   0.00000  Uiso   1.00
H1472  H     0.19743   0.90560   0.83470   0.00000  Uiso   1.00
C1473  C     0.49991   0.91328   0.74971   0.00000  Uiso   1.00
C1474  C     0.49875   0.75390   0.75391   0.00000  Uiso   1.00
C1475  C     0.44068   0.82466   0.55060   0.00000  Uiso   1.00
C1476  C     0.54325   0.78143   0.95393   0.00000  Uiso   1.00
C1477  C     0.40902   0.83702   0.53011   0.00000  Uiso   1.00
C1478  C     0.57633   0.77540   0.97542   0.00000  Uiso   1.00
C1479  C     0.53213   0.97910   0.76647   0.00000  Uiso   1.00
C1480  C     0.45956   0.68885   0.75210   0.00000  Uiso   1.00
C1481  C     0.53184   0.68859   0.77040   0.00000  Uiso   1.00
C1482  C     0.46121   0.97967   0.74523   0.00000  Uiso   1.00
C1483  C     0.49676   0.71015   0.75985   0.00000  Uiso   1.00
C1484  C     0.49816   0.95780   0.75255   0.00000  Uiso   1.00
C1485  C     0.65345   0.80658   0.71994   0.00000  Uiso   1.00
C1486  C     0.34663   0.86132   0.77929   0.00000  Uiso   1.00
C1487  C     0.36701   0.80476   0.72199   0.00000  Uiso   1.00
C1488  C     0.63251   0.86257   0.77752   0.00000  Uiso   1.00
C1489  C     0.47045   0.83325   0.83738   0.00000  Uiso   1.00
C1490  C     0.52970   0.83210   0.66231   0.00000  Uiso   1.00
C1491  C     0.45313   0.83276   0.88709   0.00000  Uiso   1.00
C1492  C     0.54688   0.82368   0.61214   0.00000  Uiso   1.00
C1493  C     0.39220   0.84942   0.96125   0.00000  Uiso   1.00
C1494  C     0.60060   0.78581   0.54268   0.00000  Uiso   1.00
C1495  C     0.40653   0.84538   0.91370   0.00000  Uiso   1.00
C1496  C     0.58989   0.80178   0.58815   0.00000  Uiso   1.00
C1497  C     0.48466   0.82118   0.90806   0.00000  Uiso   1.00
C1498  C     0.51565   0.83122   0.58945   0.00000  Uiso   1.00
C1499  C     0.47006   0.82055   0.95551   0.00000  Uiso   1.00
C1500  C     0.52404   0.81354   0.54478   0.00000  Uiso   1.00
C1501  C     0.42367   0.83663   0.98259   0.00000  Uiso   1.00
C1502  C     0.56781   0.79203   0.52038   0.00000  Uiso   1.00
C1503  C     0.50168   0.80709   0.97681   0.00000  Uiso   1.00
C1504  C     0.48931   0.81716   0.52415   0.00000  Uiso   1.00
H1505  H     0.37211   0.84316   0.55133   0.00000  Uiso   1.00
H1506  H     0.60775   0.75611   0.95708   0.00000  Uiso   1.00
H1507  H     0.48385   0.85023   0.60755   0.00000  Uiso   1.00
H1508  H     0.52118   0.81380   0.88694   0.00000  Uiso   1.00
H1509  H     0.61448   0.79524   0.60491   0.00000  Uiso   1.00
H1510  H     0.38183   0.85361   0.89755   0.00000  Uiso   1.00
H1511  H     0.55908   0.96260   0.77453   0.00000  Uiso   1.00
H1512  H     0.42970   0.70537   0.74968   0.00000  Uiso   1.00
N1513  N     0.38093   0.83334   0.75001   0.00000  Uiso   1.00
N1514  N     0.61907   0.83332   0.74999   0.00000  Uiso   1.00
O1515  O     0.46179   0.89442   0.75001   0.00000  Uiso   1.00
O1516  O     0.53821   0.77225   0.75000   0.00000  Uiso   1.00
O1517  O     0.53823   0.89441   0.75000   0.00000  Uiso   1.00
O1518  O     0.46177   0.77226   0.75000   0.00000  Uiso   1.00
O1519  O     0.43994   0.83334   0.81613   0.00000  Uiso   1.00
O1520  O     0.56006   0.83333   0.68388   0.00000  Uiso   1.00
O1521  O     0.51639   0.83333   0.81612   0.00000  Uiso   1.00
O1522  O     0.48361   0.83334   0.68388   0.00000  Uiso   1.00
Zn1523 Zn    0.44896   0.83334   0.75000   0.00000  Uiso   1.00
Zn1524 Zn    0.55104   0.83333   0.75000   0.00000  Uiso   1.00
I1525  I     0.65757   0.87845   0.99721   0.00000  Uiso   1.00
I1526  I     0.66519   0.74990   0.51213   0.00000  Uiso   1.00
N1527  N     0.42173   0.80690   0.59302   0.00000  Uiso   1.00
H1528  H     0.39001   0.82025   0.61507   0.00000  Uiso   1.00
C1529  C     0.42308   0.76160   0.58817   0.00000  Uiso   1.00
H1530  H     0.44619   0.74968   0.60566   0.00000  Uiso   1.00
H1531  H     0.43762   0.74841   0.55177   0.00000  Uiso   1.00
H1532  H     0.38675   0.74986   0.60269   0.00000  Uiso   1.00
N1533  N     0.54825   0.75570   0.91319   0.00000  Uiso   1.00
H1534  H     0.58263   0.74586   0.89372   0.00000  Uiso   1.00
C1535  C     0.51349   0.72338   0.91778   0.00000  Uiso   1.00
H1536  H     0.53142   0.69217   0.91158   0.00000  Uiso   1.00
H1537  H     0.49605   0.72617   0.89212   0.00000  Uiso   1.00
H1538  H     0.48532   0.72559   0.95238   0.00000  Uiso   1.00
I1539  I     0.58270   0.71577   0.79690   0.00000  Uiso   1.00
I1540  I     0.40869   0.95447   0.71922   0.00000  Uiso   1.00
N1541  N     0.64798   0.79105   0.67819   0.00000  Uiso   1.00
H1542  H     0.64374   0.81381   0.65868   0.00000  Uiso   1.00
C1543  C     0.62403   0.75250   0.67499   0.00000  Uiso   1.00
H1544  H     0.58886   0.75857   0.67234   0.00000  Uiso   1.00
H1545  H     0.62047   0.73401   0.70404   0.00000  Uiso   1.00
H1546  H     0.64459   0.73351   0.64298   0.00000  Uiso   1.00
N1547  N     0.35979   0.89137   0.80887   0.00000  Uiso   1.00
H1548  H     0.39404   0.88864   0.80739   0.00000  Uiso   1.00
C1549  C     0.66192   0.90053   0.85593   0.00000  Uiso   1.00
H1550  H     0.34979   0.90695   0.87841   0.00000  Uiso   1.00
H1551  H     0.63837   0.87424   0.86864   0.00000  Uiso   1.00
H1552  H     0.64197   0.93009   0.85906   0.00000  Uiso   1.00
N1553  N     0.40050   0.77469   0.69179   0.00000  Uiso   1.00
H1554  H     0.43542   0.77932   0.68720   0.00000  Uiso   1.00
C1555  C     0.38845   0.73128   0.69548   0.00000  Uiso   1.00
H1556  H     0.37006   0.72093   0.67184   0.00000  Uiso   1.00
H1557  H     0.36610   0.72555   0.73108   0.00000  Uiso   1.00
H1558  H     0.42156   0.71162   0.68359   0.00000  Uiso   1.00
N1559  N     0.60357   0.89959   0.79505   0.00000  Uiso   1.00
H1560  H     0.62190   0.92691   0.78962   0.00000  Uiso   1.00
C1561  C     0.56533   0.90044   0.83910   0.00000  Uiso   1.00
H1562  H     0.56834   0.92737   0.86227   0.00000  Uiso   1.00
H1563  H     0.56529   0.87152   0.85599   0.00000  Uiso   1.00
H1564  H     0.53076   0.90560   0.83470   0.00000  Uiso   1.00
C1565  C     0.83325   0.91328   0.74971   0.00000  Uiso   1.00
C1566  C     0.83208   0.75390   0.75391   0.00000  Uiso   1.00
C1567  C     0.77401   0.82466   0.55060   0.00000  Uiso   1.00
C1568  C     0.87658   0.78143   0.95393   0.00000  Uiso   1.00
C1569  C     0.74236   0.83702   0.53011   0.00000  Uiso   1.00
C1570  C     0.90966   0.77540   0.97542   0.00000  Uiso   1.00
C1571  C     0.86547   0.97910   0.76647   0.00000  Uiso   1.00
C1572  C     0.79289   0.68885   0.75210   0.00000  Uiso   1.00
C1573  C     0.86517   0.68859   0.77040   0.00000  Uiso   1.00
C1574  C     0.79455   0.97967   0.74523   0.00000  Uiso   1.00
C1575  C     0.83009   0.71015   0.75985   0.00000  Uiso   1.00
C1576  C     0.83149   0.95780   0.75255   0.00000  Uiso   1.00
C1577  C     0.98678   0.80658   0.71994   0.00000  Uiso   1.00
C1578  C     0.67996   0.86132   0.77929   0.00000  Uiso   1.00
C1579  C     0.70035   0.80476   0.72199   0.00000  Uiso   1.00
C1580  C     0.96584   0.86257   0.77752   0.00000  Uiso   1.00
C1581  C     0.80378   0.83325   0.83738   0.00000  Uiso   1.00
C1582  C     0.86304   0.83210   0.66231   0.00000  Uiso   1.00
C1583  C     0.78647   0.83276   0.88709   0.00000  Uiso   1.00
C1584  C     0.88021   0.82368   0.61214   0.00000  Uiso   1.00
C1585  C     0.72553   0.84942   0.96125   0.00000  Uiso   1.00
C1586  C     0.93393   0.78581   0.54268   0.00000  Uiso   1.00
C1587  C     0.73987   0.84538   0.91370   0.00000  Uiso   1.00
C1588  C     0.92322   0.80178   0.58815   0.00000  Uiso   1.00
C1589  C     0.81799   0.82118   0.90806   0.00000  Uiso   1.00
C1590  C     0.84899   0.83122   0.58945   0.00000  Uiso   1.00
C1591  C     0.80339   0.82055   0.95551   0.00000  Uiso   1.00
C1592  C     0.85738   0.81354   0.54478   0.00000  Uiso   1.00
C1593  C     0.75701   0.83663   0.98259   0.00000  Uiso   1.00
C1594  C     0.90115   0.79203   0.52038   0.00000  Uiso   1.00
C1595  C     0.83502   0.80709   0.97681   0.00000  Uiso   1.00
C1596  C     0.82264   0.81716   0.52415   0.00000  Uiso   1.00
H1597  H     0.70544   0.84316   0.55133   0.00000  Uiso   1.00
H1598  H     0.94108   0.75611   0.95708   0.00000  Uiso   1.00
H1599  H     0.81718   0.85023   0.60755   0.00000  Uiso   1.00
H1600  H     0.85451   0.81380   0.88694   0.00000  Uiso   1.00
H1601  H     0.94781   0.79524   0.60491   0.00000  Uiso   1.00
H1602  H     0.71516   0.85361   0.89755   0.00000  Uiso   1.00
H1603  H     0.89241   0.96260   0.77453   0.00000  Uiso   1.00
H1604  H     0.76303   0.70537   0.74968   0.00000  Uiso   1.00
N1605  N     0.71426   0.83334   0.75001   0.00000  Uiso   1.00
N1606  N     0.95241   0.83332   0.74999   0.00000  Uiso   1.00
O1607  O     0.79512   0.89442   0.75001   0.00000  Uiso   1.00
O1608  O     0.87154   0.77225   0.75000   0.00000  Uiso   1.00
O1609  O     0.87157   0.89441   0.75000   0.00000  Uiso   1.00
O1610  O     0.79510   0.77226   0.75000   0.00000  Uiso   1.00
O1611  O     0.77328   0.83334   0.81613   0.00000  Uiso   1.00
O1612  O     0.89339   0.83333   0.68388   0.00000  Uiso   1.00
O1613  O     0.84972   0.83333   0.81612   0.00000  Uiso   1.00
O1614  O     0.81695   0.83334   0.68388   0.00000  Uiso   1.00
Zn1615 Zn    0.78229   0.83334   0.75000   0.00000  Uiso   1.00
Zn1616 Zn    0.88438   0.83333   0.75000   0.00000  Uiso   1.00
I1617  I     0.99090   0.87845   0.99721   0.00000  Uiso   1.00
I1618  I     0.99853   0.74990   0.51213   0.00000  Uiso   1.00
N1619  N     0.75506   0.80690   0.59302   0.00000  Uiso   1.00
H1620  H     0.72335   0.82025   0.61507   0.00000  Uiso   1.00
C1621  C     0.75641   0.76160   0.58817   0.00000  Uiso   1.00
H1622  H     0.77952   0.74968   0.60566   0.00000  Uiso   1.00
H1623  H     0.77096   0.74841   0.55177   0.00000  Uiso   1.00
H1624  H     0.72008   0.74986   0.60269   0.00000  Uiso   1.00
N1625  N     0.88159   0.75570   0.91319   0.00000  Uiso   1.00
H1626  H     0.91596   0.74586   0.89372   0.00000  Uiso   1.00
C1627  C     0.84682   0.72338   0.91778   0.00000  Uiso   1.00
H1628  H     0.86476   0.69217   0.91158   0.00000  Uiso   1.00
H1629  H     0.82939   0.72617   0.89212   0.00000  Uiso   1.00
H1630  H     0.81866   0.72559   0.95238   0.00000  Uiso   1.00
I1631  I     0.91603   0.71577   0.79690   0.00000  Uiso   1.00
I1632  I     0.74203   0.95447   0.71922   0.00000  Uiso   1.00
N1633  N     0.98131   0.79105   0.67819   0.00000  Uiso   1.00
H1634  H     0.97707   0.81381   0.65868   0.00000  Uiso   1.00
C1635  C     0.95736   0.75250   0.67499   0.00000  Uiso   1.00
H1636  H     0.92220   0.75857   0.67234   0.00000  Uiso   1.00
H1637  H     0.95381   0.73401   0.70404   0.00000  Uiso   1.00
H1638  H     0.97792   0.73351   0.64298   0.00000  Uiso   1.00
N1639  N     0.69312   0.89137   0.80887   0.00000  Uiso   1.00
H1640  H     0.72737   0.88864   0.80739   0.00000  Uiso   1.00
C1641  C     0.99525   0.90053   0.85593   0.00000  Uiso   1.00
H1642  H     0.68312   0.90695   0.87841   0.00000  Uiso   1.00
H1643  H     0.97170   0.87424   0.86864   0.00000  Uiso   1.00
H1644  H     0.97530   0.93009   0.85906   0.00000  Uiso   1.00
N1645  N     0.73383   0.77469   0.69179   0.00000  Uiso   1.00
H1646  H     0.76875   0.77932   0.68720   0.00000  Uiso   1.00
C1647  C     0.72178   0.73128   0.69548   0.00000  Uiso   1.00
H1648  H     0.70339   0.72093   0.67184   0.00000  Uiso   1.00
H1649  H     0.69943   0.72555   0.73108   0.00000  Uiso   1.00
H1650  H     0.75490   0.71162   0.68359   0.00000  Uiso   1.00
N1651  N     0.93691   0.89959   0.79505   0.00000  Uiso   1.00
H1652  H     0.95524   0.92691   0.78962   0.00000  Uiso   1.00
C1653  C     0.89866   0.90044   0.83910   0.00000  Uiso   1.00
H1654  H     0.90167   0.92737   0.86227   0.00000  Uiso   1.00
H1655  H     0.89862   0.87152   0.85599   0.00000  Uiso   1.00
H1656  H     0.86409   0.90560   0.83470   0.00000  Uiso   1.00
loop_
_geom_bond_atom_site_label_1
_geom_bond_atom_site_label_2
_geom_bond_distance
_geom_bond_site_symmetry_2
_ccdc_geom_bond_type
C1     O45     1.304   .     A
C1     O43     1.292   .     A
C1     C12     1.430   .     S
C2     O46     1.305   .     A
C2     O44     1.294   .     A
C2     C11     1.436   .     S
C3     N55     1.417   .     S
C3     C5      1.392   .     A
C3     C32     1.412   .     A
C4     C6      1.400   .     A
C4     N61     1.423   .     S
C4     C31     1.425   .     A
C5     H33     1.082   .     S
C5     C857    1.394   1_554 S
C6     H34     1.081   .     S
C6     C858    1.398   .     S
C7     C12     1.399   .     A
C7     H39     1.079   .     S
C7     C285    1.375   .     S
C8     C11     1.391   .     A
C8     H40     1.070   .     S
C8     C562    1.367   1_545 S
C9     I67     2.131   .     S
C9     C11     1.407   .     A
C9     C559    1.375   1_545 S
C10    C12     1.408   .     A
C10    I68     2.141   .     S
C10    C284    1.367   .     S
C13    N69     1.423   .     S
C13    N42     1.371   .     A
C13    C107    1.431   .     S
C14    N41     1.385   .     A
C14    N75     1.434   .     S
C14    C200    1.444   1_455 S
C15    N81     1.424   .     S
C15    N41     1.383   .     A
C15    C197    1.431   1_455 S
C16    N87     1.428   .     S
C16    N42     1.378   .     A
C16    C106    1.444   .     S
C17    O49     1.304   .     A
C17    O47     1.305   .     A
C17    C19     1.458   .     S
C18    O50     1.308   .     A
C18    O48     1.308   .     A
C18    C20     1.472   .     S
C19    C23     1.394   .     A
C19    C25     1.392   .     A
C20    C24     1.401   .     A
C20    C26     1.390   .     A
C21    C29     1.412   .     A
C21    C23     1.391   .     A
C21    I237    2.127   1_455 S
C22    I54     2.129   .     S
C22    C24     1.397   .     A
C22    C30     1.413   .     A
C23    H38     1.076   .     S
C24    H37     1.073   .     S
C25    C27     1.395   .     A
C25    H36     1.078   .     S
C26    C28     1.401   .     A
C26    H35     1.083   .     S
C27    C29     1.424   .     A
C27    C31     1.422   .     A
C28    C32     1.413   .     A
C28    C30     1.414   .     A
C29    C833    1.394   .     S
C30    C834    1.398   1_554 S
C31    C860    1.404   .     S
C32    C859    1.404   1_554 S
N41    Zn51    2.040   .     S
N42    Zn52    2.040   .     S
O43    Zn51    2.005   .     S
O44    Zn52    2.005   .     S
O45    Zn52    2.006   .     S
O46    Zn51    2.006   .     S
O47    Zn51    1.990   .     S
O48    Zn52    1.990   .     S
O49    Zn52    1.963   .     S
O50    Zn51    1.963   .     S
I53    C113    2.127   .     S
N55    H56     1.029   .     S
N55    C57     1.454   .     S
C57    H59     1.114   .     S
C57    H60     1.103   .     S
C57    H58     1.108   .     S
N61    C63     1.453   .     S
N61    H62     1.032   .     S
C63    H65     1.109   .     S
C63    H66     1.113   .     S
C63    H64     1.111   .     S
N69    C71     1.448   .     S
N69    H70     1.027   .     S
C71    H73     1.102   .     S
C71    H74     1.107   .     S
C71    H72     1.105   .     S
N75    H76     1.015   .     S
N75    C261    1.448   1_455 S
C77    H79     1.110   .     S
C77    H80     1.104   .     S
C77    N167    1.448   .     S
C77    H170    1.109   .     S
H78    C261    1.109   1_455 S
N81    H82     1.019   .     S
N81    C83     1.448   .     S
C83    H84     1.098   .     S
C83    H85     1.111   .     S
C83    H86     1.109   .     S
N87    H88     1.032   .     S
N87    C89     1.451   .     S
C89    H91     1.108   .     S
C89    H92     1.107   .     S
C89    H90     1.108   .     S
C93    O137    1.304   .     A
C93    O135    1.292   .     A
C93    C104    1.430   .     S
C94    O138    1.305   .     A
C94    O136    1.294   .     A
C94    C103    1.436   .     S
C95    N147    1.417   .     S
C95    C97     1.392   .     A
C95    C124    1.412   .     A
C96    C98     1.400   .     A
C96    N153    1.423   .     S
C96    C123    1.425   .     A
C97    H125    1.082   .     S
C97    C949    1.394   1_554 S
C98    H126    1.081   .     S
C98    C950    1.398   .     S
C99    C104    1.399   .     A
C99    H131    1.079   .     S
C99    C377    1.375   .     S
C100   C103    1.391   .     A
C100   H132    1.070   .     S
C100   C654    1.367   1_545 S
C101   I159    2.131   .     S
C101   C103    1.407   .     A
C101   C651    1.375   1_545 S
C102   C104    1.408   .     A
C102   I160    2.141   .     S
C102   C376    1.367   .     S
C105   N161    1.423   .     S
C105   N134    1.371   .     A
C105   C199    1.431   .     S
C106   N133    1.385   .     A
C106   N167    1.434   .     S
C107   N173    1.424   .     S
C107   N133    1.383   .     A
C108   N179    1.428   .     S
C108   N134    1.378   .     A
C108   C198    1.444   .     S
C109   O141    1.304   .     A
C109   O139    1.305   .     A
C109   C111    1.458   .     S
C110   O142    1.308   .     A
C110   O140    1.308   .     A
C110   C112    1.472   .     S
C111   C115    1.394   .     A
C111   C117    1.392   .     A
C112   C116    1.401   .     A
C112   C118    1.390   .     A
C113   C121    1.412   .     A
C113   C115    1.391   .     A
C114   I146    2.129   .     S
C114   C116    1.397   .     A
C114   C122    1.413   .     A
C115   H130    1.076   .     S
C116   H129    1.073   .     S
C117   C119    1.395   .     A
C117   H128    1.078   .     S
C118   C120    1.401   .     A
C118   H127    1.083   .     S
C119   C121    1.424   .     A
C119   C123    1.422   .     A
C120   C124    1.413   .     A
C120   C122    1.414   .     A
C121   C925    1.394   .     S
C122   C926    1.398   1_554 S
C123   C952    1.404   .     S
C124   C951    1.404   1_554 S
N133   Zn143   2.040   .     S
N134   Zn144   2.040   .     S
O135   Zn143   2.005   .     S
O136   Zn144   2.005   .     S
O137   Zn144   2.006   .     S
O138   Zn143   2.006   .     S
O139   Zn143   1.990   .     S
O140   Zn144   1.990   .     S
O141   Zn144   1.963   .     S
O142   Zn143   1.963   .     S
I145   C205    2.127   .     S
N147   H148    1.029   .     S
N147   C149    1.454   .     S
C149   H151    1.114   .     S
C149   H152    1.103   .     S
C149   H150    1.108   .     S
N153   C155    1.453   .     S
N153   H154    1.032   .     S
C155   H157    1.109   .     S
C155   H158    1.113   .     S
C155   H156    1.111   .     S
N161   C163    1.448   .     S
N161   H162    1.027   .     S
C163   H165    1.102   .     S
C163   H166    1.107   .     S
C163   H164    1.105   .     S
N167   H168    1.015   .     S
C169   H171    1.110   .     S
C169   H172    1.104   .     S
C169   N259    1.448   .     S
C169   H262    1.109   .     S
N173   H174    1.019   .     S
N173   C175    1.448   .     S
C175   H176    1.098   .     S
C175   H177    1.111   .     S
C175   H178    1.109   .     S
N179   H180    1.032   .     S
N179   C181    1.451   .     S
C181   H183    1.108   .     S
C181   H184    1.107   .     S
C181   H182    1.108   .     S
C185   O229    1.304   .     A
C185   O227    1.292   .     A
C185   C196    1.430   .     S
C186   O230    1.305   .     A
C186   O228    1.294   .     A
C186   C195    1.436   .     S
C187   N239    1.417   .     S
C187   C189    1.392   .     A
C187   C216    1.412   .     A
C188   C190    1.400   .     A
C188   N245    1.423   .     S
C188   C215    1.425   .     A
C189   H217    1.082   .     S
C189   C1041   1.394   1_554 S
C190   H218    1.081   .     S
C190   C1042   1.398   .     S
C191   C196    1.399   .     A
C191   H223    1.079   .     S
C191   C469    1.375   .     S
C192   C195    1.391   .     A
C192   H224    1.070   .     S
C192   C746    1.367   1_545 S
C193   I251    2.131   .     S
C193   C195    1.407   .     A
C193   C743    1.375   1_545 S
C194   C196    1.408   .     A
C194   I252    2.141   .     S
C194   C468    1.367   .     S
C197   N253    1.423   .     S
C197   N226    1.371   .     A
C197   C15     1.431   1_655 S
C198   N225    1.385   .     A
C198   N259    1.434   .     S
C199   N265    1.424   .     S
C199   N225    1.383   .     A
C200   N271    1.428   .     S
C200   N226    1.378   .     A
C200   C14     1.444   1_655 S
C201   O233    1.304   .     A
C201   O231    1.305   .     A
C201   C203    1.458   .     S
C202   O234    1.308   .     A
C202   O232    1.308   .     A
C202   C204    1.472   .     S
C203   C207    1.394   .     A
C203   C209    1.392   .     A
C204   C208    1.401   .     A
C204   C210    1.390   .     A
C205   C213    1.412   .     A
C205   C207    1.391   .     A
C206   I238    2.129   .     S
C206   C208    1.397   .     A
C206   C214    1.413   .     A
C207   H222    1.076   .     S
C208   H221    1.073   .     S
C209   C211    1.395   .     A
C209   H220    1.078   .     S
C210   C212    1.401   .     A
C210   H219    1.083   .     S
C211   C213    1.424   .     A
C211   C215    1.422   .     A
C212   C216    1.413   .     A
C212   C214    1.414   .     A
C213   C1017   1.394   .     S
C214   C1018   1.398   1_554 S
C215   C1044   1.404   .     S
C216   C1043   1.404   1_554 S
N225   Zn235   2.040   .     S
N226   Zn236   2.040   .     S
O227   Zn235   2.005   .     S
O228   Zn236   2.005   .     S
O229   Zn236   2.006   .     S
O230   Zn235   2.006   .     S
O231   Zn235   1.990   .     S
O232   Zn236   1.990   .     S
O233   Zn236   1.963   .     S
O234   Zn235   1.963   .     S
I237   C21     2.127   1_655 S
N239   H240    1.029   .     S
N239   C241    1.454   .     S
C241   H243    1.114   .     S
C241   H244    1.103   .     S
C241   H242    1.108   .     S
N245   C247    1.453   .     S
N245   H246    1.032   .     S
C247   H249    1.109   .     S
C247   H250    1.113   .     S
C247   H248    1.111   .     S
N253   C255    1.448   .     S
N253   H254    1.027   .     S
C255   H257    1.102   .     S
C255   H258    1.107   .     S
C255   H256    1.105   .     S
N259   H260    1.015   .     S
C261   H263    1.110   .     S
C261   H264    1.104   .     S
C261   N75     1.448   1_655 S
C261   H78     1.109   1_655 S
N265   H266    1.019   .     S
N265   C267    1.448   .     S
C267   H268    1.098   .     S
C267   H269    1.111   .     S
C267   H270    1.109   .     S
N271   H272    1.032   .     S
N271   C273    1.451   .     S
C273   H275    1.108   .     S
C273   H276    1.107   .     S
C273   H274    1.108   .     S
C277   O321    1.304   .     A
C277   O319    1.292   .     A
C277   C288    1.430   .     S
C278   O322    1.305   .     A
C278   O320    1.294   .     A
C278   C287    1.436   .     S
C279   N331    1.417   .     S
C279   C281    1.392   .     A
C279   C308    1.412   .     A
C280   C282    1.400   .     A
C280   N337    1.423   .     S
C280   C307    1.425   .     A
C281   H309    1.082   .     S
C281   C1133   1.394   1_554 S
C282   H310    1.081   .     S
C282   C1134   1.398   .     S
C283   C288    1.399   .     A
C283   H315    1.079   .     S
C283   C561    1.375   .     S
C284   C287    1.391   .     A
C284   H316    1.070   .     S
C285   I343    2.131   .     S
C285   C287    1.407   .     A
C286   C288    1.408   .     A
C286   I344    2.141   .     S
C286   C560    1.367   .     S
C289   N345    1.423   .     S
C289   N318    1.371   .     A
C289   C383    1.431   .     S
C290   N317    1.385   .     A
C290   N351    1.434   .     S
C290   C476    1.444   1_455 S
C291   N357    1.424   .     S
C291   N317    1.383   .     A
C291   C473    1.431   1_455 S
C292   N363    1.428   .     S
C292   N318    1.378   .     A
C292   C382    1.444   .     S
C293   O325    1.304   .     A
C293   O323    1.305   .     A
C293   C295    1.458   .     S
C294   O326    1.308   .     A
C294   O324    1.308   .     A
C294   C296    1.472   .     S
C295   C299    1.394   .     A
C295   C301    1.392   .     A
C296   C300    1.401   .     A
C296   C302    1.390   .     A
C297   C305    1.412   .     A
C297   C299    1.391   .     A
C297   I513    2.127   1_455 S
C298   I330    2.129   .     S
C298   C300    1.397   .     A
C298   C306    1.413   .     A
C299   H314    1.076   .     S
C300   H313    1.073   .     S
C301   C303    1.395   .     A
C301   H312    1.078   .     S
C302   C304    1.401   .     A
C302   H311    1.083   .     S
C303   C305    1.424   .     A
C303   C307    1.422   .     A
C304   C308    1.413   .     A
C304   C306    1.414   .     A
C305   C1109   1.394   .     S
C306   C1110   1.398   1_554 S
C307   C1136   1.404   .     S
C308   C1135   1.404   1_554 S
N317   Zn327   2.040   .     S
N318   Zn328   2.040   .     S
O319   Zn327   2.005   .     S
O320   Zn328   2.005   .     S
O321   Zn328   2.006   .     S
O322   Zn327   2.006   .     S
O323   Zn327   1.990   .     S
O324   Zn328   1.990   .     S
O325   Zn328   1.963   .     S
O326   Zn327   1.963   .     S
I329   C389    2.127   .     S
N331   H332    1.029   .     S
N331   C333    1.454   .     S
C333   H335    1.114   .     S
C333   H336    1.103   .     S
C333   H334    1.108   .     S
N337   C339    1.453   .     S
N337   H338    1.032   .     S
C339   H341    1.109   .     S
C339   H342    1.113   .     S
C339   H340    1.111   .     S
N345   C347    1.448   .     S
N345   H346    1.027   .     S
C347   H349    1.102   .     S
C347   H350    1.107   .     S
C347   H348    1.105   .     S
N351   H352    1.015   .     S
N351   C537    1.448   1_455 S
C353   H355    1.110   .     S
C353   H356    1.104   .     S
C353   N443    1.448   .     S
C353   H446    1.109   .     S
H354   C537    1.109   1_455 S
N357   H358    1.019   .     S
N357   C359    1.448   .     S
C359   H360    1.098   .     S
C359   H361    1.111   .     S
C359   H362    1.109   .     S
N363   H364    1.032   .     S
N363   C365    1.451   .     S
C365   H367    1.108   .     S
C365   H368    1.107   .     S
C365   H366    1.108   .     S
C369   O413    1.304   .     A
C369   O411    1.292   .     A
C369   C380    1.430   .     S
C370   O414    1.305   .     A
C370   O412    1.294   .     A
C370   C379    1.436   .     S
C371   N423    1.417   .     S
C371   C373    1.392   .     A
C371   C400    1.412   .     A
C372   C374    1.400   .     A
C372   N429    1.423   .     S
C372   C399    1.425   .     A
C373   H401    1.082   .     S
C373   C1225   1.394   1_554 S
C374   H402    1.081   .     S
C374   C1226   1.398   .     S
C375   C380    1.399   .     A
C375   H407    1.079   .     S
C375   C653    1.375   .     S
C376   C379    1.391   .     A
C376   H408    1.070   .     S
C377   I435    2.131   .     S
C377   C379    1.407   .     A
C378   C380    1.408   .     A
C378   I436    2.141   .     S
C378   C652    1.367   .     S
C381   N437    1.423   .     S
C381   N410    1.371   .     A
C381   C475    1.431   .     S
C382   N409    1.385   .     A
C382   N443    1.434   .     S
C383   N449    1.424   .     S
C383   N409    1.383   .     A
C384   N455    1.428   .     S
C384   N410    1.378   .     A
C384   C474    1.444   .     S
C385   O417    1.304   .     A
C385   O415    1.305   .     A
C385   C387    1.458   .     S
C386   O418    1.308   .     A
C386   O416    1.308   .     A
C386   C388    1.472   .     S
C387   C391    1.394   .     A
C387   C393    1.392   .     A
C388   C392    1.401   .     A
C388   C394    1.390   .     A
C389   C397    1.412   .     A
C389   C391    1.391   .     A
C390   I422    2.129   .     S
C390   C392    1.397   .     A
C390   C398    1.413   .     A
C391   H406    1.076   .     S
C392   H405    1.073   .     S
C393   C395    1.395   .     A
C393   H404    1.078   .     S
C394   C396    1.401   .     A
C394   H403    1.083   .     S
C395   C397    1.424   .     A
C395   C399    1.422   .     A
C396   C400    1.413   .     A
C396   C398    1.414   .     A
C397   C1201   1.394   .     S
C398   C1202   1.398   1_554 S
C399   C1228   1.404   .     S
C400   C1227   1.404   1_554 S
N409   Zn419   2.040   .     S
N410   Zn420   2.040   .     S
O411   Zn419   2.005   .     S
O412   Zn420   2.005   .     S
O413   Zn420   2.006   .     S
O414   Zn419   2.006   .     S
O415   Zn419   1.990   .     S
O416   Zn420   1.990   .     S
O417   Zn420   1.963   .     S
O418   Zn419   1.963   .     S
I421   C481    2.127   .     S
N423   H424    1.029   .     S
N423   C425    1.454   .     S
C425   H427    1.114   .     S
C425   H428    1.103   .     S
C425   H426    1.108   .     S
N429   C431    1.453   .     S
N429   H430    1.032   .     S
C431   H433    1.109   .     S
C431   H434    1.113   .     S
C431   H432    1.111   .     S
N437   C439    1.448   .     S
N437   H438    1.027   .     S
C439   H441    1.102   .     S
C439   H442    1.107   .     S
C439   H440    1.105   .     S
N443   H444    1.015   .     S
C445   H447    1.110   .     S
C445   H448    1.104   .     S
C445   N535    1.448   .     S
C445   H538    1.109   .     S
N449   H450    1.019   .     S
N449   C451    1.448   .     S
C451   H452    1.098   .     S
C451   H453    1.111   .     S
C451   H454    1.109   .     S
N455   H456    1.032   .     S
N455   C457    1.451   .     S
C457   H459    1.108   .     S
C457   H460    1.107   .     S
C457   H458    1.108   .     S
C461   O505    1.304   .     A
C461   O503    1.292   .     A
C461   C472    1.430   .     S
C462   O506    1.305   .     A
C462   O504    1.294   .     A
C462   C471    1.436   .     S
C463   N515    1.417   .     S
C463   C465    1.392   .     A
C463   C492    1.412   .     A
C464   C466    1.400   .     A
C464   N521    1.423   .     S
C464   C491    1.425   .     A
C465   H493    1.082   .     S
C465   C1317   1.394   1_554 S
C466   H494    1.081   .     S
C466   C1318   1.398   .     S
C467   C472    1.399   .     A
C467   H499    1.079   .     S
C467   C745    1.375   .     S
C468   C471    1.391   .     A
C468   H500    1.070   .     S
C469   I527    2.131   .     S
C469   C471    1.407   .     A
C470   C472    1.408   .     A
C470   I528    2.141   .     S
C470   C744    1.367   .     S
C473   N529    1.423   .     S
C473   N502    1.371   .     A
C473   C291    1.431   1_655 S
C474   N501    1.385   .     A
C474   N535    1.434   .     S
C475   N541    1.424   .     S
C475   N501    1.383   .     A
C476   N547    1.428   .     S
C476   N502    1.378   .     A
C476   C290    1.444   1_655 S
C477   O509    1.304   .     A
C477   O507    1.305   .     A
C477   C479    1.458   .     S
C478   O510    1.308   .     A
C478   O508    1.308   .     A
C478   C480    1.472   .     S
C479   C483    1.394   .     A
C479   C485    1.392   .     A
C480   C484    1.401   .     A
C480   C486    1.390   .     A
C481   C489    1.412   .     A
C481   C483    1.391   .     A
C482   I514    2.129   .     S
C482   C484    1.397   .     A
C482   C490    1.413   .     A
C483   H498    1.076   .     S
C484   H497    1.073   .     S
C485   C487    1.395   .     A
C485   H496    1.078   .     S
C486   C488    1.401   .     A
C486   H495    1.083   .     S
C487   C489    1.424   .     A
C487   C491    1.422   .     A
C488   C492    1.413   .     A
C488   C490    1.414   .     A
C489   C1293   1.394   .     S
C490   C1294   1.398   1_554 S
C491   C1320   1.404   .     S
C492   C1319   1.404   1_554 S
N501   Zn511   2.040   .     S
N502   Zn512   2.040   .     S
O503   Zn511   2.005   .     S
O504   Zn512   2.005   .     S
O505   Zn512   2.006   .     S
O506   Zn511   2.006   .     S
O507   Zn511   1.990   .     S
O508   Zn512   1.990   .     S
O509   Zn512   1.963   .     S
O510   Zn511   1.963   .     S
I513   C297    2.127   1_655 S
N515   H516    1.029   .     S
N515   C517    1.454   .     S
C517   H519    1.114   .     S
C517   H520    1.103   .     S
C517   H518    1.108   .     S
N521   C523    1.453   .     S
N521   H522    1.032   .     S
C523   H525    1.109   .     S
C523   H526    1.113   .     S
C523   H524    1.111   .     S
N529   C531    1.448   .     S
N529   H530    1.027   .     S
C531   H533    1.102   .     S
C531   H534    1.107   .     S
C531   H532    1.105   .     S
N535   H536    1.015   .     S
C537   H539    1.110   .     S
C537   H540    1.104   .     S
C537   N351    1.448   1_655 S
C537   H354    1.109   1_655 S
N541   H542    1.019   .     S
N541   C543    1.448   .     S
C543   H544    1.098   .     S
C543   H545    1.111   .     S
C543   H546    1.109   .     S
N547   H548    1.032   .     S
N547   C549    1.451   .     S
C549   H551    1.108   .     S
C549   H552    1.107   .     S
C549   H550    1.108   .     S
C553   O597    1.304   .     A
C553   O595    1.292   .     A
C553   C564    1.430   .     S
C554   O598    1.305   .     A
C554   O596    1.294   .     A
C554   C563    1.436   .     S
C555   N607    1.417   .     S
C555   C557    1.392   .     A
C555   C584    1.412   .     A
C556   C558    1.400   .     A
C556   N613    1.423   .     S
C556   C583    1.425   .     A
C557   H585    1.082   .     S
C557   C1409   1.394   1_554 S
C558   H586    1.081   .     S
C558   C1410   1.398   .     S
C559   C564    1.399   .     A
C559   H591    1.079   .     S
C559   C9      1.375   1_565 S
C560   C563    1.391   .     A
C560   H592    1.070   .     S
C561   I619    2.131   .     S
C561   C563    1.407   .     A
C562   C564    1.408   .     A
C562   I620    2.141   .     S
C562   C8      1.367   1_565 S
C565   N621    1.423   .     S
C565   N594    1.371   .     A
C565   C659    1.431   .     S
C566   N593    1.385   .     A
C566   N627    1.434   .     S
C566   C752    1.444   1_455 S
C567   N633    1.424   .     S
C567   N593    1.383   .     A
C567   C749    1.431   1_455 S
C568   N639    1.428   .     S
C568   N594    1.378   .     A
C568   C658    1.444   .     S
C569   O601    1.304   .     A
C569   O599    1.305   .     A
C569   C571    1.458   .     S
C570   O602    1.308   .     A
C570   O600    1.308   .     A
C570   C572    1.472   .     S
C571   C575    1.394   .     A
C571   C577    1.392   .     A
C572   C576    1.401   .     A
C572   C578    1.390   .     A
C573   C581    1.412   .     A
C573   C575    1.391   .     A
C573   I789    2.127   1_455 S
C574   I606    2.129   .     S
C574   C576    1.397   .     A
C574   C582    1.413   .     A
C575   H590    1.076   .     S
C576   H589    1.073   .     S
C577   C579    1.395   .     A
C577   H588    1.078   .     S
C578   C580    1.401   .     A
C578   H587    1.083   .     S
C579   C581    1.424   .     A
C579   C583    1.422   .     A
C580   C584    1.413   .     A
C580   C582    1.414   .     A
C581   C1385   1.394   .     S
C582   C1386   1.398   1_554 S
C583   C1412   1.404   .     S
C584   C1411   1.404   1_554 S
N593   Zn603   2.040   .     S
N594   Zn604   2.040   .     S
O595   Zn603   2.005   .     S
O596   Zn604   2.005   .     S
O597   Zn604   2.006   .     S
O598   Zn603   2.006   .     S
O599   Zn603   1.990   .     S
O600   Zn604   1.990   .     S
O601   Zn604   1.963   .     S
O602   Zn603   1.963   .     S
I605   C665    2.127   .     S
N607   H608    1.029   .     S
N607   C609    1.454   .     S
C609   H611    1.114   .     S
C609   H612    1.103   .     S
C609   H610    1.108   .     S
N613   C615    1.453   .     S
N613   H614    1.032   .     S
C615   H617    1.109   .     S
C615   H618    1.113   .     S
C615   H616    1.111   .     S
N621   C623    1.448   .     S
N621   H622    1.027   .     S
C623   H625    1.102   .     S
C623   H626    1.107   .     S
C623   H624    1.105   .     S
N627   H628    1.015   .     S
N627   C813    1.448   1_455 S
C629   H631    1.110   .     S
C629   H632    1.104   .     S
C629   N719    1.448   .     S
C629   H722    1.109   .     S
H630   C813    1.109   1_455 S
N633   H634    1.019   .     S
N633   C635    1.448   .     S
C635   H636    1.098   .     S
C635   H637    1.111   .     S
C635   H638    1.109   .     S
N639   H640    1.032   .     S
N639   C641    1.451   .     S
C641   H643    1.108   .     S
C641   H644    1.107   .     S
C641   H642    1.108   .     S
C645   O689    1.304   .     A
C645   O687    1.292   .     A
C645   C656    1.430   .     S
C646   O690    1.305   .     A
C646   O688    1.294   .     A
C646   C655    1.436   .     S
C647   N699    1.417   .     S
C647   C649    1.392   .     A
C647   C676    1.412   .     A
C648   C650    1.400   .     A
C648   N705    1.423   .     S
C648   C675    1.425   .     A
C649   H677    1.082   .     S
C649   C1501   1.394   1_554 S
C650   H678    1.081   .     S
C650   C1502   1.398   .     S
C651   C656    1.399   .     A
C651   H683    1.079   .     S
C651   C101    1.375   1_565 S
C652   C655    1.391   .     A
C652   H684    1.070   .     S
C653   I711    2.131   .     S
C653   C655    1.407   .     A
C654   C656    1.408   .     A
C654   I712    2.141   .     S
C654   C100    1.367   1_565 S
C657   N713    1.423   .     S
C657   N686    1.371   .     A
C657   C751    1.431   .     S
C658   N685    1.385   .     A
C658   N719    1.434   .     S
C659   N725    1.424   .     S
C659   N685    1.383   .     A
C660   N731    1.428   .     S
C660   N686    1.378   .     A
C660   C750    1.444   .     S
C661   O693    1.304   .     A
C661   O691    1.305   .     A
C661   C663    1.458   .     S
C662   O694    1.308   .     A
C662   O692    1.308   .     A
C662   C664    1.472   .     S
C663   C667    1.394   .     A
C663   C669    1.392   .     A
C664   C668    1.401   .     A
C664   C670    1.390   .     A
C665   C673    1.412   .     A
C665   C667    1.391   .     A
C666   I698    2.129   .     S
C666   C668    1.397   .     A
C666   C674    1.413   .     A
C667   H682    1.076   .     S
C668   H681    1.073   .     S
C669   C671    1.395   .     A
C669   H680    1.078   .     S
C670   C672    1.401   .     A
C670   H679    1.083   .     S
C671   C673    1.424   .     A
C671   C675    1.422   .     A
C672   C676    1.413   .     A
C672   C674    1.414   .     A
C673   C1477   1.394   .     S
C674   C1478   1.398   1_554 S
C675   C1504   1.404   .     S
C676   C1503   1.404   1_554 S
N685   Zn695   2.040   .     S
N686   Zn696   2.040   .     S
O687   Zn695   2.005   .     S
O688   Zn696   2.005   .     S
O689   Zn696   2.006   .     S
O690   Zn695   2.006   .     S
O691   Zn695   1.990   .     S
O692   Zn696   1.990   .     S
O693   Zn696   1.963   .     S
O694   Zn695   1.963   .     S
I697   C757    2.127   .     S
N699   H700    1.029   .     S
N699   C701    1.454   .     S
C701   H703    1.114   .     S
C701   H704    1.103   .     S
C701   H702    1.108   .     S
N705   C707    1.453   .     S
N705   H706    1.032   .     S
C707   H709    1.109   .     S
C707   H710    1.113   .     S
C707   H708    1.111   .     S
N713   C715    1.448   .     S
N713   H714    1.027   .     S
C715   H717    1.102   .     S
C715   H718    1.107   .     S
C715   H716    1.105   .     S
N719   H720    1.015   .     S
C721   H723    1.110   .     S
C721   H724    1.104   .     S
C721   N811    1.448   .     S
C721   H814    1.109   .     S
N725   H726    1.019   .     S
N725   C727    1.448   .     S
C727   H728    1.098   .     S
C727   H729    1.111   .     S
C727   H730    1.109   .     S
N731   H732    1.032   .     S
N731   C733    1.451   .     S
C733   H735    1.108   .     S
C733   H736    1.107   .     S
C733   H734    1.108   .     S
C737   O781    1.304   .     A
C737   O779    1.292   .     A
C737   C748    1.430   .     S
C738   O782    1.305   .     A
C738   O780    1.294   .     A
C738   C747    1.436   .     S
C739   N791    1.417   .     S
C739   C741    1.392   .     A
C739   C768    1.412   .     A
C740   C742    1.400   .     A
C740   N797    1.423   .     S
C740   C767    1.425   .     A
C741   H769    1.082   .     S
C741   C1593   1.394   1_554 S
C742   H770    1.081   .     S
C742   C1594   1.398   .     S
C743   C748    1.399   .     A
C743   H775    1.079   .     S
C743   C193    1.375   1_565 S
C744   C747    1.391   .     A
C744   H776    1.070   .     S
C745   I803    2.131   .     S
C745   C747    1.407   .     A
C746   C748    1.408   .     A
C746   I804    2.141   .     S
C746   C192    1.367   1_565 S
C749   N805    1.423   .     S
C749   N778    1.371   .     A
C749   C567    1.431   1_655 S
C750   N777    1.385   .     A
C750   N811    1.434   .     S
C751   N817    1.424   .     S
C751   N777    1.383   .     A
C752   N823    1.428   .     S
C752   N778    1.378   .     A
C752   C566    1.444   1_655 S
C753   O785    1.304   .     A
C753   O783    1.305   .     A
C753   C755    1.458   .     S
C754   O786    1.308   .     A
C754   O784    1.308   .     A
C754   C756    1.472   .     S
C755   C759    1.394   .     A
C755   C761    1.392   .     A
C756   C760    1.401   .     A
C756   C762    1.390   .     A
C757   C765    1.412   .     A
C757   C759    1.391   .     A
C758   I790    2.129   .     S
C758   C760    1.397   .     A
C758   C766    1.413   .     A
C759   H774    1.076   .     S
C760   H773    1.073   .     S
C761   C763    1.395   .     A
C761   H772    1.078   .     S
C762   C764    1.401   .     A
C762   H771    1.083   .     S
C763   C765    1.424   .     A
C763   C767    1.422   .     A
C764   C768    1.413   .     A
C764   C766    1.414   .     A
C765   C1569   1.394   .     S
C766   C1570   1.398   1_554 S
C767   C1596   1.404   .     S
C768   C1595   1.404   1_554 S
N777   Zn787   2.040   .     S
N778   Zn788   2.040   .     S
O779   Zn787   2.005   .     S
O780   Zn788   2.005   .     S
O781   Zn788   2.006   .     S
O782   Zn787   2.006   .     S
O783   Zn787   1.990   .     S
O784   Zn788   1.990   .     S
O785   Zn788   1.963   .     S
O786   Zn787   1.963   .     S
I789   C573    2.127   1_655 S
N791   H792    1.029   .     S
N791   C793    1.454   .     S
C793   H795    1.114   .     S
C793   H796    1.103   .     S
C793   H794    1.108   .     S
N797   C799    1.453   .     S
N797   H798    1.032   .     S
C799   H801    1.109   .     S
C799   H802    1.113   .     S
C799   H800    1.111   .     S
N805   C807    1.448   .     S
N805   H806    1.027   .     S
C807   H809    1.102   .     S
C807   H810    1.107   .     S
C807   H808    1.105   .     S
N811   H812    1.015   .     S
C813   H815    1.110   .     S
C813   H816    1.104   .     S
C813   N627    1.448   1_655 S
C813   H630    1.109   1_655 S
N817   H818    1.019   .     S
N817   C819    1.448   .     S
C819   H820    1.098   .     S
C819   H821    1.111   .     S
C819   H822    1.109   .     S
N823   H824    1.032   .     S
N823   C825    1.451   .     S
C825   H827    1.108   .     S
C825   H828    1.107   .     S
C825   H826    1.108   .     S
C829   O873    1.304   .     A
C829   O871    1.292   .     A
C829   C840    1.430   .     S
C830   O874    1.305   .     A
C830   O872    1.294   .     A
C830   C839    1.436   .     S
C831   N883    1.417   .     S
C831   C833    1.392   .     A
C831   C860    1.412   .     A
C832   C834    1.400   .     A
C832   N889    1.423   .     S
C832   C859    1.425   .     A
C833   H861    1.082   .     S
C834   H862    1.081   .     S
C834   C30     1.398   1_556 S
C835   C840    1.399   .     A
C835   H867    1.079   .     S
C835   C1113   1.375   .     S
C836   C839    1.391   .     A
C836   H868    1.070   .     S
C836   C1390   1.367   1_545 S
C837   I895    2.131   .     S
C837   C839    1.407   .     A
C837   C1387   1.375   1_545 S
C838   C840    1.408   .     A
C838   I896    2.141   .     S
C838   C1112   1.367   .     S
C841   N897    1.423   .     S
C841   N870    1.371   .     A
C841   C935    1.431   .     S
C842   N869    1.385   .     A
C842   N903    1.434   .     S
C842   C1028   1.444   1_455 S
C843   N909    1.424   .     S
C843   N869    1.383   .     A
C843   C1025   1.431   1_455 S
C844   N915    1.428   .     S
C844   N870    1.378   .     A
C844   C934    1.444   .     S
C845   O877    1.304   .     A
C845   O875    1.305   .     A
C845   C847    1.458   .     S
C846   O878    1.308   .     A
C846   O876    1.308   .     A
C846   C848    1.472   .     S
C847   C851    1.394   .     A
C847   C853    1.392   .     A
C848   C852    1.401   .     A
C848   C854    1.390   .     A
C849   C857    1.412   .     A
C849   C851    1.391   .     A
C849   I1065   2.127   1_455 S
C850   I882    2.129   .     S
C850   C852    1.397   .     A
C850   C858    1.413   .     A
C851   H866    1.076   .     S
C852   H865    1.073   .     S
C853   C855    1.395   .     A
C853   H864    1.078   .     S
C854   C856    1.401   .     A
C854   H863    1.083   .     S
C855   C857    1.424   .     A
C855   C859    1.422   .     A
C856   C860    1.413   .     A
C856   C858    1.414   .     A
C857   C5      1.394   1_556 S
C859   C32     1.404   1_556 S
N869   Zn879   2.040   .     S
N870   Zn880   2.040   .     S
O871   Zn879   2.005   .     S
O872   Zn880   2.005   .     S
O873   Zn880   2.006   .     S
O874   Zn879   2.006   .     S
O875   Zn879   1.990   .     S
O876   Zn880   1.990   .     S
O877   Zn880   1.963   .     S
O878   Zn879   1.963   .     S
I881   C941    2.127   .     S
N883   H884    1.029   .     S
N883   C885    1.454   .     S
C885   H887    1.114   .     S
C885   H888    1.103   .     S
C885   H886    1.108   .     S
N889   C891    1.453   .     S
N889   H890    1.032   .     S
C891   H893    1.109   .     S
C891   H894    1.113   .     S
C891   H892    1.111   .     S
N897   C899    1.448   .     S
N897   H898    1.027   .     S
C899   H901    1.102   .     S
C899   H902    1.107   .     S
C899   H900    1.105   .     S
N903   H904    1.015   .     S
N903   C1089   1.448   1_455 S
C905   H907    1.110   .     S
C905   H908    1.104   .     S
C905   N995    1.448   .     S
C905   H998    1.109   .     S
H906   C1089   1.109   1_455 S
N909   H910    1.019   .     S
N909   C911    1.448   .     S
C911   H912    1.098   .     S
C911   H913    1.111   .     S
C911   H914    1.109   .     S
N915   H916    1.032   .     S
N915   C917    1.451   .     S
C917   H919    1.108   .     S
C917   H920    1.107   .     S
C917   H918    1.108   .     S
C921   O965    1.304   .     A
C921   O963    1.292   .     A
C921   C932    1.430   .     S
C922   O966    1.305   .     A
C922   O964    1.294   .     A
C922   C931    1.436   .     S
C923   N975    1.417   .     S
C923   C925    1.392   .     A
C923   C952    1.412   .     A
C924   C926    1.400   .     A
C924   N981    1.423   .     S
C924   C951    1.425   .     A
C925   H953    1.082   .     S
C926   H954    1.081   .     S
C926   C122    1.398   1_556 S
C927   C932    1.399   .     A
C927   H959    1.079   .     S
C927   C1205   1.375   .     S
C928   C931    1.391   .     A
C928   H960    1.070   .     S
C928   C1482   1.367   1_545 S
C929   I987    2.131   .     S
C929   C931    1.407   .     A
C929   C1479   1.375   1_545 S
C930   C932    1.408   .     A
C930   I988    2.141   .     S
C930   C1204   1.367   .     S
C933   N989    1.423   .     S
C933   N962    1.371   .     A
C933   C1027   1.431   .     S
C934   N961    1.385   .     A
C934   N995    1.434   .     S
C935   N1001   1.424   .     S
C935   N961    1.383   .     A
C936   N1007   1.428   .     S
C936   N962    1.378   .     A
C936   C1026   1.444   .     S
C937   O969    1.304   .     A
C937   O967    1.305   .     A
C937   C939    1.458   .     S
C938   O970    1.308   .     A
C938   O968    1.308   .     A
C938   C940    1.472   .     S
C939   C943    1.394   .     A
C939   C945    1.392   .     A
C940   C944    1.401   .     A
C940   C946    1.390   .     A
C941   C949    1.412   .     A
C941   C943    1.391   .     A
C942   I974    2.129   .     S
C942   C944    1.397   .     A
C942   C950    1.413   .     A
C943   H958    1.076   .     S
C944   H957    1.073   .     S
C945   C947    1.395   .     A
C945   H956    1.078   .     S
C946   C948    1.401   .     A
C946   H955    1.083   .     S
C947   C949    1.424   .     A
C947   C951    1.422   .     A
C948   C952    1.413   .     A
C948   C950    1.414   .     A
C949   C97     1.394   1_556 S
C951   C124    1.404   1_556 S
N961   Zn971   2.040   .     S
N962   Zn972   2.040   .     S
O963   Zn971   2.005   .     S
O964   Zn972   2.005   .     S
O965   Zn972   2.006   .     S
O966   Zn971   2.006   .     S
O967   Zn971   1.990   .     S
O968   Zn972   1.990   .     S
O969   Zn972   1.963   .     S
O970   Zn971   1.963   .     S
I973   C1033   2.127   .     S
N975   H976    1.029   .     S
N975   C977    1.454   .     S
C977   H979    1.114   .     S
C977   H980    1.103   .     S
C977   H978    1.108   .     S
N981   C983    1.453   .     S
N981   H982    1.032   .     S
C983   H985    1.109   .     S
C983   H986    1.113   .     S
C983   H984    1.111   .     S
N989   C991    1.448   .     S
N989   H990    1.027   .     S
C991   H993    1.102   .     S
C991   H994    1.107   .     S
C991   H992    1.105   .     S
N995   H996    1.015   .     S
C997   H999    1.110   .     S
C997   H1000   1.104   .     S
C997   N1087   1.448   .     S
C997   H1090   1.109   .     S
N1001  H1002   1.019   .     S
N1001  C1003   1.448   .     S
C1003  H1004   1.098   .     S
C1003  H1005   1.111   .     S
C1003  H1006   1.109   .     S
N1007  H1008   1.032   .     S
N1007  C1009   1.451   .     S
C1009  H1011   1.108   .     S
C1009  H1012   1.107   .     S
C1009  H1010   1.108   .     S
C1013  O1057   1.304   .     A
C1013  O1055   1.292   .     A
C1013  C1024   1.430   .     S
C1014  O1058   1.305   .     A
C1014  O1056   1.294   .     A
C1014  C1023   1.436   .     S
C1015  N1067   1.417   .     S
C1015  C1017   1.392   .     A
C1015  C1044   1.412   .     A
C1016  C1018   1.400   .     A
C1016  N1073   1.423   .     S
C1016  C1043   1.425   .     A
C1017  H1045   1.082   .     S
C1018  H1046   1.081   .     S
C1018  C214    1.398   1_556 S
C1019  C1024   1.399   .     A
C1019  H1051   1.079   .     S
C1019  C1297   1.375   .     S
C1020  C1023   1.391   .     A
C1020  H1052   1.070   .     S
C1020  C1574   1.367   1_545 S
C1021  I1079   2.131   .     S
C1021  C1023   1.407   .     A
C1021  C1571   1.375   1_545 S
C1022  C1024   1.408   .     A
C1022  I1080   2.141   .     S
C1022  C1296   1.367   .     S
C1025  N1081   1.423   .     S
C1025  N1054   1.371   .     A
C1025  C843    1.431   1_655 S
C1026  N1053   1.385   .     A
C1026  N1087   1.434   .     S
C1027  N1093   1.424   .     S
C1027  N1053   1.383   .     A
C1028  N1099   1.428   .     S
C1028  N1054   1.378   .     A
C1028  C842    1.444   1_655 S
C1029  O1061   1.304   .     A
C1029  O1059   1.305   .     A
C1029  C1031   1.458   .     S
C1030  O1062   1.308   .     A
C1030  O1060   1.308   .     A
C1030  C1032   1.472   .     S
C1031  C1035   1.394   .     A
C1031  C1037   1.392   .     A
C1032  C1036   1.401   .     A
C1032  C1038   1.390   .     A
C1033  C1041   1.412   .     A
C1033  C1035   1.391   .     A
C1034  I1066   2.129   .     S
C1034  C1036   1.397   .     A
C1034  C1042   1.413   .     A
C1035  H1050   1.076   .     S
C1036  H1049   1.073   .     S
C1037  C1039   1.395   .     A
C1037  H1048   1.078   .     S
C1038  C1040   1.401   .     A
C1038  H1047   1.083   .     S
C1039  C1041   1.424   .     A
C1039  C1043   1.422   .     A
C1040  C1044   1.413   .     A
C1040  C1042   1.414   .     A
C1041  C189    1.394   1_556 S
C1043  C216    1.404   1_556 S
N1053  Zn1063  2.040   .     S
N1054  Zn1064  2.040   .     S
O1055  Zn1063  2.005   .     S
O1056  Zn1064  2.005   .     S
O1057  Zn1064  2.006   .     S
O1058  Zn1063  2.006   .     S
O1059  Zn1063  1.990   .     S
O1060  Zn1064  1.990   .     S
O1061  Zn1064  1.963   .     S
O1062  Zn1063  1.963   .     S
I1065  C849    2.127   1_655 S
N1067  H1068   1.029   .     S
N1067  C1069   1.454   .     S
C1069  H1071   1.114   .     S
C1069  H1072   1.103   .     S
C1069  H1070   1.108   .     S
N1073  C1075   1.453   .     S
N1073  H1074   1.032   .     S
C1075  H1077   1.109   .     S
C1075  H1078   1.113   .     S
C1075  H1076   1.111   .     S
N1081  C1083   1.448   .     S
N1081  H1082   1.027   .     S
C1083  H1085   1.102   .     S
C1083  H1086   1.107   .     S
C1083  H1084   1.105   .     S
N1087  H1088   1.015   .     S
C1089  H1091   1.110   .     S
C1089  H1092   1.104   .     S
C1089  N903    1.448   1_655 S
C1089  H906    1.109   1_655 S
N1093  H1094   1.019   .     S
N1093  C1095   1.448   .     S
C1095  H1096   1.098   .     S
C1095  H1097   1.111   .     S
C1095  H1098   1.109   .     S
N1099  H1100   1.032   .     S
N1099  C1101   1.451   .     S
C1101  H1103   1.108   .     S
C1101  H1104   1.107   .     S
C1101  H1102   1.108   .     S
C1105  O1149   1.304   .     A
C1105  O1147   1.292   .     A
C1105  C1116   1.430   .     S
C1106  O1150   1.305   .     A
C1106  O1148   1.294   .     A
C1106  C1115   1.436   .     S
C1107  N1159   1.417   .     S
C1107  C1109   1.392   .     A
C1107  C1136   1.412   .     A
C1108  C1110   1.400   .     A
C1108  N1165   1.423   .     S
C1108  C1135   1.425   .     A
C1109  H1137   1.082   .     S
C1110  H1138   1.081   .     S
C1110  C306    1.398   1_556 S
C1111  C1116   1.399   .     A
C1111  H1143   1.079   .     S
C1111  C1389   1.375   .     S
C1112  C1115   1.391   .     A
C1112  H1144   1.070   .     S
C1113  I1171   2.131   .     S
C1113  C1115   1.407   .     A
C1114  C1116   1.408   .     A
C1114  I1172   2.141   .     S
C1114  C1388   1.367   .     S
C1117  N1173   1.423   .     S
C1117  N1146   1.371   .     A
C1117  C1211   1.431   .     S
C1118  N1145   1.385   .     A
C1118  N1179   1.434   .     S
C1118  C1304   1.444   1_455 S
C1119  N1185   1.424   .     S
C1119  N1145   1.383   .     A
C1119  C1301   1.431   1_455 S
C1120  N1191   1.428   .     S
C1120  N1146   1.378   .     A
C1120  C1210   1.444   .     S
C1121  O1153   1.304   .     A
C1121  O1151   1.305   .     A
C1121  C1123   1.458   .     S
C1122  O1154   1.308   .     A
C1122  O1152   1.308   .     A
C1122  C1124   1.472   .     S
C1123  C1127   1.394   .     A
C1123  C1129   1.392   .     A
C1124  C1128   1.401   .     A
C1124  C1130   1.390   .     A
C1125  C1133   1.412   .     A
C1125  C1127   1.391   .     A
C1125  I1341   2.127   1_455 S
C1126  I1158   2.129   .     S
C1126  C1128   1.397   .     A
C1126  C1134   1.413   .     A
C1127  H1142   1.076   .     S
C1128  H1141   1.073   .     S
C1129  C1131   1.395   .     A
C1129  H1140   1.078   .     S
C1130  C1132   1.401   .     A
C1130  H1139   1.083   .     S
C1131  C1133   1.424   .     A
C1131  C1135   1.422   .     A
C1132  C1136   1.413   .     A
C1132  C1134   1.414   .     A
C1133  C281    1.394   1_556 S
C1135  C308    1.404   1_556 S
N1145  Zn1155  2.040   .     S
N1146  Zn1156  2.040   .     S
O1147  Zn1155  2.005   .     S
O1148  Zn1156  2.005   .     S
O1149  Zn1156  2.006   .     S
O1150  Zn1155  2.006   .     S
O1151  Zn1155  1.990   .     S
O1152  Zn1156  1.990   .     S
O1153  Zn1156  1.963   .     S
O1154  Zn1155  1.963   .     S
I1157  C1217   2.127   .     S
N1159  H1160   1.029   .     S
N1159  C1161   1.454   .     S
C1161  H1163   1.114   .     S
C1161  H1164   1.103   .     S
C1161  H1162   1.108   .     S
N1165  C1167   1.453   .     S
N1165  H1166   1.032   .     S
C1167  H1169   1.109   .     S
C1167  H1170   1.113   .     S
C1167  H1168   1.111   .     S
N1173  C1175   1.448   .     S
N1173  H1174   1.027   .     S
C1175  H1177   1.102   .     S
C1175  H1178   1.107   .     S
C1175  H1176   1.105   .     S
N1179  H1180   1.015   .     S
N1179  C1365   1.448   1_455 S
C1181  H1183   1.110   .     S
C1181  H1184   1.104   .     S
C1181  N1271   1.448   .     S
C1181  H1274   1.109   .     S
H1182  C1365   1.109   1_455 S
N1185  H1186   1.019   .     S
N1185  C1187   1.448   .     S
C1187  H1188   1.098   .     S
C1187  H1189   1.111   .     S
C1187  H1190   1.109   .     S
N1191  H1192   1.032   .     S
N1191  C1193   1.451   .     S
C1193  H1195   1.108   .     S
C1193  H1196   1.107   .     S
C1193  H1194   1.108   .     S
C1197  O1241   1.304   .     A
C1197  O1239   1.292   .     A
C1197  C1208   1.430   .     S
C1198  O1242   1.305   .     A
C1198  O1240   1.294   .     A
C1198  C1207   1.436   .     S
C1199  N1251   1.417   .     S
C1199  C1201   1.392   .     A
C1199  C1228   1.412   .     A
C1200  C1202   1.400   .     A
C1200  N1257   1.423   .     S
C1200  C1227   1.425   .     A
C1201  H1229   1.082   .     S
C1202  H1230   1.081   .     S
C1202  C398    1.398   1_556 S
C1203  C1208   1.399   .     A
C1203  H1235   1.079   .     S
C1203  C1481   1.375   .     S
C1204  C1207   1.391   .     A
C1204  H1236   1.070   .     S
C1205  I1263   2.131   .     S
C1205  C1207   1.407   .     A
C1206  C1208   1.408   .     A
C1206  I1264   2.141   .     S
C1206  C1480   1.367   .     S
C1209  N1265   1.423   .     S
C1209  N1238   1.371   .     A
C1209  C1303   1.431   .     S
C1210  N1237   1.385   .     A
C1210  N1271   1.434   .     S
C1211  N1277   1.424   .     S
C1211  N1237   1.383   .     A
C1212  N1283   1.428   .     S
C1212  N1238   1.378   .     A
C1212  C1302   1.444   .     S
C1213  O1245   1.304   .     A
C1213  O1243   1.305   .     A
C1213  C1215   1.458   .     S
C1214  O1246   1.308   .     A
C1214  O1244   1.308   .     A
C1214  C1216   1.472   .     S
C1215  C1219   1.394   .     A
C1215  C1221   1.392   .     A
C1216  C1220   1.401   .     A
C1216  C1222   1.390   .     A
C1217  C1225   1.412   .     A
C1217  C1219   1.391   .     A
C1218  I1250   2.129   .     S
C1218  C1220   1.397   .     A
C1218  C1226   1.413   .     A
C1219  H1234   1.076   .     S
C1220  H1233   1.073   .     S
C1221  C1223   1.395   .     A
C1221  H1232   1.078   .     S
C1222  C1224   1.401   .     A
C1222  H1231   1.083   .     S
C1223  C1225   1.424   .     A
C1223  C1227   1.422   .     A
C1224  C1228   1.413   .     A
C1224  C1226   1.414   .     A
C1225  C373    1.394   1_556 S
C1227  C400    1.404   1_556 S
N1237  Zn1247  2.040   .     S
N1238  Zn1248  2.040   .     S
O1239  Zn1247  2.005   .     S
O1240  Zn1248  2.005   .     S
O1241  Zn1248  2.006   .     S
O1242  Zn1247  2.006   .     S
O1243  Zn1247  1.990   .     S
O1244  Zn1248  1.990   .     S
O1245  Zn1248  1.963   .     S
O1246  Zn1247  1.963   .     S
I1249  C1309   2.127   .     S
N1251  H1252   1.029   .     S
N1251  C1253   1.454   .     S
C1253  H1255   1.114   .     S
C1253  H1256   1.103   .     S
C1253  H1254   1.108   .     S
N1257  C1259   1.453   .     S
N1257  H1258   1.032   .     S
C1259  H1261   1.109   .     S
C1259  H1262   1.113   .     S
C1259  H1260   1.111   .     S
N1265  C1267   1.448   .     S
N1265  H1266   1.027   .     S
C1267  H1269   1.102   .     S
C1267  H1270   1.107   .     S
C1267  H1268   1.105   .     S
N1271  H1272   1.015   .     S
C1273  H1275   1.110   .     S
C1273  H1276   1.104   .     S
C1273  N1363   1.448   .     S
C1273  H1366   1.109   .     S
N1277  H1278   1.019   .     S
N1277  C1279   1.448   .     S
C1279  H1280   1.098   .     S
C1279  H1281   1.111   .     S
C1279  H1282   1.109   .     S
N1283  H1284   1.032   .     S
N1283  C1285   1.451   .     S
C1285  H1287   1.108   .     S
C1285  H1288   1.107   .     S
C1285  H1286   1.108   .     S
C1289  O1333   1.304   .     A
C1289  O1331   1.292   .     A
C1289  C1300   1.430   .     S
C1290  O1334   1.305   .     A
C1290  O1332   1.294   .     A
C1290  C1299   1.436   .     S
C1291  N1343   1.417   .     S
C1291  C1293   1.392   .     A
C1291  C1320   1.412   .     A
C1292  C1294   1.400   .     A
C1292  N1349   1.423   .     S
C1292  C1319   1.425   .     A
C1293  H1321   1.082   .     S
C1294  H1322   1.081   .     S
C1294  C490    1.398   1_556 S
C1295  C1300   1.399   .     A
C1295  H1327   1.079   .     S
C1295  C1573   1.375   .     S
C1296  C1299   1.391   .     A
C1296  H1328   1.070   .     S
C1297  I1355   2.131   .     S
C1297  C1299   1.407   .     A
C1298  C1300   1.408   .     A
C1298  I1356   2.141   .     S
C1298  C1572   1.367   .     S
C1301  N1357   1.423   .     S
C1301  N1330   1.371   .     A
C1301  C1119   1.431   1_655 S
C1302  N1329   1.385   .     A
C1302  N1363   1.434   .     S
C1303  N1369   1.424   .     S
C1303  N1329   1.383   .     A
C1304  N1375   1.428   .     S
C1304  N1330   1.378   .     A
C1304  C1118   1.444   1_655 S
C1305  O1337   1.304   .     A
C1305  O1335   1.305   .     A
C1305  C1307   1.458   .     S
C1306  O1338   1.308   .     A
C1306  O1336   1.308   .     A
C1306  C1308   1.472   .     S
C1307  C1311   1.394   .     A
C1307  C1313   1.392   .     A
C1308  C1312   1.401   .     A
C1308  C1314   1.390   .     A
C1309  C1317   1.412   .     A
C1309  C1311   1.391   .     A
C1310  I1342   2.129   .     S
C1310  C1312   1.397   .     A
C1310  C1318   1.413   .     A
C1311  H1326   1.076   .     S
C1312  H1325   1.073   .     S
C1313  C1315   1.395   .     A
C1313  H1324   1.078   .     S
C1314  C1316   1.401   .     A
C1314  H1323   1.083   .     S
C1315  C1317   1.424   .     A
C1315  C1319   1.422   .     A
C1316  C1320   1.413   .     A
C1316  C1318   1.414   .     A
C1317  C465    1.394   1_556 S
C1319  C492    1.404   1_556 S
N1329  Zn1339  2.040   .     S
N1330  Zn1340  2.040   .     S
O1331  Zn1339  2.005   .     S
O1332  Zn1340  2.005   .     S
O1333  Zn1340  2.006   .     S
O1334  Zn1339  2.006   .     S
O1335  Zn1339  1.990   .     S
O1336  Zn1340  1.990   .     S
O1337  Zn1340  1.963   .     S
O1338  Zn1339  1.963   .     S
I1341  C1125   2.127   1_655 S
N1343  H1344   1.029   .     S
N1343  C1345   1.454   .     S
C1345  H1347   1.114   .     S
C1345  H1348   1.103   .     S
C1345  H1346   1.108   .     S
N1349  C1351   1.453   .     S
N1349  H1350   1.032   .     S
C1351  H1353   1.109   .     S
C1351  H1354   1.113   .     S
C1351  H1352   1.111   .     S
N1357  C1359   1.448   .     S
N1357  H1358   1.027   .     S
C1359  H1361   1.102   .     S
C1359  H1362   1.107   .     S
C1359  H1360   1.105   .     S
N1363  H1364   1.015   .     S
C1365  H1367   1.110   .     S
C1365  H1368   1.104   .     S
C1365  N1179   1.448   1_655 S
C1365  H1182   1.109   1_655 S
N1369  H1370   1.019   .     S
N1369  C1371   1.448   .     S
C1371  H1372   1.098   .     S
C1371  H1373   1.111   .     S
C1371  H1374   1.109   .     S
N1375  H1376   1.032   .     S
N1375  C1377   1.451   .     S
C1377  H1379   1.108   .     S
C1377  H1380   1.107   .     S
C1377  H1378   1.108   .     S
C1381  O1425   1.304   .     A
C1381  O1423   1.292   .     A
C1381  C1392   1.430   .     S
C1382  O1426   1.305   .     A
C1382  O1424   1.294   .     A
C1382  C1391   1.436   .     S
C1383  N1435   1.417   .     S
C1383  C1385   1.392   .     A
C1383  C1412   1.412   .     A
C1384  C1386   1.400   .     A
C1384  N1441   1.423   .     S
C1384  C1411   1.425   .     A
C1385  H1413   1.082   .     S
C1386  H1414   1.081   .     S
C1386  C582    1.398   1_556 S
C1387  C1392   1.399   .     A
C1387  H1419   1.079   .     S
C1387  C837    1.375   1_565 S
C1388  C1391   1.391   .     A
C1388  H1420   1.070   .     S
C1389  I1447   2.131   .     S
C1389  C1391   1.407   .     A
C1390  C1392   1.408   .     A
C1390  I1448   2.141   .     S
C1390  C836    1.367   1_565 S
C1393  N1449   1.423   .     S
C1393  N1422   1.371   .     A
C1393  C1487   1.431   .     S
C1394  N1421   1.385   .     A
C1394  N1455   1.434   .     S
C1394  C1580   1.444   1_455 S
C1395  N1461   1.424   .     S
C1395  N1421   1.383   .     A
C1395  C1577   1.431   1_455 S
C1396  N1467   1.428   .     S
C1396  N1422   1.378   .     A
C1396  C1486   1.444   .     S
C1397  O1429   1.304   .     A
C1397  O1427   1.305   .     A
C1397  C1399   1.458   .     S
C1398  O1430   1.308   .     A
C1398  O1428   1.308   .     A
C1398  C1400   1.472   .     S
C1399  C1403   1.394   .     A
C1399  C1405   1.392   .     A
C1400  C1404   1.401   .     A
C1400  C1406   1.390   .     A
C1401  C1409   1.412   .     A
C1401  C1403   1.391   .     A
C1401  I1617   2.127   1_455 S
C1402  I1434   2.129   .     S
C1402  C1404   1.397   .     A
C1402  C1410   1.413   .     A
C1403  H1418   1.076   .     S
C1404  H1417   1.073   .     S
C1405  C1407   1.395   .     A
C1405  H1416   1.078   .     S
C1406  C1408   1.401   .     A
C1406  H1415   1.083   .     S
C1407  C1409   1.424   .     A
C1407  C1411   1.422   .     A
C1408  C1412   1.413   .     A
C1408  C1410   1.414   .     A
C1409  C557    1.394   1_556 S
C1411  C584    1.404   1_556 S
N1421  Zn1431  2.040   .     S
N1422  Zn1432  2.040   .     S
O1423  Zn1431  2.005   .     S
O1424  Zn1432  2.005   .     S
O1425  Zn1432  2.006   .     S
O1426  Zn1431  2.006   .     S
O1427  Zn1431  1.990   .     S
O1428  Zn1432  1.990   .     S
O1429  Zn1432  1.963   .     S
O1430  Zn1431  1.963   .     S
I1433  C1493   2.127   .     S
N1435  H1436   1.029   .     S
N1435  C1437   1.454   .     S
C1437  H1439   1.114   .     S
C1437  H1440   1.103   .     S
C1437  H1438   1.108   .     S
N1441  C1443   1.453   .     S
N1441  H1442   1.032   .     S
C1443  H1445   1.109   .     S
C1443  H1446   1.113   .     S
C1443  H1444   1.111   .     S
N1449  C1451   1.448   .     S
N1449  H1450   1.027   .     S
C1451  H1453   1.102   .     S
C1451  H1454   1.107   .     S
C1451  H1452   1.105   .     S
N1455  H1456   1.015   .     S
N1455  C1641   1.448   1_455 S
C1457  H1459   1.110   .     S
C1457  H1460   1.104   .     S
C1457  N1547   1.448   .     S
C1457  H1550   1.109   .     S
H1458  C1641   1.109   1_455 S
N1461  H1462   1.019   .     S
N1461  C1463   1.448   .     S
C1463  H1464   1.098   .     S
C1463  H1465   1.111   .     S
C1463  H1466   1.109   .     S
N1467  H1468   1.032   .     S
N1467  C1469   1.451   .     S
C1469  H1471   1.108   .     S
C1469  H1472   1.107   .     S
C1469  H1470   1.108   .     S
C1473  O1517   1.304   .     A
C1473  O1515   1.292   .     A
C1473  C1484   1.430   .     S
C1474  O1518   1.305   .     A
C1474  O1516   1.294   .     A
C1474  C1483   1.436   .     S
C1475  N1527   1.417   .     S
C1475  C1477   1.392   .     A
C1475  C1504   1.412   .     A
C1476  C1478   1.400   .     A
C1476  N1533   1.423   .     S
C1476  C1503   1.425   .     A
C1477  H1505   1.082   .     S
C1478  H1506   1.081   .     S
C1478  C674    1.398   1_556 S
C1479  C1484   1.399   .     A
C1479  H1511   1.079   .     S
C1479  C929    1.375   1_565 S
C1480  C1483   1.391   .     A
C1480  H1512   1.070   .     S
C1481  I1539   2.131   .     S
C1481  C1483   1.407   .     A
C1482  C1484   1.408   .     A
C1482  I1540   2.141   .     S
C1482  C928    1.367   1_565 S
C1485  N1541   1.423   .     S
C1485  N1514   1.371   .     A
C1485  C1579   1.431   .     S
C1486  N1513   1.385   .     A
C1486  N1547   1.434   .     S
C1487  N1553   1.424   .     S
C1487  N1513   1.383   .     A
C1488  N1559   1.428   .     S
C1488  N1514   1.378   .     A
C1488  C1578   1.444   .     S
C1489  O1521   1.304   .     A
C1489  O1519   1.305   .     A
C1489  C1491   1.458   .     S
C1490  O1522   1.308   .     A
C1490  O1520   1.308   .     A
C1490  C1492   1.472   .     S
C1491  C1495   1.394   .     A
C1491  C1497   1.392   .     A
C1492  C1496   1.401   .     A
C1492  C1498   1.390   .     A
C1493  C1501   1.412   .     A
C1493  C1495   1.391   .     A
C1494  I1526   2.129   .     S
C1494  C1496   1.397   .     A
C1494  C1502   1.413   .     A
C1495  H1510   1.076   .     S
C1496  H1509   1.073   .     S
C1497  C1499   1.395   .     A
C1497  H1508   1.078   .     S
C1498  C1500   1.401   .     A
C1498  H1507   1.083   .     S
C1499  C1501   1.424   .     A
C1499  C1503   1.422   .     A
C1500  C1504   1.413   .     A
C1500  C1502   1.414   .     A
C1501  C649    1.394   1_556 S
C1503  C676    1.404   1_556 S
N1513  Zn1523  2.040   .     S
N1514  Zn1524  2.040   .     S
O1515  Zn1523  2.005   .     S
O1516  Zn1524  2.005   .     S
O1517  Zn1524  2.006   .     S
O1518  Zn1523  2.006   .     S
O1519  Zn1523  1.990   .     S
O1520  Zn1524  1.990   .     S
O1521  Zn1524  1.963   .     S
O1522  Zn1523  1.963   .     S
I1525  C1585   2.127   .     S
N1527  H1528   1.029   .     S
N1527  C1529   1.454   .     S
C1529  H1531   1.114   .     S
C1529  H1532   1.103   .     S
C1529  H1530   1.108   .     S
N1533  C1535   1.453   .     S
N1533  H1534   1.032   .     S
C1535  H1537   1.109   .     S
C1535  H1538   1.113   .     S
C1535  H1536   1.111   .     S
N1541  C1543   1.448   .     S
N1541  H1542   1.027   .     S
C1543  H1545   1.102   .     S
C1543  H1546   1.107   .     S
C1543  H1544   1.105   .     S
N1547  H1548   1.015   .     S
C1549  H1551   1.110   .     S
C1549  H1552   1.104   .     S
C1549  N1639   1.448   .     S
C1549  H1642   1.109   .     S
N1553  H1554   1.019   .     S
N1553  C1555   1.448   .     S
C1555  H1556   1.098   .     S
C1555  H1557   1.111   .     S
C1555  H1558   1.109   .     S
N1559  H1560   1.032   .     S
N1559  C1561   1.451   .     S
C1561  H1563   1.108   .     S
C1561  H1564   1.107   .     S
C1561  H1562   1.108   .     S
C1565  O1609   1.304   .     A
C1565  O1607   1.292   .     A
C1565  C1576   1.430   .     S
C1566  O1610   1.305   .     A
C1566  O1608   1.294   .     A
C1566  C1575   1.436   .     S
C1567  N1619   1.417   .     S
C1567  C1569   1.392   .     A
C1567  C1596   1.412   .     A
C1568  C1570   1.400   .     A
C1568  N1625   1.423   .     S
C1568  C1595   1.425   .     A
C1569  H1597   1.082   .     S
C1570  H1598   1.081   .     S
C1570  C766    1.398   1_556 S
C1571  C1576   1.399   .     A
C1571  H1603   1.079   .     S
C1571  C1021   1.375   1_565 S
C1572  C1575   1.391   .     A
C1572  H1604   1.070   .     S
C1573  I1631   2.131   .     S
C1573  C1575   1.407   .     A
C1574  C1576   1.408   .     A
C1574  I1632   2.141   .     S
C1574  C1020   1.367   1_565 S
C1577  N1633   1.423   .     S
C1577  N1606   1.371   .     A
C1577  C1395   1.431   1_655 S
C1578  N1605   1.385   .     A
C1578  N1639   1.434   .     S
C1579  N1645   1.424   .     S
C1579  N1605   1.383   .     A
C1580  N1651   1.428   .     S
C1580  N1606   1.378   .     A
C1580  C1394   1.444   1_655 S
C1581  O1613   1.304   .     A
C1581  O1611   1.305   .     A
C1581  C1583   1.458   .     S
C1582  O1614   1.308   .     A
C1582  O1612   1.308   .     A
C1582  C1584   1.472   .     S
C1583  C1587   1.394   .     A
C1583  C1589   1.392   .     A
C1584  C1588   1.401   .     A
C1584  C1590   1.390   .     A
C1585  C1593   1.412   .     A
C1585  C1587   1.391   .     A
C1586  I1618   2.129   .     S
C1586  C1588   1.397   .     A
C1586  C1594   1.413   .     A
C1587  H1602   1.076   .     S
C1588  H1601   1.073   .     S
C1589  C1591   1.395   .     A
C1589  H1600   1.078   .     S
C1590  C1592   1.401   .     A
C1590  H1599   1.083   .     S
C1591  C1593   1.424   .     A
C1591  C1595   1.422   .     A
C1592  C1596   1.413   .     A
C1592  C1594   1.414   .     A
C1593  C741    1.394   1_556 S
C1595  C768    1.404   1_556 S
N1605  Zn1615  2.040   .     S
N1606  Zn1616  2.040   .     S
O1607  Zn1615  2.005   .     S
O1608  Zn1616  2.005   .     S
O1609  Zn1616  2.006   .     S
O1610  Zn1615  2.006   .     S
O1611  Zn1615  1.990   .     S
O1612  Zn1616  1.990   .     S
O1613  Zn1616  1.963   .     S
O1614  Zn1615  1.963   .     S
I1617  C1401   2.127   1_655 S
N1619  H1620   1.029   .     S
N1619  C1621   1.454   .     S
C1621  H1623   1.114   .     S
C1621  H1624   1.103   .     S
C1621  H1622   1.108   .     S
N1625  C1627   1.453   .     S
N1625  H1626   1.032   .     S
C1627  H1629   1.109   .     S
C1627  H1630   1.113   .     S
C1627  H1628   1.111   .     S
N1633  C1635   1.448   .     S
N1633  H1634   1.027   .     S
C1635  H1637   1.102   .     S
C1635  H1638   1.107   .     S
C1635  H1636   1.105   .     S
N1639  H1640   1.015   .     S
C1641  H1643   1.110   .     S
C1641  H1644   1.104   .     S
C1641  N1455   1.448   1_655 S
C1641  H1458   1.109   1_655 S
N1645  H1646   1.019   .     S
N1645  C1647   1.448   .     S
C1647  H1648   1.098   .     S
C1647  H1649   1.111   .     S
C1647  H1650   1.109   .     S
N1651  H1652   1.032   .     S
N1651  C1653   1.451   .     S
C1653  H1655   1.108   .     S
C1653  H1656   1.107   .     S
C1653  H1654   1.108   .     S
