data_str_m3_o2_o10_pcu_sym.211
_audit_creation_date              2020-01-03
_audit_creation_method            'Materials Studio'
_symmetry_space_group_name_H-M    'P1'
_symmetry_Int_Tables_number       1
_symmetry_cell_setting            triclinic
loop_
_symmetry_equiv_pos_as_xyz
  x,y,z
_cell_length_a                    25.7577
_cell_length_b                    29.9288
_cell_length_c                    28.3019
_cell_angle_alpha                 90.5217
_cell_angle_beta                  98.7473
_cell_angle_gamma                 90.0823
loop_
_atom_site_label
_atom_site_type_symbol
_atom_site_fract_x
_atom_site_fract_y
_atom_site_fract_z
_atom_site_U_iso_or_equiv
_atom_site_adp_type
_atom_site_occupancy
O1     O     0.16667   0.18453   0.28974   0.00000  Uiso   1.00
O2     O     0.16666   0.31546   0.21026   0.00000  Uiso   1.00
O3     O     0.16667   0.18453   0.21026   0.00000  Uiso   1.00
O4     O     0.16666   0.31547   0.28974   0.00000  Uiso   1.00
C5     C     0.16790   0.16397   0.24991   0.00000  Uiso   1.00
C6     C     0.16732   0.33620   0.25033   0.00000  Uiso   1.00
O7     O     0.09058   0.25000   0.28044   0.00000  Uiso   1.00
O8     O     0.24275   0.25000   0.21955   0.00000  Uiso   1.00
O9     O     0.09058   0.24999   0.20097   0.00000  Uiso   1.00
O10    O     0.24275   0.25000   0.29903   0.00000  Uiso   1.00
C11    C     0.06726   0.25445   0.23767   0.00000  Uiso   1.00
C12    C     0.26610   0.25470   0.26245   0.00000  Uiso   1.00
Zn13   Zn    0.16667   0.25000   0.30307   0.00000  Uiso   1.00
Zn14   Zn    0.16667   0.24999   0.19693   0.00000  Uiso   1.00
C15    C     0.01286   0.26537   0.23097   0.00000  Uiso   1.00
C16    C     0.32062   0.26578   0.26939   0.00000  Uiso   1.00
C17    C     0.13712   0.04624   0.27120   0.00000  Uiso   1.00
C18    C     0.14402   0.45258   0.20981   0.00000  Uiso   1.00
C19    C     0.13727   0.09219   0.27347   0.00000  Uiso   1.00
C20    C     0.14258   0.40664   0.21119   0.00000  Uiso   1.00
H21    H     0.10997   0.10912   0.29312   0.00000  Uiso   1.00
H22    H     0.12043   0.38849   0.18142   0.00000  Uiso   1.00
C23    C     0.17148   0.11619   0.24947   0.00000  Uiso   1.00
C24    C     0.16897   0.38431   0.25086   0.00000  Uiso   1.00
C25    C     0.20697   0.09446   0.22359   0.00000  Uiso   1.00
C26    C     0.19702   0.40809   0.28991   0.00000  Uiso   1.00
C27    C     0.20717   0.04773   0.22168   0.00000  Uiso   1.00
C28    C     0.19923   0.45468   0.28815   0.00000  Uiso   1.00
C29    C     0.17170   0.02423   0.24554   0.00000  Uiso   1.00
C30    C     0.17281   0.47630   0.24756   0.00000  Uiso   1.00
C31    C     0.15093   0.21194   0.05001   0.00000  Uiso   1.00
C32    C     0.20480   0.27391   0.45291   0.00000  Uiso   1.00
C33    C     0.15111   0.21274   0.09972   0.00000  Uiso   1.00
C34    C     0.20404   0.27350   0.40313   0.00000  Uiso   1.00
H35    H     0.13882   0.18336   0.11707   0.00000  Uiso   1.00
H36    H     0.23363   0.29184   0.38794   0.00000  Uiso   1.00
N37    N     0.16667   0.24999   0.12624   0.00000  Uiso   1.00
N38    N     0.16667   0.25001   0.37376   0.00000  Uiso   1.00
C39    C     0.18218   0.28719   0.10462   0.00000  Uiso   1.00
C40    C     0.12963   0.22614   0.39238   0.00000  Uiso   1.00
C41    C     0.18255   0.28782   0.05501   0.00000  Uiso   1.00
C42    C     0.12887   0.22570   0.44193   0.00000  Uiso   1.00
C43    C     0.16679   0.24985   0.02663   0.00000  Uiso   1.00
C44    C     0.16681   0.24983   0.47330   0.00000  Uiso   1.00
N45    N     0.32062   0.27465   0.18311   0.00000  Uiso   1.00
O46    O     0.29565   0.31215   0.17434   0.00000  Uiso   1.00
O47    O     0.32645   0.24795   0.14775   0.00000  Uiso   1.00
N48    N     0.01291   0.27617   0.31728   0.00000  Uiso   1.00
O49    O     0.00357   0.25246   0.35340   0.00000  Uiso   1.00
O50    O     0.04106   0.31238   0.32529   0.00000  Uiso   1.00
H51    H     0.11050   0.02763   0.28991   0.00000  Uiso   1.00
H52    H     0.12292   0.46980   0.17924   0.00000  Uiso   1.00
N53    N     0.24293   0.11957   0.19994   0.00000  Uiso   1.00
O54    O     0.27354   0.14948   0.22344   0.00000  Uiso   1.00
O55    O     0.24658   0.11142   0.15533   0.00000  Uiso   1.00
N56    N     0.22635   0.38506   0.32936   0.00000  Uiso   1.00
O57    O     0.20748   0.38128   0.36923   0.00000  Uiso   1.00
O58    O     0.26898   0.36375   0.32369   0.00000  Uiso   1.00
N59    N     0.24562   0.02444   0.19893   0.00000  Uiso   1.00
O60    O     0.29510   0.03501   0.20916   0.00000  Uiso   1.00
O61    O     0.23139   0.49308   0.16749   0.00000  Uiso   1.00
N62    N     0.22902   0.47979   0.32665   0.00000  Uiso   1.00
O63    O     0.26309   0.00956   0.31791   0.00000  Uiso   1.00
O64    O     0.22176   0.47342   0.37057   0.00000  Uiso   1.00
H65    H     0.13913   0.18155   0.03024   0.00000  Uiso   1.00
H66    H     0.23551   0.29241   0.47521   0.00000  Uiso   1.00
H67    H     0.19420   0.31671   0.12576   0.00000  Uiso   1.00
H68    H     0.10044   0.20733   0.36870   0.00000  Uiso   1.00
H69    H     0.19435   0.31818   0.03902   0.00000  Uiso   1.00
H70    H     0.09829   0.20705   0.45539   0.00000  Uiso   1.00
O71    O     0.50000   0.18453   0.28974   0.00000  Uiso   1.00
O72    O     0.50000   0.31546   0.21026   0.00000  Uiso   1.00
O73    O     0.50000   0.18453   0.21026   0.00000  Uiso   1.00
O74    O     0.50000   0.31547   0.28974   0.00000  Uiso   1.00
C75    C     0.50123   0.16397   0.24991   0.00000  Uiso   1.00
C76    C     0.50065   0.33620   0.25033   0.00000  Uiso   1.00
O77    O     0.42392   0.25000   0.28044   0.00000  Uiso   1.00
O78    O     0.57608   0.25000   0.21955   0.00000  Uiso   1.00
O79    O     0.42392   0.24999   0.20097   0.00000  Uiso   1.00
O80    O     0.57608   0.25000   0.29903   0.00000  Uiso   1.00
C81    C     0.40059   0.25445   0.23767   0.00000  Uiso   1.00
C82    C     0.59943   0.25470   0.26245   0.00000  Uiso   1.00
Zn83   Zn    0.50000   0.25000   0.30307   0.00000  Uiso   1.00
Zn84   Zn    0.50000   0.24999   0.19693   0.00000  Uiso   1.00
C85    C     0.34620   0.26537   0.23097   0.00000  Uiso   1.00
C86    C     0.65395   0.26578   0.26939   0.00000  Uiso   1.00
C87    C     0.47046   0.04624   0.27120   0.00000  Uiso   1.00
C88    C     0.47735   0.45258   0.20981   0.00000  Uiso   1.00
C89    C     0.47060   0.09219   0.27347   0.00000  Uiso   1.00
C90    C     0.47591   0.40664   0.21119   0.00000  Uiso   1.00
H91    H     0.44330   0.10912   0.29312   0.00000  Uiso   1.00
H92    H     0.45376   0.38849   0.18142   0.00000  Uiso   1.00
C93    C     0.50481   0.11619   0.24947   0.00000  Uiso   1.00
C94    C     0.50230   0.38431   0.25086   0.00000  Uiso   1.00
C95    C     0.54031   0.09446   0.22359   0.00000  Uiso   1.00
C96    C     0.53035   0.40809   0.28991   0.00000  Uiso   1.00
C97    C     0.54050   0.04773   0.22168   0.00000  Uiso   1.00
C98    C     0.53257   0.45468   0.28815   0.00000  Uiso   1.00
C99    C     0.50504   0.02423   0.24554   0.00000  Uiso   1.00
C100   C     0.50614   0.47630   0.24756   0.00000  Uiso   1.00
C101   C     0.48426   0.21194   0.05001   0.00000  Uiso   1.00
C102   C     0.53814   0.27391   0.45291   0.00000  Uiso   1.00
C103   C     0.48445   0.21274   0.09972   0.00000  Uiso   1.00
C104   C     0.53737   0.27350   0.40313   0.00000  Uiso   1.00
H105   H     0.47215   0.18336   0.11707   0.00000  Uiso   1.00
H106   H     0.56696   0.29184   0.38794   0.00000  Uiso   1.00
N107   N     0.50000   0.24999   0.12624   0.00000  Uiso   1.00
N108   N     0.50000   0.25001   0.37376   0.00000  Uiso   1.00
C109   C     0.51551   0.28719   0.10462   0.00000  Uiso   1.00
C110   C     0.46296   0.22614   0.39238   0.00000  Uiso   1.00
C111   C     0.51589   0.28782   0.05501   0.00000  Uiso   1.00
C112   C     0.46221   0.22570   0.44193   0.00000  Uiso   1.00
C113   C     0.50013   0.24985   0.02663   0.00000  Uiso   1.00
C114   C     0.50014   0.24983   0.47330   0.00000  Uiso   1.00
N115   N     0.65396   0.27465   0.18311   0.00000  Uiso   1.00
O116   O     0.62899   0.31215   0.17434   0.00000  Uiso   1.00
O117   O     0.65979   0.24795   0.14775   0.00000  Uiso   1.00
N118   N     0.34624   0.27617   0.31728   0.00000  Uiso   1.00
O119   O     0.33690   0.25246   0.35340   0.00000  Uiso   1.00
O120   O     0.37439   0.31238   0.32529   0.00000  Uiso   1.00
H121   H     0.44384   0.02763   0.28991   0.00000  Uiso   1.00
H122   H     0.45625   0.46980   0.17924   0.00000  Uiso   1.00
N123   N     0.57626   0.11957   0.19994   0.00000  Uiso   1.00
O124   O     0.60687   0.14948   0.22344   0.00000  Uiso   1.00
O125   O     0.57991   0.11142   0.15533   0.00000  Uiso   1.00
N126   N     0.55969   0.38506   0.32936   0.00000  Uiso   1.00
O127   O     0.54081   0.38128   0.36923   0.00000  Uiso   1.00
O128   O     0.60231   0.36375   0.32369   0.00000  Uiso   1.00
N129   N     0.57895   0.02444   0.19893   0.00000  Uiso   1.00
O130   O     0.62843   0.03501   0.20916   0.00000  Uiso   1.00
O131   O     0.56473   0.49308   0.16749   0.00000  Uiso   1.00
N132   N     0.56236   0.47979   0.32665   0.00000  Uiso   1.00
O133   O     0.59642   0.00956   0.31791   0.00000  Uiso   1.00
O134   O     0.55510   0.47342   0.37057   0.00000  Uiso   1.00
H135   H     0.47246   0.18155   0.03024   0.00000  Uiso   1.00
H136   H     0.56884   0.29241   0.47521   0.00000  Uiso   1.00
H137   H     0.52753   0.31671   0.12576   0.00000  Uiso   1.00
H138   H     0.43377   0.20733   0.36870   0.00000  Uiso   1.00
H139   H     0.52768   0.31818   0.03902   0.00000  Uiso   1.00
H140   H     0.43163   0.20705   0.45539   0.00000  Uiso   1.00
O141   O     0.83334   0.18453   0.28974   0.00000  Uiso   1.00
O142   O     0.83333   0.31546   0.21026   0.00000  Uiso   1.00
O143   O     0.83334   0.18453   0.21026   0.00000  Uiso   1.00
O144   O     0.83333   0.31547   0.28974   0.00000  Uiso   1.00
C145   C     0.83457   0.16397   0.24991   0.00000  Uiso   1.00
C146   C     0.83399   0.33620   0.25033   0.00000  Uiso   1.00
O147   O     0.75725   0.25000   0.28044   0.00000  Uiso   1.00
O148   O     0.90942   0.25000   0.21955   0.00000  Uiso   1.00
O149   O     0.75725   0.24999   0.20097   0.00000  Uiso   1.00
O150   O     0.90942   0.25000   0.29903   0.00000  Uiso   1.00
C151   C     0.73392   0.25445   0.23767   0.00000  Uiso   1.00
C152   C     0.93276   0.25470   0.26245   0.00000  Uiso   1.00
Zn153  Zn    0.83333   0.25000   0.30307   0.00000  Uiso   1.00
Zn154  Zn    0.83333   0.24999   0.19693   0.00000  Uiso   1.00
C155   C     0.67953   0.26537   0.23097   0.00000  Uiso   1.00
C156   C     0.98728   0.26578   0.26939   0.00000  Uiso   1.00
C157   C     0.80379   0.04624   0.27120   0.00000  Uiso   1.00
C158   C     0.81068   0.45258   0.20981   0.00000  Uiso   1.00
C159   C     0.80393   0.09219   0.27347   0.00000  Uiso   1.00
C160   C     0.80924   0.40664   0.21119   0.00000  Uiso   1.00
H161   H     0.77663   0.10912   0.29312   0.00000  Uiso   1.00
H162   H     0.78710   0.38849   0.18142   0.00000  Uiso   1.00
C163   C     0.83815   0.11619   0.24947   0.00000  Uiso   1.00
C164   C     0.83564   0.38431   0.25086   0.00000  Uiso   1.00
C165   C     0.87364   0.09446   0.22359   0.00000  Uiso   1.00
C166   C     0.86368   0.40809   0.28991   0.00000  Uiso   1.00
C167   C     0.87384   0.04773   0.22168   0.00000  Uiso   1.00
C168   C     0.86590   0.45468   0.28815   0.00000  Uiso   1.00
C169   C     0.83837   0.02423   0.24554   0.00000  Uiso   1.00
C170   C     0.83947   0.47630   0.24756   0.00000  Uiso   1.00
C171   C     0.81760   0.21194   0.05001   0.00000  Uiso   1.00
C172   C     0.87147   0.27391   0.45291   0.00000  Uiso   1.00
C173   C     0.81778   0.21274   0.09972   0.00000  Uiso   1.00
C174   C     0.87071   0.27350   0.40313   0.00000  Uiso   1.00
H175   H     0.80549   0.18336   0.11707   0.00000  Uiso   1.00
H176   H     0.90030   0.29184   0.38794   0.00000  Uiso   1.00
N177   N     0.83333   0.24999   0.12624   0.00000  Uiso   1.00
N178   N     0.83333   0.25001   0.37376   0.00000  Uiso   1.00
C179   C     0.84884   0.28719   0.10462   0.00000  Uiso   1.00
C180   C     0.79629   0.22614   0.39238   0.00000  Uiso   1.00
C181   C     0.84922   0.28782   0.05501   0.00000  Uiso   1.00
C182   C     0.79554   0.22570   0.44193   0.00000  Uiso   1.00
C183   C     0.83346   0.24985   0.02663   0.00000  Uiso   1.00
C184   C     0.83347   0.24983   0.47330   0.00000  Uiso   1.00
N185   N     0.98729   0.27465   0.18311   0.00000  Uiso   1.00
O186   O     0.96232   0.31215   0.17434   0.00000  Uiso   1.00
O187   O     0.99312   0.24795   0.14775   0.00000  Uiso   1.00
N188   N     0.67957   0.27617   0.31728   0.00000  Uiso   1.00
O189   O     0.67024   0.25246   0.35340   0.00000  Uiso   1.00
O190   O     0.70773   0.31238   0.32529   0.00000  Uiso   1.00
H191   H     0.77717   0.02763   0.28991   0.00000  Uiso   1.00
H192   H     0.78958   0.46980   0.17924   0.00000  Uiso   1.00
N193   N     0.90960   0.11957   0.19994   0.00000  Uiso   1.00
O194   O     0.94020   0.14948   0.22344   0.00000  Uiso   1.00
O195   O     0.91324   0.11142   0.15533   0.00000  Uiso   1.00
N196   N     0.89302   0.38506   0.32936   0.00000  Uiso   1.00
O197   O     0.87414   0.38128   0.36923   0.00000  Uiso   1.00
O198   O     0.93565   0.36375   0.32369   0.00000  Uiso   1.00
N199   N     0.91228   0.02444   0.19893   0.00000  Uiso   1.00
O200   O     0.96177   0.03501   0.20916   0.00000  Uiso   1.00
O201   O     0.89806   0.49308   0.16749   0.00000  Uiso   1.00
N202   N     0.89569   0.47979   0.32665   0.00000  Uiso   1.00
O203   O     0.92975   0.00956   0.31791   0.00000  Uiso   1.00
O204   O     0.88843   0.47342   0.37057   0.00000  Uiso   1.00
H205   H     0.80579   0.18155   0.03024   0.00000  Uiso   1.00
H206   H     0.90218   0.29241   0.47521   0.00000  Uiso   1.00
H207   H     0.86087   0.31671   0.12576   0.00000  Uiso   1.00
H208   H     0.76710   0.20733   0.36870   0.00000  Uiso   1.00
H209   H     0.86102   0.31818   0.03902   0.00000  Uiso   1.00
H210   H     0.76496   0.20705   0.45539   0.00000  Uiso   1.00
O211   O     0.16667   0.68453   0.28974   0.00000  Uiso   1.00
O212   O     0.16666   0.81546   0.21026   0.00000  Uiso   1.00
O213   O     0.16667   0.68453   0.21026   0.00000  Uiso   1.00
O214   O     0.16666   0.81547   0.28974   0.00000  Uiso   1.00
C215   C     0.16790   0.66397   0.24991   0.00000  Uiso   1.00
C216   C     0.16732   0.83620   0.25033   0.00000  Uiso   1.00
O217   O     0.09058   0.75000   0.28044   0.00000  Uiso   1.00
O218   O     0.24275   0.75000   0.21955   0.00000  Uiso   1.00
O219   O     0.09058   0.74999   0.20097   0.00000  Uiso   1.00
O220   O     0.24275   0.75000   0.29903   0.00000  Uiso   1.00
C221   C     0.06726   0.75445   0.23767   0.00000  Uiso   1.00
C222   C     0.26610   0.75470   0.26245   0.00000  Uiso   1.00
Zn223  Zn    0.16667   0.75000   0.30307   0.00000  Uiso   1.00
Zn224  Zn    0.16667   0.74999   0.19693   0.00000  Uiso   1.00
C225   C     0.01286   0.76537   0.23097   0.00000  Uiso   1.00
C226   C     0.32062   0.76578   0.26939   0.00000  Uiso   1.00
C227   C     0.13712   0.54624   0.27120   0.00000  Uiso   1.00
C228   C     0.14402   0.95258   0.20981   0.00000  Uiso   1.00
C229   C     0.13727   0.59219   0.27347   0.00000  Uiso   1.00
C230   C     0.14258   0.90664   0.21119   0.00000  Uiso   1.00
H231   H     0.10997   0.60912   0.29312   0.00000  Uiso   1.00
H232   H     0.12043   0.88849   0.18142   0.00000  Uiso   1.00
C233   C     0.17148   0.61619   0.24947   0.00000  Uiso   1.00
C234   C     0.16897   0.88431   0.25086   0.00000  Uiso   1.00
C235   C     0.20697   0.59446   0.22359   0.00000  Uiso   1.00
C236   C     0.19702   0.90809   0.28991   0.00000  Uiso   1.00
C237   C     0.20717   0.54773   0.22168   0.00000  Uiso   1.00
C238   C     0.19923   0.95468   0.28815   0.00000  Uiso   1.00
C239   C     0.17170   0.52423   0.24554   0.00000  Uiso   1.00
C240   C     0.17281   0.97630   0.24756   0.00000  Uiso   1.00
C241   C     0.15093   0.71194   0.05001   0.00000  Uiso   1.00
C242   C     0.20480   0.77391   0.45291   0.00000  Uiso   1.00
C243   C     0.15111   0.71274   0.09972   0.00000  Uiso   1.00
C244   C     0.20404   0.77350   0.40313   0.00000  Uiso   1.00
H245   H     0.13882   0.68336   0.11707   0.00000  Uiso   1.00
H246   H     0.23363   0.79184   0.38794   0.00000  Uiso   1.00
N247   N     0.16667   0.74999   0.12624   0.00000  Uiso   1.00
N248   N     0.16667   0.75001   0.37376   0.00000  Uiso   1.00
C249   C     0.18218   0.78719   0.10462   0.00000  Uiso   1.00
C250   C     0.12963   0.72614   0.39238   0.00000  Uiso   1.00
C251   C     0.18255   0.78782   0.05501   0.00000  Uiso   1.00
C252   C     0.12887   0.72570   0.44193   0.00000  Uiso   1.00
C253   C     0.16679   0.74985   0.02663   0.00000  Uiso   1.00
C254   C     0.16681   0.74983   0.47330   0.00000  Uiso   1.00
N255   N     0.32062   0.77465   0.18311   0.00000  Uiso   1.00
O256   O     0.29565   0.81215   0.17434   0.00000  Uiso   1.00
O257   O     0.32645   0.74795   0.14775   0.00000  Uiso   1.00
N258   N     0.01291   0.77617   0.31728   0.00000  Uiso   1.00
O259   O     0.00357   0.75246   0.35340   0.00000  Uiso   1.00
O260   O     0.04106   0.81238   0.32529   0.00000  Uiso   1.00
H261   H     0.11050   0.52763   0.28991   0.00000  Uiso   1.00
H262   H     0.12292   0.96980   0.17924   0.00000  Uiso   1.00
N263   N     0.24293   0.61957   0.19994   0.00000  Uiso   1.00
O264   O     0.27354   0.64948   0.22344   0.00000  Uiso   1.00
O265   O     0.24658   0.61142   0.15533   0.00000  Uiso   1.00
N266   N     0.22635   0.88506   0.32936   0.00000  Uiso   1.00
O267   O     0.20748   0.88128   0.36923   0.00000  Uiso   1.00
O268   O     0.26898   0.86375   0.32369   0.00000  Uiso   1.00
N269   N     0.24562   0.52444   0.19893   0.00000  Uiso   1.00
O270   O     0.29510   0.53501   0.20916   0.00000  Uiso   1.00
O271   O     0.23139   0.99308   0.16749   0.00000  Uiso   1.00
N272   N     0.22902   0.97979   0.32665   0.00000  Uiso   1.00
O273   O     0.26309   0.50956   0.31791   0.00000  Uiso   1.00
O274   O     0.22176   0.97342   0.37057   0.00000  Uiso   1.00
H275   H     0.13913   0.68155   0.03024   0.00000  Uiso   1.00
H276   H     0.23551   0.79241   0.47521   0.00000  Uiso   1.00
H277   H     0.19420   0.81671   0.12576   0.00000  Uiso   1.00
H278   H     0.10044   0.70733   0.36870   0.00000  Uiso   1.00
H279   H     0.19435   0.81818   0.03902   0.00000  Uiso   1.00
H280   H     0.09829   0.70705   0.45539   0.00000  Uiso   1.00
O281   O     0.50000   0.68453   0.28974   0.00000  Uiso   1.00
O282   O     0.50000   0.81546   0.21026   0.00000  Uiso   1.00
O283   O     0.50000   0.68453   0.21026   0.00000  Uiso   1.00
O284   O     0.50000   0.81547   0.28974   0.00000  Uiso   1.00
C285   C     0.50123   0.66397   0.24991   0.00000  Uiso   1.00
C286   C     0.50065   0.83620   0.25033   0.00000  Uiso   1.00
O287   O     0.42392   0.75000   0.28044   0.00000  Uiso   1.00
O288   O     0.57608   0.75000   0.21955   0.00000  Uiso   1.00
O289   O     0.42392   0.74999   0.20097   0.00000  Uiso   1.00
O290   O     0.57608   0.75000   0.29903   0.00000  Uiso   1.00
C291   C     0.40059   0.75445   0.23767   0.00000  Uiso   1.00
C292   C     0.59943   0.75470   0.26245   0.00000  Uiso   1.00
Zn293  Zn    0.50000   0.75000   0.30307   0.00000  Uiso   1.00
Zn294  Zn    0.50000   0.74999   0.19693   0.00000  Uiso   1.00
C295   C     0.34620   0.76537   0.23097   0.00000  Uiso   1.00
C296   C     0.65395   0.76578   0.26939   0.00000  Uiso   1.00
C297   C     0.47046   0.54624   0.27120   0.00000  Uiso   1.00
C298   C     0.47735   0.95258   0.20981   0.00000  Uiso   1.00
C299   C     0.47060   0.59219   0.27347   0.00000  Uiso   1.00
C300   C     0.47591   0.90664   0.21119   0.00000  Uiso   1.00
H301   H     0.44330   0.60912   0.29312   0.00000  Uiso   1.00
H302   H     0.45376   0.88849   0.18142   0.00000  Uiso   1.00
C303   C     0.50481   0.61619   0.24947   0.00000  Uiso   1.00
C304   C     0.50230   0.88431   0.25086   0.00000  Uiso   1.00
C305   C     0.54031   0.59446   0.22359   0.00000  Uiso   1.00
C306   C     0.53035   0.90809   0.28991   0.00000  Uiso   1.00
C307   C     0.54050   0.54773   0.22168   0.00000  Uiso   1.00
C308   C     0.53257   0.95468   0.28815   0.00000  Uiso   1.00
C309   C     0.50504   0.52423   0.24554   0.00000  Uiso   1.00
C310   C     0.50614   0.97630   0.24756   0.00000  Uiso   1.00
C311   C     0.48426   0.71194   0.05001   0.00000  Uiso   1.00
C312   C     0.53814   0.77391   0.45291   0.00000  Uiso   1.00
C313   C     0.48445   0.71274   0.09972   0.00000  Uiso   1.00
C314   C     0.53737   0.77350   0.40313   0.00000  Uiso   1.00
H315   H     0.47215   0.68336   0.11707   0.00000  Uiso   1.00
H316   H     0.56696   0.79184   0.38794   0.00000  Uiso   1.00
N317   N     0.50000   0.74999   0.12624   0.00000  Uiso   1.00
N318   N     0.50000   0.75001   0.37376   0.00000  Uiso   1.00
C319   C     0.51551   0.78719   0.10462   0.00000  Uiso   1.00
C320   C     0.46296   0.72614   0.39238   0.00000  Uiso   1.00
C321   C     0.51589   0.78782   0.05501   0.00000  Uiso   1.00
C322   C     0.46221   0.72570   0.44193   0.00000  Uiso   1.00
C323   C     0.50013   0.74985   0.02663   0.00000  Uiso   1.00
C324   C     0.50014   0.74983   0.47330   0.00000  Uiso   1.00
N325   N     0.65396   0.77465   0.18311   0.00000  Uiso   1.00
O326   O     0.62899   0.81215   0.17434   0.00000  Uiso   1.00
O327   O     0.65979   0.74795   0.14775   0.00000  Uiso   1.00
N328   N     0.34624   0.77617   0.31728   0.00000  Uiso   1.00
O329   O     0.33690   0.75246   0.35340   0.00000  Uiso   1.00
O330   O     0.37439   0.81238   0.32529   0.00000  Uiso   1.00
H331   H     0.44384   0.52763   0.28991   0.00000  Uiso   1.00
H332   H     0.45625   0.96980   0.17924   0.00000  Uiso   1.00
N333   N     0.57626   0.61957   0.19994   0.00000  Uiso   1.00
O334   O     0.60687   0.64948   0.22344   0.00000  Uiso   1.00
O335   O     0.57991   0.61142   0.15533   0.00000  Uiso   1.00
N336   N     0.55969   0.88506   0.32936   0.00000  Uiso   1.00
O337   O     0.54081   0.88128   0.36923   0.00000  Uiso   1.00
O338   O     0.60231   0.86375   0.32369   0.00000  Uiso   1.00
N339   N     0.57895   0.52444   0.19893   0.00000  Uiso   1.00
O340   O     0.62843   0.53501   0.20916   0.00000  Uiso   1.00
O341   O     0.56473   0.99308   0.16749   0.00000  Uiso   1.00
N342   N     0.56236   0.97979   0.32665   0.00000  Uiso   1.00
O343   O     0.59642   0.50956   0.31791   0.00000  Uiso   1.00
O344   O     0.55510   0.97342   0.37057   0.00000  Uiso   1.00
H345   H     0.47246   0.68155   0.03024   0.00000  Uiso   1.00
H346   H     0.56884   0.79241   0.47521   0.00000  Uiso   1.00
H347   H     0.52753   0.81671   0.12576   0.00000  Uiso   1.00
H348   H     0.43377   0.70733   0.36870   0.00000  Uiso   1.00
H349   H     0.52768   0.81818   0.03902   0.00000  Uiso   1.00
H350   H     0.43163   0.70705   0.45539   0.00000  Uiso   1.00
O351   O     0.83334   0.68453   0.28974   0.00000  Uiso   1.00
O352   O     0.83333   0.81546   0.21026   0.00000  Uiso   1.00
O353   O     0.83334   0.68453   0.21026   0.00000  Uiso   1.00
O354   O     0.83333   0.81547   0.28974   0.00000  Uiso   1.00
C355   C     0.83457   0.66397   0.24991   0.00000  Uiso   1.00
C356   C     0.83399   0.83620   0.25033   0.00000  Uiso   1.00
O357   O     0.75725   0.75000   0.28044   0.00000  Uiso   1.00
O358   O     0.90942   0.75000   0.21955   0.00000  Uiso   1.00
O359   O     0.75725   0.74999   0.20097   0.00000  Uiso   1.00
O360   O     0.90942   0.75000   0.29903   0.00000  Uiso   1.00
C361   C     0.73392   0.75445   0.23767   0.00000  Uiso   1.00
C362   C     0.93276   0.75470   0.26245   0.00000  Uiso   1.00
Zn363  Zn    0.83333   0.75000   0.30307   0.00000  Uiso   1.00
Zn364  Zn    0.83333   0.74999   0.19693   0.00000  Uiso   1.00
C365   C     0.67953   0.76537   0.23097   0.00000  Uiso   1.00
C366   C     0.98728   0.76578   0.26939   0.00000  Uiso   1.00
C367   C     0.80379   0.54624   0.27120   0.00000  Uiso   1.00
C368   C     0.81068   0.95258   0.20981   0.00000  Uiso   1.00
C369   C     0.80393   0.59219   0.27347   0.00000  Uiso   1.00
C370   C     0.80924   0.90664   0.21119   0.00000  Uiso   1.00
H371   H     0.77663   0.60912   0.29312   0.00000  Uiso   1.00
H372   H     0.78710   0.88849   0.18142   0.00000  Uiso   1.00
C373   C     0.83815   0.61619   0.24947   0.00000  Uiso   1.00
C374   C     0.83564   0.88431   0.25086   0.00000  Uiso   1.00
C375   C     0.87364   0.59446   0.22359   0.00000  Uiso   1.00
C376   C     0.86368   0.90809   0.28991   0.00000  Uiso   1.00
C377   C     0.87384   0.54773   0.22168   0.00000  Uiso   1.00
C378   C     0.86590   0.95468   0.28815   0.00000  Uiso   1.00
C379   C     0.83837   0.52423   0.24554   0.00000  Uiso   1.00
C380   C     0.83947   0.97630   0.24756   0.00000  Uiso   1.00
C381   C     0.81760   0.71194   0.05001   0.00000  Uiso   1.00
C382   C     0.87147   0.77391   0.45291   0.00000  Uiso   1.00
C383   C     0.81778   0.71274   0.09972   0.00000  Uiso   1.00
C384   C     0.87071   0.77350   0.40313   0.00000  Uiso   1.00
H385   H     0.80549   0.68336   0.11707   0.00000  Uiso   1.00
H386   H     0.90030   0.79184   0.38794   0.00000  Uiso   1.00
N387   N     0.83333   0.74999   0.12624   0.00000  Uiso   1.00
N388   N     0.83333   0.75001   0.37376   0.00000  Uiso   1.00
C389   C     0.84884   0.78719   0.10462   0.00000  Uiso   1.00
C390   C     0.79629   0.72614   0.39238   0.00000  Uiso   1.00
C391   C     0.84922   0.78782   0.05501   0.00000  Uiso   1.00
C392   C     0.79554   0.72570   0.44193   0.00000  Uiso   1.00
C393   C     0.83346   0.74985   0.02663   0.00000  Uiso   1.00
C394   C     0.83347   0.74983   0.47330   0.00000  Uiso   1.00
N395   N     0.98729   0.77465   0.18311   0.00000  Uiso   1.00
O396   O     0.96232   0.81215   0.17434   0.00000  Uiso   1.00
O397   O     0.99312   0.74795   0.14775   0.00000  Uiso   1.00
N398   N     0.67957   0.77617   0.31728   0.00000  Uiso   1.00
O399   O     0.67024   0.75246   0.35340   0.00000  Uiso   1.00
O400   O     0.70773   0.81238   0.32529   0.00000  Uiso   1.00
H401   H     0.77717   0.52763   0.28991   0.00000  Uiso   1.00
H402   H     0.78958   0.96980   0.17924   0.00000  Uiso   1.00
N403   N     0.90960   0.61957   0.19994   0.00000  Uiso   1.00
O404   O     0.94020   0.64948   0.22344   0.00000  Uiso   1.00
O405   O     0.91324   0.61142   0.15533   0.00000  Uiso   1.00
N406   N     0.89302   0.88506   0.32936   0.00000  Uiso   1.00
O407   O     0.87414   0.88128   0.36923   0.00000  Uiso   1.00
O408   O     0.93565   0.86375   0.32369   0.00000  Uiso   1.00
N409   N     0.91228   0.52444   0.19893   0.00000  Uiso   1.00
O410   O     0.96177   0.53501   0.20916   0.00000  Uiso   1.00
O411   O     0.89806   0.99308   0.16749   0.00000  Uiso   1.00
N412   N     0.89569   0.97979   0.32665   0.00000  Uiso   1.00
O413   O     0.92975   0.50956   0.31791   0.00000  Uiso   1.00
O414   O     0.88843   0.97342   0.37057   0.00000  Uiso   1.00
H415   H     0.80579   0.68155   0.03024   0.00000  Uiso   1.00
H416   H     0.90218   0.79241   0.47521   0.00000  Uiso   1.00
H417   H     0.86087   0.81671   0.12576   0.00000  Uiso   1.00
H418   H     0.76710   0.70733   0.36870   0.00000  Uiso   1.00
H419   H     0.86102   0.81818   0.03902   0.00000  Uiso   1.00
H420   H     0.76496   0.70705   0.45539   0.00000  Uiso   1.00
O421   O     0.16667   0.18453   0.78974   0.00000  Uiso   1.00
O422   O     0.16666   0.31546   0.71026   0.00000  Uiso   1.00
O423   O     0.16667   0.18453   0.71026   0.00000  Uiso   1.00
O424   O     0.16666   0.31547   0.78974   0.00000  Uiso   1.00
C425   C     0.16790   0.16397   0.74991   0.00000  Uiso   1.00
C426   C     0.16732   0.33620   0.75033   0.00000  Uiso   1.00
O427   O     0.09058   0.25000   0.78044   0.00000  Uiso   1.00
O428   O     0.24275   0.25000   0.71955   0.00000  Uiso   1.00
O429   O     0.09058   0.24999   0.70097   0.00000  Uiso   1.00
O430   O     0.24275   0.25000   0.79903   0.00000  Uiso   1.00
C431   C     0.06726   0.25445   0.73767   0.00000  Uiso   1.00
C432   C     0.26610   0.25470   0.76245   0.00000  Uiso   1.00
Zn433  Zn    0.16667   0.25000   0.80307   0.00000  Uiso   1.00
Zn434  Zn    0.16667   0.24999   0.69693   0.00000  Uiso   1.00
C435   C     0.01286   0.26537   0.73097   0.00000  Uiso   1.00
C436   C     0.32062   0.26578   0.76939   0.00000  Uiso   1.00
C437   C     0.13712   0.04624   0.77120   0.00000  Uiso   1.00
C438   C     0.14402   0.45258   0.70981   0.00000  Uiso   1.00
C439   C     0.13727   0.09219   0.77347   0.00000  Uiso   1.00
C440   C     0.14258   0.40664   0.71119   0.00000  Uiso   1.00
H441   H     0.10997   0.10912   0.79312   0.00000  Uiso   1.00
H442   H     0.12043   0.38849   0.68142   0.00000  Uiso   1.00
C443   C     0.17148   0.11619   0.74947   0.00000  Uiso   1.00
C444   C     0.16897   0.38431   0.75086   0.00000  Uiso   1.00
C445   C     0.20697   0.09446   0.72359   0.00000  Uiso   1.00
C446   C     0.19702   0.40809   0.78991   0.00000  Uiso   1.00
C447   C     0.20717   0.04773   0.72168   0.00000  Uiso   1.00
C448   C     0.19923   0.45468   0.78815   0.00000  Uiso   1.00
C449   C     0.17170   0.02423   0.74554   0.00000  Uiso   1.00
C450   C     0.17281   0.47630   0.74756   0.00000  Uiso   1.00
C451   C     0.15093   0.21194   0.55001   0.00000  Uiso   1.00
C452   C     0.20480   0.27391   0.95291   0.00000  Uiso   1.00
C453   C     0.15111   0.21274   0.59972   0.00000  Uiso   1.00
C454   C     0.20404   0.27350   0.90313   0.00000  Uiso   1.00
H455   H     0.13882   0.18336   0.61707   0.00000  Uiso   1.00
H456   H     0.23363   0.29184   0.88794   0.00000  Uiso   1.00
N457   N     0.16667   0.24999   0.62624   0.00000  Uiso   1.00
N458   N     0.16667   0.25001   0.87376   0.00000  Uiso   1.00
C459   C     0.18218   0.28719   0.60462   0.00000  Uiso   1.00
C460   C     0.12963   0.22614   0.89238   0.00000  Uiso   1.00
C461   C     0.18255   0.28782   0.55501   0.00000  Uiso   1.00
C462   C     0.12887   0.22570   0.94193   0.00000  Uiso   1.00
C463   C     0.16679   0.24985   0.52663   0.00000  Uiso   1.00
C464   C     0.16681   0.24983   0.97330   0.00000  Uiso   1.00
N465   N     0.32062   0.27465   0.68311   0.00000  Uiso   1.00
O466   O     0.29565   0.31215   0.67434   0.00000  Uiso   1.00
O467   O     0.32645   0.24795   0.64775   0.00000  Uiso   1.00
N468   N     0.01291   0.27617   0.81728   0.00000  Uiso   1.00
O469   O     0.00357   0.25246   0.85340   0.00000  Uiso   1.00
O470   O     0.04106   0.31238   0.82529   0.00000  Uiso   1.00
H471   H     0.11050   0.02763   0.78991   0.00000  Uiso   1.00
H472   H     0.12292   0.46980   0.67924   0.00000  Uiso   1.00
N473   N     0.24293   0.11957   0.69994   0.00000  Uiso   1.00
O474   O     0.27354   0.14948   0.72344   0.00000  Uiso   1.00
O475   O     0.24658   0.11142   0.65533   0.00000  Uiso   1.00
N476   N     0.22635   0.38506   0.82936   0.00000  Uiso   1.00
O477   O     0.20748   0.38128   0.86923   0.00000  Uiso   1.00
O478   O     0.26898   0.36375   0.82369   0.00000  Uiso   1.00
N479   N     0.24562   0.02444   0.69893   0.00000  Uiso   1.00
O480   O     0.29510   0.03501   0.70916   0.00000  Uiso   1.00
O481   O     0.23139   0.49308   0.66749   0.00000  Uiso   1.00
N482   N     0.22902   0.47979   0.82665   0.00000  Uiso   1.00
O483   O     0.26309   0.00956   0.81791   0.00000  Uiso   1.00
O484   O     0.22176   0.47342   0.87057   0.00000  Uiso   1.00
H485   H     0.13913   0.18155   0.53024   0.00000  Uiso   1.00
H486   H     0.23551   0.29241   0.97521   0.00000  Uiso   1.00
H487   H     0.19420   0.31671   0.62576   0.00000  Uiso   1.00
H488   H     0.10044   0.20733   0.86870   0.00000  Uiso   1.00
H489   H     0.19435   0.31818   0.53902   0.00000  Uiso   1.00
H490   H     0.09829   0.20705   0.95539   0.00000  Uiso   1.00
O491   O     0.50000   0.18453   0.78974   0.00000  Uiso   1.00
O492   O     0.50000   0.31546   0.71026   0.00000  Uiso   1.00
O493   O     0.50000   0.18453   0.71026   0.00000  Uiso   1.00
O494   O     0.50000   0.31547   0.78974   0.00000  Uiso   1.00
C495   C     0.50123   0.16397   0.74991   0.00000  Uiso   1.00
C496   C     0.50065   0.33620   0.75033   0.00000  Uiso   1.00
O497   O     0.42392   0.25000   0.78044   0.00000  Uiso   1.00
O498   O     0.57608   0.25000   0.71955   0.00000  Uiso   1.00
O499   O     0.42392   0.24999   0.70097   0.00000  Uiso   1.00
O500   O     0.57608   0.25000   0.79903   0.00000  Uiso   1.00
C501   C     0.40059   0.25445   0.73767   0.00000  Uiso   1.00
C502   C     0.59943   0.25470   0.76245   0.00000  Uiso   1.00
Zn503  Zn    0.50000   0.25000   0.80307   0.00000  Uiso   1.00
Zn504  Zn    0.50000   0.24999   0.69693   0.00000  Uiso   1.00
C505   C     0.34620   0.26537   0.73097   0.00000  Uiso   1.00
C506   C     0.65395   0.26578   0.76939   0.00000  Uiso   1.00
C507   C     0.47046   0.04624   0.77120   0.00000  Uiso   1.00
C508   C     0.47735   0.45258   0.70981   0.00000  Uiso   1.00
C509   C     0.47060   0.09219   0.77347   0.00000  Uiso   1.00
C510   C     0.47591   0.40664   0.71119   0.00000  Uiso   1.00
H511   H     0.44330   0.10912   0.79312   0.00000  Uiso   1.00
H512   H     0.45376   0.38849   0.68142   0.00000  Uiso   1.00
C513   C     0.50481   0.11619   0.74947   0.00000  Uiso   1.00
C514   C     0.50230   0.38431   0.75086   0.00000  Uiso   1.00
C515   C     0.54031   0.09446   0.72359   0.00000  Uiso   1.00
C516   C     0.53035   0.40809   0.78991   0.00000  Uiso   1.00
C517   C     0.54050   0.04773   0.72168   0.00000  Uiso   1.00
C518   C     0.53257   0.45468   0.78815   0.00000  Uiso   1.00
C519   C     0.50504   0.02423   0.74554   0.00000  Uiso   1.00
C520   C     0.50614   0.47630   0.74756   0.00000  Uiso   1.00
C521   C     0.48426   0.21194   0.55001   0.00000  Uiso   1.00
C522   C     0.53814   0.27391   0.95291   0.00000  Uiso   1.00
C523   C     0.48445   0.21274   0.59972   0.00000  Uiso   1.00
C524   C     0.53737   0.27350   0.90313   0.00000  Uiso   1.00
H525   H     0.47215   0.18336   0.61707   0.00000  Uiso   1.00
H526   H     0.56696   0.29184   0.88794   0.00000  Uiso   1.00
N527   N     0.50000   0.24999   0.62624   0.00000  Uiso   1.00
N528   N     0.50000   0.25001   0.87376   0.00000  Uiso   1.00
C529   C     0.51551   0.28719   0.60462   0.00000  Uiso   1.00
C530   C     0.46296   0.22614   0.89238   0.00000  Uiso   1.00
C531   C     0.51589   0.28782   0.55501   0.00000  Uiso   1.00
C532   C     0.46221   0.22570   0.94193   0.00000  Uiso   1.00
C533   C     0.50013   0.24985   0.52663   0.00000  Uiso   1.00
C534   C     0.50014   0.24983   0.97330   0.00000  Uiso   1.00
N535   N     0.65396   0.27465   0.68311   0.00000  Uiso   1.00
O536   O     0.62899   0.31215   0.67434   0.00000  Uiso   1.00
O537   O     0.65979   0.24795   0.64775   0.00000  Uiso   1.00
N538   N     0.34624   0.27617   0.81728   0.00000  Uiso   1.00
O539   O     0.33690   0.25246   0.85340   0.00000  Uiso   1.00
O540   O     0.37439   0.31238   0.82529   0.00000  Uiso   1.00
H541   H     0.44384   0.02763   0.78991   0.00000  Uiso   1.00
H542   H     0.45625   0.46980   0.67924   0.00000  Uiso   1.00
N543   N     0.57626   0.11957   0.69994   0.00000  Uiso   1.00
O544   O     0.60687   0.14948   0.72344   0.00000  Uiso   1.00
O545   O     0.57991   0.11142   0.65533   0.00000  Uiso   1.00
N546   N     0.55969   0.38506   0.82936   0.00000  Uiso   1.00
O547   O     0.54081   0.38128   0.86923   0.00000  Uiso   1.00
O548   O     0.60231   0.36375   0.82369   0.00000  Uiso   1.00
N549   N     0.57895   0.02444   0.69893   0.00000  Uiso   1.00
O550   O     0.62843   0.03501   0.70916   0.00000  Uiso   1.00
O551   O     0.56473   0.49308   0.66749   0.00000  Uiso   1.00
N552   N     0.56236   0.47979   0.82665   0.00000  Uiso   1.00
O553   O     0.59642   0.00956   0.81791   0.00000  Uiso   1.00
O554   O     0.55510   0.47342   0.87057   0.00000  Uiso   1.00
H555   H     0.47246   0.18155   0.53024   0.00000  Uiso   1.00
H556   H     0.56884   0.29241   0.97521   0.00000  Uiso   1.00
H557   H     0.52753   0.31671   0.62576   0.00000  Uiso   1.00
H558   H     0.43377   0.20733   0.86870   0.00000  Uiso   1.00
H559   H     0.52768   0.31818   0.53902   0.00000  Uiso   1.00
H560   H     0.43163   0.20705   0.95539   0.00000  Uiso   1.00
O561   O     0.83334   0.18453   0.78974   0.00000  Uiso   1.00
O562   O     0.83333   0.31546   0.71026   0.00000  Uiso   1.00
O563   O     0.83334   0.18453   0.71026   0.00000  Uiso   1.00
O564   O     0.83333   0.31547   0.78974   0.00000  Uiso   1.00
C565   C     0.83457   0.16397   0.74991   0.00000  Uiso   1.00
C566   C     0.83399   0.33620   0.75033   0.00000  Uiso   1.00
O567   O     0.75725   0.25000   0.78044   0.00000  Uiso   1.00
O568   O     0.90942   0.25000   0.71955   0.00000  Uiso   1.00
O569   O     0.75725   0.24999   0.70097   0.00000  Uiso   1.00
O570   O     0.90942   0.25000   0.79903   0.00000  Uiso   1.00
C571   C     0.73392   0.25445   0.73767   0.00000  Uiso   1.00
C572   C     0.93276   0.25470   0.76245   0.00000  Uiso   1.00
Zn573  Zn    0.83333   0.25000   0.80307   0.00000  Uiso   1.00
Zn574  Zn    0.83333   0.24999   0.69693   0.00000  Uiso   1.00
C575   C     0.67953   0.26537   0.73097   0.00000  Uiso   1.00
C576   C     0.98728   0.26578   0.76939   0.00000  Uiso   1.00
C577   C     0.80379   0.04624   0.77120   0.00000  Uiso   1.00
C578   C     0.81068   0.45258   0.70981   0.00000  Uiso   1.00
C579   C     0.80393   0.09219   0.77347   0.00000  Uiso   1.00
C580   C     0.80924   0.40664   0.71119   0.00000  Uiso   1.00
H581   H     0.77663   0.10912   0.79312   0.00000  Uiso   1.00
H582   H     0.78710   0.38849   0.68142   0.00000  Uiso   1.00
C583   C     0.83815   0.11619   0.74947   0.00000  Uiso   1.00
C584   C     0.83564   0.38431   0.75086   0.00000  Uiso   1.00
C585   C     0.87364   0.09446   0.72359   0.00000  Uiso   1.00
C586   C     0.86368   0.40809   0.78991   0.00000  Uiso   1.00
C587   C     0.87384   0.04773   0.72168   0.00000  Uiso   1.00
C588   C     0.86590   0.45468   0.78815   0.00000  Uiso   1.00
C589   C     0.83837   0.02423   0.74554   0.00000  Uiso   1.00
C590   C     0.83947   0.47630   0.74756   0.00000  Uiso   1.00
C591   C     0.81760   0.21194   0.55001   0.00000  Uiso   1.00
C592   C     0.87147   0.27391   0.95291   0.00000  Uiso   1.00
C593   C     0.81778   0.21274   0.59972   0.00000  Uiso   1.00
C594   C     0.87071   0.27350   0.90313   0.00000  Uiso   1.00
H595   H     0.80549   0.18336   0.61707   0.00000  Uiso   1.00
H596   H     0.90030   0.29184   0.88794   0.00000  Uiso   1.00
N597   N     0.83333   0.24999   0.62624   0.00000  Uiso   1.00
N598   N     0.83333   0.25001   0.87376   0.00000  Uiso   1.00
C599   C     0.84884   0.28719   0.60462   0.00000  Uiso   1.00
C600   C     0.79629   0.22614   0.89238   0.00000  Uiso   1.00
C601   C     0.84922   0.28782   0.55501   0.00000  Uiso   1.00
C602   C     0.79554   0.22570   0.94193   0.00000  Uiso   1.00
C603   C     0.83346   0.24985   0.52663   0.00000  Uiso   1.00
C604   C     0.83347   0.24983   0.97330   0.00000  Uiso   1.00
N605   N     0.98729   0.27465   0.68311   0.00000  Uiso   1.00
O606   O     0.96232   0.31215   0.67434   0.00000  Uiso   1.00
O607   O     0.99312   0.24795   0.64775   0.00000  Uiso   1.00
N608   N     0.67957   0.27617   0.81728   0.00000  Uiso   1.00
O609   O     0.67024   0.25246   0.85340   0.00000  Uiso   1.00
O610   O     0.70773   0.31238   0.82529   0.00000  Uiso   1.00
H611   H     0.77717   0.02763   0.78991   0.00000  Uiso   1.00
H612   H     0.78958   0.46980   0.67924   0.00000  Uiso   1.00
N613   N     0.90960   0.11957   0.69994   0.00000  Uiso   1.00
O614   O     0.94020   0.14948   0.72344   0.00000  Uiso   1.00
O615   O     0.91324   0.11142   0.65533   0.00000  Uiso   1.00
N616   N     0.89302   0.38506   0.82936   0.00000  Uiso   1.00
O617   O     0.87414   0.38128   0.86923   0.00000  Uiso   1.00
O618   O     0.93565   0.36375   0.82369   0.00000  Uiso   1.00
N619   N     0.91228   0.02444   0.69893   0.00000  Uiso   1.00
O620   O     0.96177   0.03501   0.70916   0.00000  Uiso   1.00
O621   O     0.89806   0.49308   0.66749   0.00000  Uiso   1.00
N622   N     0.89569   0.47979   0.82665   0.00000  Uiso   1.00
O623   O     0.92975   0.00956   0.81791   0.00000  Uiso   1.00
O624   O     0.88843   0.47342   0.87057   0.00000  Uiso   1.00
H625   H     0.80579   0.18155   0.53024   0.00000  Uiso   1.00
H626   H     0.90218   0.29241   0.97521   0.00000  Uiso   1.00
H627   H     0.86087   0.31671   0.62576   0.00000  Uiso   1.00
H628   H     0.76710   0.20733   0.86870   0.00000  Uiso   1.00
H629   H     0.86102   0.31818   0.53902   0.00000  Uiso   1.00
H630   H     0.76496   0.20705   0.95539   0.00000  Uiso   1.00
O631   O     0.16667   0.68453   0.78974   0.00000  Uiso   1.00
O632   O     0.16666   0.81546   0.71026   0.00000  Uiso   1.00
O633   O     0.16667   0.68453   0.71026   0.00000  Uiso   1.00
O634   O     0.16666   0.81547   0.78974   0.00000  Uiso   1.00
C635   C     0.16790   0.66397   0.74991   0.00000  Uiso   1.00
C636   C     0.16732   0.83620   0.75033   0.00000  Uiso   1.00
O637   O     0.09058   0.75000   0.78044   0.00000  Uiso   1.00
O638   O     0.24275   0.75000   0.71955   0.00000  Uiso   1.00
O639   O     0.09058   0.74999   0.70097   0.00000  Uiso   1.00
O640   O     0.24275   0.75000   0.79903   0.00000  Uiso   1.00
C641   C     0.06726   0.75445   0.73767   0.00000  Uiso   1.00
C642   C     0.26610   0.75470   0.76245   0.00000  Uiso   1.00
Zn643  Zn    0.16667   0.75000   0.80307   0.00000  Uiso   1.00
Zn644  Zn    0.16667   0.74999   0.69693   0.00000  Uiso   1.00
C645   C     0.01286   0.76537   0.73097   0.00000  Uiso   1.00
C646   C     0.32062   0.76578   0.76939   0.00000  Uiso   1.00
C647   C     0.13712   0.54624   0.77120   0.00000  Uiso   1.00
C648   C     0.14402   0.95258   0.70981   0.00000  Uiso   1.00
C649   C     0.13727   0.59219   0.77347   0.00000  Uiso   1.00
C650   C     0.14258   0.90664   0.71119   0.00000  Uiso   1.00
H651   H     0.10997   0.60912   0.79312   0.00000  Uiso   1.00
H652   H     0.12043   0.88849   0.68142   0.00000  Uiso   1.00
C653   C     0.17148   0.61619   0.74947   0.00000  Uiso   1.00
C654   C     0.16897   0.88431   0.75086   0.00000  Uiso   1.00
C655   C     0.20697   0.59446   0.72359   0.00000  Uiso   1.00
C656   C     0.19702   0.90809   0.78991   0.00000  Uiso   1.00
C657   C     0.20717   0.54773   0.72168   0.00000  Uiso   1.00
C658   C     0.19923   0.95468   0.78815   0.00000  Uiso   1.00
C659   C     0.17170   0.52423   0.74554   0.00000  Uiso   1.00
C660   C     0.17281   0.97630   0.74756   0.00000  Uiso   1.00
C661   C     0.15093   0.71194   0.55001   0.00000  Uiso   1.00
C662   C     0.20480   0.77391   0.95291   0.00000  Uiso   1.00
C663   C     0.15111   0.71274   0.59972   0.00000  Uiso   1.00
C664   C     0.20404   0.77350   0.90313   0.00000  Uiso   1.00
H665   H     0.13882   0.68336   0.61707   0.00000  Uiso   1.00
H666   H     0.23363   0.79184   0.88794   0.00000  Uiso   1.00
N667   N     0.16667   0.74999   0.62624   0.00000  Uiso   1.00
N668   N     0.16667   0.75001   0.87376   0.00000  Uiso   1.00
C669   C     0.18218   0.78719   0.60462   0.00000  Uiso   1.00
C670   C     0.12963   0.72614   0.89238   0.00000  Uiso   1.00
C671   C     0.18255   0.78782   0.55501   0.00000  Uiso   1.00
C672   C     0.12887   0.72570   0.94193   0.00000  Uiso   1.00
C673   C     0.16679   0.74985   0.52663   0.00000  Uiso   1.00
C674   C     0.16681   0.74983   0.97330   0.00000  Uiso   1.00
N675   N     0.32062   0.77465   0.68311   0.00000  Uiso   1.00
O676   O     0.29565   0.81215   0.67434   0.00000  Uiso   1.00
O677   O     0.32645   0.74795   0.64775   0.00000  Uiso   1.00
N678   N     0.01291   0.77617   0.81728   0.00000  Uiso   1.00
O679   O     0.00357   0.75246   0.85340   0.00000  Uiso   1.00
O680   O     0.04106   0.81238   0.82529   0.00000  Uiso   1.00
H681   H     0.11050   0.52763   0.78991   0.00000  Uiso   1.00
H682   H     0.12292   0.96980   0.67924   0.00000  Uiso   1.00
N683   N     0.24293   0.61957   0.69994   0.00000  Uiso   1.00
O684   O     0.27354   0.64948   0.72344   0.00000  Uiso   1.00
O685   O     0.24658   0.61142   0.65533   0.00000  Uiso   1.00
N686   N     0.22635   0.88506   0.82936   0.00000  Uiso   1.00
O687   O     0.20748   0.88128   0.86923   0.00000  Uiso   1.00
O688   O     0.26898   0.86375   0.82369   0.00000  Uiso   1.00
N689   N     0.24562   0.52444   0.69893   0.00000  Uiso   1.00
O690   O     0.29510   0.53501   0.70916   0.00000  Uiso   1.00
O691   O     0.23139   0.99308   0.66749   0.00000  Uiso   1.00
N692   N     0.22902   0.97979   0.82665   0.00000  Uiso   1.00
O693   O     0.26309   0.50956   0.81791   0.00000  Uiso   1.00
O694   O     0.22176   0.97342   0.87057   0.00000  Uiso   1.00
H695   H     0.13913   0.68155   0.53024   0.00000  Uiso   1.00
H696   H     0.23551   0.79241   0.97521   0.00000  Uiso   1.00
H697   H     0.19420   0.81671   0.62576   0.00000  Uiso   1.00
H698   H     0.10044   0.70733   0.86870   0.00000  Uiso   1.00
H699   H     0.19435   0.81818   0.53902   0.00000  Uiso   1.00
H700   H     0.09829   0.70705   0.95539   0.00000  Uiso   1.00
O701   O     0.50000   0.68453   0.78974   0.00000  Uiso   1.00
O702   O     0.50000   0.81546   0.71026   0.00000  Uiso   1.00
O703   O     0.50000   0.68453   0.71026   0.00000  Uiso   1.00
O704   O     0.50000   0.81547   0.78974   0.00000  Uiso   1.00
C705   C     0.50123   0.66397   0.74991   0.00000  Uiso   1.00
C706   C     0.50065   0.83620   0.75033   0.00000  Uiso   1.00
O707   O     0.42392   0.75000   0.78044   0.00000  Uiso   1.00
O708   O     0.57608   0.75000   0.71955   0.00000  Uiso   1.00
O709   O     0.42392   0.74999   0.70097   0.00000  Uiso   1.00
O710   O     0.57608   0.75000   0.79903   0.00000  Uiso   1.00
C711   C     0.40059   0.75445   0.73767   0.00000  Uiso   1.00
C712   C     0.59943   0.75470   0.76245   0.00000  Uiso   1.00
Zn713  Zn    0.50000   0.75000   0.80307   0.00000  Uiso   1.00
Zn714  Zn    0.50000   0.74999   0.69693   0.00000  Uiso   1.00
C715   C     0.34620   0.76537   0.73097   0.00000  Uiso   1.00
C716   C     0.65395   0.76578   0.76939   0.00000  Uiso   1.00
C717   C     0.47046   0.54624   0.77120   0.00000  Uiso   1.00
C718   C     0.47735   0.95258   0.70981   0.00000  Uiso   1.00
C719   C     0.47060   0.59219   0.77347   0.00000  Uiso   1.00
C720   C     0.47591   0.90664   0.71119   0.00000  Uiso   1.00
H721   H     0.44330   0.60912   0.79312   0.00000  Uiso   1.00
H722   H     0.45376   0.88849   0.68142   0.00000  Uiso   1.00
C723   C     0.50481   0.61619   0.74947   0.00000  Uiso   1.00
C724   C     0.50230   0.88431   0.75086   0.00000  Uiso   1.00
C725   C     0.54031   0.59446   0.72359   0.00000  Uiso   1.00
C726   C     0.53035   0.90809   0.78991   0.00000  Uiso   1.00
C727   C     0.54050   0.54773   0.72168   0.00000  Uiso   1.00
C728   C     0.53257   0.95468   0.78815   0.00000  Uiso   1.00
C729   C     0.50504   0.52423   0.74554   0.00000  Uiso   1.00
C730   C     0.50614   0.97630   0.74756   0.00000  Uiso   1.00
C731   C     0.48426   0.71194   0.55001   0.00000  Uiso   1.00
C732   C     0.53814   0.77391   0.95291   0.00000  Uiso   1.00
C733   C     0.48445   0.71274   0.59972   0.00000  Uiso   1.00
C734   C     0.53737   0.77350   0.90313   0.00000  Uiso   1.00
H735   H     0.47215   0.68336   0.61707   0.00000  Uiso   1.00
H736   H     0.56696   0.79184   0.88794   0.00000  Uiso   1.00
N737   N     0.50000   0.74999   0.62624   0.00000  Uiso   1.00
N738   N     0.50000   0.75001   0.87376   0.00000  Uiso   1.00
C739   C     0.51551   0.78719   0.60462   0.00000  Uiso   1.00
C740   C     0.46296   0.72614   0.89238   0.00000  Uiso   1.00
C741   C     0.51589   0.78782   0.55501   0.00000  Uiso   1.00
C742   C     0.46221   0.72570   0.94193   0.00000  Uiso   1.00
C743   C     0.50013   0.74985   0.52663   0.00000  Uiso   1.00
C744   C     0.50014   0.74983   0.97330   0.00000  Uiso   1.00
N745   N     0.65396   0.77465   0.68311   0.00000  Uiso   1.00
O746   O     0.62899   0.81215   0.67434   0.00000  Uiso   1.00
O747   O     0.65979   0.74795   0.64775   0.00000  Uiso   1.00
N748   N     0.34624   0.77617   0.81728   0.00000  Uiso   1.00
O749   O     0.33690   0.75246   0.85340   0.00000  Uiso   1.00
O750   O     0.37439   0.81238   0.82529   0.00000  Uiso   1.00
H751   H     0.44384   0.52763   0.78991   0.00000  Uiso   1.00
H752   H     0.45625   0.96980   0.67924   0.00000  Uiso   1.00
N753   N     0.57626   0.61957   0.69994   0.00000  Uiso   1.00
O754   O     0.60687   0.64948   0.72344   0.00000  Uiso   1.00
O755   O     0.57991   0.61142   0.65533   0.00000  Uiso   1.00
N756   N     0.55969   0.88506   0.82936   0.00000  Uiso   1.00
O757   O     0.54081   0.88128   0.86923   0.00000  Uiso   1.00
O758   O     0.60231   0.86375   0.82369   0.00000  Uiso   1.00
N759   N     0.57895   0.52444   0.69893   0.00000  Uiso   1.00
O760   O     0.62843   0.53501   0.70916   0.00000  Uiso   1.00
O761   O     0.56473   0.99308   0.66749   0.00000  Uiso   1.00
N762   N     0.56236   0.97979   0.82665   0.00000  Uiso   1.00
O763   O     0.59642   0.50956   0.81791   0.00000  Uiso   1.00
O764   O     0.55510   0.97342   0.87057   0.00000  Uiso   1.00
H765   H     0.47246   0.68155   0.53024   0.00000  Uiso   1.00
H766   H     0.56884   0.79241   0.97521   0.00000  Uiso   1.00
H767   H     0.52753   0.81671   0.62576   0.00000  Uiso   1.00
H768   H     0.43377   0.70733   0.86870   0.00000  Uiso   1.00
H769   H     0.52768   0.81818   0.53902   0.00000  Uiso   1.00
H770   H     0.43163   0.70705   0.95539   0.00000  Uiso   1.00
O771   O     0.83334   0.68453   0.78974   0.00000  Uiso   1.00
O772   O     0.83333   0.81546   0.71026   0.00000  Uiso   1.00
O773   O     0.83334   0.68453   0.71026   0.00000  Uiso   1.00
O774   O     0.83333   0.81547   0.78974   0.00000  Uiso   1.00
C775   C     0.83457   0.66397   0.74991   0.00000  Uiso   1.00
C776   C     0.83399   0.83620   0.75033   0.00000  Uiso   1.00
O777   O     0.75725   0.75000   0.78044   0.00000  Uiso   1.00
O778   O     0.90942   0.75000   0.71955   0.00000  Uiso   1.00
O779   O     0.75725   0.74999   0.70097   0.00000  Uiso   1.00
O780   O     0.90942   0.75000   0.79903   0.00000  Uiso   1.00
C781   C     0.73392   0.75445   0.73767   0.00000  Uiso   1.00
C782   C     0.93276   0.75470   0.76245   0.00000  Uiso   1.00
Zn783  Zn    0.83333   0.75000   0.80307   0.00000  Uiso   1.00
Zn784  Zn    0.83333   0.74999   0.69693   0.00000  Uiso   1.00
C785   C     0.67953   0.76537   0.73097   0.00000  Uiso   1.00
C786   C     0.98728   0.76578   0.76939   0.00000  Uiso   1.00
C787   C     0.80379   0.54624   0.77120   0.00000  Uiso   1.00
C788   C     0.81068   0.95258   0.70981   0.00000  Uiso   1.00
C789   C     0.80393   0.59219   0.77347   0.00000  Uiso   1.00
C790   C     0.80924   0.90664   0.71119   0.00000  Uiso   1.00
H791   H     0.77663   0.60912   0.79312   0.00000  Uiso   1.00
H792   H     0.78710   0.88849   0.68142   0.00000  Uiso   1.00
C793   C     0.83815   0.61619   0.74947   0.00000  Uiso   1.00
C794   C     0.83564   0.88431   0.75086   0.00000  Uiso   1.00
C795   C     0.87364   0.59446   0.72359   0.00000  Uiso   1.00
C796   C     0.86368   0.90809   0.78991   0.00000  Uiso   1.00
C797   C     0.87384   0.54773   0.72168   0.00000  Uiso   1.00
C798   C     0.86590   0.95468   0.78815   0.00000  Uiso   1.00
C799   C     0.83837   0.52423   0.74554   0.00000  Uiso   1.00
C800   C     0.83947   0.97630   0.74756   0.00000  Uiso   1.00
C801   C     0.81760   0.71194   0.55001   0.00000  Uiso   1.00
C802   C     0.87147   0.77391   0.95291   0.00000  Uiso   1.00
C803   C     0.81778   0.71274   0.59972   0.00000  Uiso   1.00
C804   C     0.87071   0.77350   0.90313   0.00000  Uiso   1.00
H805   H     0.80549   0.68336   0.61707   0.00000  Uiso   1.00
H806   H     0.90030   0.79184   0.88794   0.00000  Uiso   1.00
N807   N     0.83333   0.74999   0.62624   0.00000  Uiso   1.00
N808   N     0.83333   0.75001   0.87376   0.00000  Uiso   1.00
C809   C     0.84884   0.78719   0.60462   0.00000  Uiso   1.00
C810   C     0.79629   0.72614   0.89238   0.00000  Uiso   1.00
C811   C     0.84922   0.78782   0.55501   0.00000  Uiso   1.00
C812   C     0.79554   0.72570   0.94193   0.00000  Uiso   1.00
C813   C     0.83346   0.74985   0.52663   0.00000  Uiso   1.00
C814   C     0.83347   0.74983   0.97330   0.00000  Uiso   1.00
N815   N     0.98729   0.77465   0.68311   0.00000  Uiso   1.00
O816   O     0.96232   0.81215   0.67434   0.00000  Uiso   1.00
O817   O     0.99312   0.74795   0.64775   0.00000  Uiso   1.00
N818   N     0.67957   0.77617   0.81728   0.00000  Uiso   1.00
O819   O     0.67024   0.75246   0.85340   0.00000  Uiso   1.00
O820   O     0.70773   0.81238   0.82529   0.00000  Uiso   1.00
H821   H     0.77717   0.52763   0.78991   0.00000  Uiso   1.00
H822   H     0.78958   0.96980   0.67924   0.00000  Uiso   1.00
N823   N     0.90960   0.61957   0.69994   0.00000  Uiso   1.00
O824   O     0.94020   0.64948   0.72344   0.00000  Uiso   1.00
O825   O     0.91324   0.61142   0.65533   0.00000  Uiso   1.00
N826   N     0.89302   0.88506   0.82936   0.00000  Uiso   1.00
O827   O     0.87414   0.88128   0.86923   0.00000  Uiso   1.00
O828   O     0.93565   0.86375   0.82369   0.00000  Uiso   1.00
N829   N     0.91228   0.52444   0.69893   0.00000  Uiso   1.00
O830   O     0.96177   0.53501   0.70916   0.00000  Uiso   1.00
O831   O     0.89806   0.99308   0.66749   0.00000  Uiso   1.00
N832   N     0.89569   0.97979   0.82665   0.00000  Uiso   1.00
O833   O     0.92975   0.50956   0.81791   0.00000  Uiso   1.00
O834   O     0.88843   0.97342   0.87057   0.00000  Uiso   1.00
H835   H     0.80579   0.68155   0.53024   0.00000  Uiso   1.00
H836   H     0.90218   0.79241   0.97521   0.00000  Uiso   1.00
H837   H     0.86087   0.81671   0.62576   0.00000  Uiso   1.00
H838   H     0.76710   0.70733   0.86870   0.00000  Uiso   1.00
H839   H     0.86102   0.81818   0.53902   0.00000  Uiso   1.00
H840   H     0.76496   0.70705   0.95539   0.00000  Uiso   1.00
loop_
_geom_bond_atom_site_label_1
_geom_bond_atom_site_label_2
_geom_bond_distance
_geom_bond_site_symmetry_2
_ccdc_geom_bond_type
O1     C5      1.284   .     A
O1     Zn13    1.992   .     S
O2     Zn14    1.992   .     S
O2     C6      1.286   .     A
O3     Zn14    1.999   .     S
O3     C5      1.281   .     A
O4     C6      1.284   .     A
O4     Zn13    1.999   .     S
C5     C23     1.433   .     S
C6     C24     1.440   .     S
O7     C11     1.275   .     A
O7     Zn13    1.967   .     S
O8     C12     1.277   .     A
O8     Zn14    1.967   .     S
O9     Zn14    1.980   .     S
O9     C11     1.283   .     A
O10    C12     1.283   .     A
O10    Zn13    1.980   .     S
C11    C15     1.424   .     S
C12    C16     1.426   .     S
Zn13   N38     2.001   .     S
Zn14   N37     2.001   .     S
C15    C156    1.354   1_455 S
C15    N185    1.443   1_455 S
C16    C85     1.354   .     S
C16    N118    1.445   .     S
C17    C29     1.394   .     A
C17    H51     1.084   .     S
C17    C19     1.376   .     A
C18    C30     1.392   .     A
C18    H52     1.084   .     S
C18    C20     1.376   .     A
C19    H21     1.084   .     S
C19    C23     1.394   .     A
C20    H22     1.084   .     S
C20    C24     1.397   .     A
C23    C25     1.411   .     A
C24    C26     1.411   .     A
C25    C27     1.399   .     A
C25    N53     1.438   .     S
C26    C28     1.397   .     A
C26    N56     1.432   .     S
C27    C29     1.407   .     A
C27    N59     1.438   .     S
C28    C30     1.407   .     A
C28    N62     1.439   .     S
C29    C240    1.436   1_545 S
C30    C239    1.436   .     S
C31    C33     1.406   .     A
C31    C43     1.409   .     A
C31    H65     1.082   .     S
C32    H66     1.082   .     S
C32    C44     1.410   .     A
C32    C34     1.406   .     A
C33    H35     1.081   .     S
C33    N37     1.363   .     A
C34    N38     1.362   .     A
C34    H36     1.081   .     S
N37    C39     1.363   .     A
N38    C40     1.362   .     A
C39    C41     1.406   .     A
C39    H67     1.081   .     S
C40    C42     1.406   .     A
C40    H68     1.082   .     S
C41    C43     1.409   .     A
C41    H69     1.082   .     S
C42    C44     1.410   .     A
C42    H70     1.082   .     S
C43    C464    1.509   1_554 S
C44    C463    1.509   .     S
N45    O47     1.301   .     A
N45    O46     1.301   .     A
N45    C85     1.443   .     S
N48    O50     1.302   .     A
N48    O49     1.302   .     A
N48    C156    1.445   1_455 S
N53    O54     1.301   .     A
N53    O55     1.301   .     A
N56    O58     1.301   .     A
N56    O57     1.301   .     A
N59    O60     1.301   .     A
N59    O271    1.301   1_545 S
O61    N269    1.301   .     S
N62    O64     1.301   .     A
N62    O273    1.301   .     S
O63    N272    1.301   1_545 S
O71    C75     1.284   .     A
O71    Zn83    1.992   .     S
O72    Zn84    1.992   .     S
O72    C76     1.286   .     A
O73    Zn84    1.999   .     S
O73    C75     1.281   .     A
O74    C76     1.284   .     A
O74    Zn83    1.999   .     S
C75    C93     1.433   .     S
C76    C94     1.440   .     S
O77    C81     1.275   .     A
O77    Zn83    1.967   .     S
O78    C82     1.277   .     A
O78    Zn84    1.967   .     S
O79    Zn84    1.980   .     S
O79    C81     1.283   .     A
O80    C82     1.283   .     A
O80    Zn83    1.980   .     S
C81    C85     1.424   .     S
C82    C86     1.426   .     S
Zn83   N108    2.001   .     S
Zn84   N107    2.001   .     S
C86    C155    1.354   .     S
C86    N188    1.445   .     S
C87    C99     1.394   .     A
C87    H121    1.084   .     S
C87    C89     1.376   .     A
C88    C100    1.392   .     A
C88    H122    1.084   .     S
C88    C90     1.376   .     A
C89    H91     1.084   .     S
C89    C93     1.394   .     A
C90    H92     1.084   .     S
C90    C94     1.397   .     A
C93    C95     1.411   .     A
C94    C96     1.411   .     A
C95    C97     1.399   .     A
C95    N123    1.438   .     S
C96    C98     1.397   .     A
C96    N126    1.432   .     S
C97    C99     1.407   .     A
C97    N129    1.438   .     S
C98    C100    1.407   .     A
C98    N132    1.439   .     S
C99    C310    1.436   1_545 S
C100   C309    1.436   .     S
C101   C103    1.406   .     A
C101   C113    1.409   .     A
C101   H135    1.082   .     S
C102   H136    1.082   .     S
C102   C114    1.410   .     A
C102   C104    1.406   .     A
C103   H105    1.081   .     S
C103   N107    1.363   .     A
C104   N108    1.362   .     A
C104   H106    1.081   .     S
N107   C109    1.363   .     A
N108   C110    1.362   .     A
C109   C111    1.406   .     A
C109   H137    1.081   .     S
C110   C112    1.406   .     A
C110   H138    1.082   .     S
C111   C113    1.409   .     A
C111   H139    1.082   .     S
C112   C114    1.410   .     A
C112   H140    1.082   .     S
C113   C534    1.509   1_554 S
C114   C533    1.509   .     S
N115   O117    1.301   .     A
N115   O116    1.301   .     A
N115   C155    1.443   .     S
N118   O120    1.302   .     A
N118   O119    1.302   .     A
N123   O124    1.301   .     A
N123   O125    1.301   .     A
N126   O128    1.301   .     A
N126   O127    1.301   .     A
N129   O130    1.301   .     A
N129   O341    1.301   1_545 S
O131   N339    1.301   .     S
N132   O134    1.301   .     A
N132   O343    1.301   .     S
O133   N342    1.301   1_545 S
O141   C145    1.284   .     A
O141   Zn153   1.992   .     S
O142   Zn154   1.992   .     S
O142   C146    1.286   .     A
O143   Zn154   1.999   .     S
O143   C145    1.281   .     A
O144   C146    1.284   .     A
O144   Zn153   1.999   .     S
C145   C163    1.433   .     S
C146   C164    1.440   .     S
O147   C151    1.275   .     A
O147   Zn153   1.967   .     S
O148   C152    1.277   .     A
O148   Zn154   1.967   .     S
O149   Zn154   1.980   .     S
O149   C151    1.283   .     A
O150   C152    1.283   .     A
O150   Zn153   1.980   .     S
C151   C155    1.424   .     S
C152   C156    1.426   .     S
Zn153  N178    2.001   .     S
Zn154  N177    2.001   .     S
C156   C15     1.354   1_655 S
C156   N48     1.445   1_655 S
C157   C169    1.394   .     A
C157   H191    1.084   .     S
C157   C159    1.376   .     A
C158   C170    1.392   .     A
C158   H192    1.084   .     S
C158   C160    1.376   .     A
C159   H161    1.084   .     S
C159   C163    1.394   .     A
C160   H162    1.084   .     S
C160   C164    1.397   .     A
C163   C165    1.411   .     A
C164   C166    1.411   .     A
C165   C167    1.399   .     A
C165   N193    1.438   .     S
C166   C168    1.397   .     A
C166   N196    1.432   .     S
C167   C169    1.407   .     A
C167   N199    1.438   .     S
C168   C170    1.407   .     A
C168   N202    1.439   .     S
C169   C380    1.436   1_545 S
C170   C379    1.436   .     S
C171   C173    1.406   .     A
C171   C183    1.409   .     A
C171   H205    1.082   .     S
C172   H206    1.082   .     S
C172   C184    1.410   .     A
C172   C174    1.406   .     A
C173   H175    1.081   .     S
C173   N177    1.363   .     A
C174   N178    1.362   .     A
C174   H176    1.081   .     S
N177   C179    1.363   .     A
N178   C180    1.362   .     A
C179   C181    1.406   .     A
C179   H207    1.081   .     S
C180   C182    1.406   .     A
C180   H208    1.082   .     S
C181   C183    1.409   .     A
C181   H209    1.082   .     S
C182   C184    1.410   .     A
C182   H210    1.082   .     S
C183   C604    1.509   1_554 S
C184   C603    1.509   .     S
N185   O187    1.301   .     A
N185   O186    1.301   .     A
N185   C15     1.443   1_655 S
N188   O190    1.302   .     A
N188   O189    1.302   .     A
N193   O194    1.301   .     A
N193   O195    1.301   .     A
N196   O198    1.301   .     A
N196   O197    1.301   .     A
N199   O200    1.301   .     A
N199   O411    1.301   1_545 S
O201   N409    1.301   .     S
N202   O204    1.301   .     A
N202   O413    1.301   .     S
O203   N412    1.301   1_545 S
O211   C215    1.284   .     A
O211   Zn223   1.992   .     S
O212   Zn224   1.992   .     S
O212   C216    1.286   .     A
O213   Zn224   1.999   .     S
O213   C215    1.281   .     A
O214   C216    1.284   .     A
O214   Zn223   1.999   .     S
C215   C233    1.433   .     S
C216   C234    1.440   .     S
O217   C221    1.275   .     A
O217   Zn223   1.967   .     S
O218   C222    1.277   .     A
O218   Zn224   1.967   .     S
O219   Zn224   1.980   .     S
O219   C221    1.283   .     A
O220   C222    1.283   .     A
O220   Zn223   1.980   .     S
C221   C225    1.424   .     S
C222   C226    1.426   .     S
Zn223  N248    2.001   .     S
Zn224  N247    2.001   .     S
C225   C366    1.354   1_455 S
C225   N395    1.443   1_455 S
C226   C295    1.354   .     S
C226   N328    1.445   .     S
C227   C239    1.394   .     A
C227   H261    1.084   .     S
C227   C229    1.376   .     A
C228   C240    1.392   .     A
C228   H262    1.084   .     S
C228   C230    1.376   .     A
C229   H231    1.084   .     S
C229   C233    1.394   .     A
C230   H232    1.084   .     S
C230   C234    1.397   .     A
C233   C235    1.411   .     A
C234   C236    1.411   .     A
C235   C237    1.399   .     A
C235   N263    1.438   .     S
C236   C238    1.397   .     A
C236   N266    1.432   .     S
C237   C239    1.407   .     A
C237   N269    1.438   .     S
C238   C240    1.407   .     A
C238   N272    1.439   .     S
C240   C29     1.436   1_565 S
C241   C243    1.406   .     A
C241   C253    1.409   .     A
C241   H275    1.082   .     S
C242   H276    1.082   .     S
C242   C254    1.410   .     A
C242   C244    1.406   .     A
C243   H245    1.081   .     S
C243   N247    1.363   .     A
C244   N248    1.362   .     A
C244   H246    1.081   .     S
N247   C249    1.363   .     A
N248   C250    1.362   .     A
C249   C251    1.406   .     A
C249   H277    1.081   .     S
C250   C252    1.406   .     A
C250   H278    1.082   .     S
C251   C253    1.409   .     A
C251   H279    1.082   .     S
C252   C254    1.410   .     A
C252   H280    1.082   .     S
C253   C674    1.509   1_554 S
C254   C673    1.509   .     S
N255   O257    1.301   .     A
N255   O256    1.301   .     A
N255   C295    1.443   .     S
N258   O260    1.302   .     A
N258   O259    1.302   .     A
N258   C366    1.445   1_455 S
N263   O264    1.301   .     A
N263   O265    1.301   .     A
N266   O268    1.301   .     A
N266   O267    1.301   .     A
N269   O270    1.301   .     A
O271   N59     1.301   1_565 S
N272   O274    1.301   .     A
N272   O63     1.301   1_565 S
O281   C285    1.284   .     A
O281   Zn293   1.992   .     S
O282   Zn294   1.992   .     S
O282   C286    1.286   .     A
O283   Zn294   1.999   .     S
O283   C285    1.281   .     A
O284   C286    1.284   .     A
O284   Zn293   1.999   .     S
C285   C303    1.433   .     S
C286   C304    1.440   .     S
O287   C291    1.275   .     A
O287   Zn293   1.967   .     S
O288   C292    1.277   .     A
O288   Zn294   1.967   .     S
O289   Zn294   1.980   .     S
O289   C291    1.283   .     A
O290   C292    1.283   .     A
O290   Zn293   1.980   .     S
C291   C295    1.424   .     S
C292   C296    1.426   .     S
Zn293  N318    2.001   .     S
Zn294  N317    2.001   .     S
C296   C365    1.354   .     S
C296   N398    1.445   .     S
C297   C309    1.394   .     A
C297   H331    1.084   .     S
C297   C299    1.376   .     A
C298   C310    1.392   .     A
C298   H332    1.084   .     S
C298   C300    1.376   .     A
C299   H301    1.084   .     S
C299   C303    1.394   .     A
C300   H302    1.084   .     S
C300   C304    1.397   .     A
C303   C305    1.411   .     A
C304   C306    1.411   .     A
C305   C307    1.399   .     A
C305   N333    1.438   .     S
C306   C308    1.397   .     A
C306   N336    1.432   .     S
C307   C309    1.407   .     A
C307   N339    1.438   .     S
C308   C310    1.407   .     A
C308   N342    1.439   .     S
C310   C99     1.436   1_565 S
C311   C313    1.406   .     A
C311   C323    1.409   .     A
C311   H345    1.082   .     S
C312   H346    1.082   .     S
C312   C324    1.410   .     A
C312   C314    1.406   .     A
C313   H315    1.081   .     S
C313   N317    1.363   .     A
C314   N318    1.362   .     A
C314   H316    1.081   .     S
N317   C319    1.363   .     A
N318   C320    1.362   .     A
C319   C321    1.406   .     A
C319   H347    1.081   .     S
C320   C322    1.406   .     A
C320   H348    1.082   .     S
C321   C323    1.409   .     A
C321   H349    1.082   .     S
C322   C324    1.410   .     A
C322   H350    1.082   .     S
C323   C744    1.509   1_554 S
C324   C743    1.509   .     S
N325   O327    1.301   .     A
N325   O326    1.301   .     A
N325   C365    1.443   .     S
N328   O330    1.302   .     A
N328   O329    1.302   .     A
N333   O334    1.301   .     A
N333   O335    1.301   .     A
N336   O338    1.301   .     A
N336   O337    1.301   .     A
N339   O340    1.301   .     A
O341   N129    1.301   1_565 S
N342   O344    1.301   .     A
N342   O133    1.301   1_565 S
O351   C355    1.284   .     A
O351   Zn363   1.992   .     S
O352   Zn364   1.992   .     S
O352   C356    1.286   .     A
O353   Zn364   1.999   .     S
O353   C355    1.281   .     A
O354   C356    1.284   .     A
O354   Zn363   1.999   .     S
C355   C373    1.433   .     S
C356   C374    1.440   .     S
O357   C361    1.275   .     A
O357   Zn363   1.967   .     S
O358   C362    1.277   .     A
O358   Zn364   1.967   .     S
O359   Zn364   1.980   .     S
O359   C361    1.283   .     A
O360   C362    1.283   .     A
O360   Zn363   1.980   .     S
C361   C365    1.424   .     S
C362   C366    1.426   .     S
Zn363  N388    2.001   .     S
Zn364  N387    2.001   .     S
C366   C225    1.354   1_655 S
C366   N258    1.445   1_655 S
C367   C379    1.394   .     A
C367   H401    1.084   .     S
C367   C369    1.376   .     A
C368   C380    1.392   .     A
C368   H402    1.084   .     S
C368   C370    1.376   .     A
C369   H371    1.084   .     S
C369   C373    1.394   .     A
C370   H372    1.084   .     S
C370   C374    1.397   .     A
C373   C375    1.411   .     A
C374   C376    1.411   .     A
C375   C377    1.399   .     A
C375   N403    1.438   .     S
C376   C378    1.397   .     A
C376   N406    1.432   .     S
C377   C379    1.407   .     A
C377   N409    1.438   .     S
C378   C380    1.407   .     A
C378   N412    1.439   .     S
C380   C169    1.436   1_565 S
C381   C383    1.406   .     A
C381   C393    1.409   .     A
C381   H415    1.082   .     S
C382   H416    1.082   .     S
C382   C394    1.410   .     A
C382   C384    1.406   .     A
C383   H385    1.081   .     S
C383   N387    1.363   .     A
C384   N388    1.362   .     A
C384   H386    1.081   .     S
N387   C389    1.363   .     A
N388   C390    1.362   .     A
C389   C391    1.406   .     A
C389   H417    1.081   .     S
C390   C392    1.406   .     A
C390   H418    1.082   .     S
C391   C393    1.409   .     A
C391   H419    1.082   .     S
C392   C394    1.410   .     A
C392   H420    1.082   .     S
C393   C814    1.509   1_554 S
C394   C813    1.509   .     S
N395   O397    1.301   .     A
N395   O396    1.301   .     A
N395   C225    1.443   1_655 S
N398   O400    1.302   .     A
N398   O399    1.302   .     A
N403   O404    1.301   .     A
N403   O405    1.301   .     A
N406   O408    1.301   .     A
N406   O407    1.301   .     A
N409   O410    1.301   .     A
O411   N199    1.301   1_565 S
N412   O414    1.301   .     A
N412   O203    1.301   1_565 S
O421   C425    1.284   .     A
O421   Zn433   1.992   .     S
O422   Zn434   1.992   .     S
O422   C426    1.286   .     A
O423   Zn434   1.999   .     S
O423   C425    1.281   .     A
O424   C426    1.284   .     A
O424   Zn433   1.999   .     S
C425   C443    1.433   .     S
C426   C444    1.440   .     S
O427   C431    1.275   .     A
O427   Zn433   1.967   .     S
O428   C432    1.277   .     A
O428   Zn434   1.967   .     S
O429   Zn434   1.980   .     S
O429   C431    1.283   .     A
O430   C432    1.283   .     A
O430   Zn433   1.980   .     S
C431   C435    1.424   .     S
C432   C436    1.426   .     S
Zn433  N458    2.001   .     S
Zn434  N457    2.001   .     S
C435   C576    1.354   1_455 S
C435   N605    1.443   1_455 S
C436   C505    1.354   .     S
C436   N538    1.445   .     S
C437   C449    1.394   .     A
C437   H471    1.084   .     S
C437   C439    1.376   .     A
C438   C450    1.392   .     A
C438   H472    1.084   .     S
C438   C440    1.376   .     A
C439   H441    1.084   .     S
C439   C443    1.394   .     A
C440   H442    1.084   .     S
C440   C444    1.397   .     A
C443   C445    1.411   .     A
C444   C446    1.411   .     A
C445   C447    1.399   .     A
C445   N473    1.438   .     S
C446   C448    1.397   .     A
C446   N476    1.432   .     S
C447   C449    1.407   .     A
C447   N479    1.438   .     S
C448   C450    1.407   .     A
C448   N482    1.439   .     S
C449   C660    1.436   1_545 S
C450   C659    1.436   .     S
C451   C453    1.406   .     A
C451   C463    1.409   .     A
C451   H485    1.082   .     S
C452   H486    1.082   .     S
C452   C464    1.410   .     A
C452   C454    1.406   .     A
C453   H455    1.081   .     S
C453   N457    1.363   .     A
C454   N458    1.362   .     A
C454   H456    1.081   .     S
N457   C459    1.363   .     A
N458   C460    1.362   .     A
C459   C461    1.406   .     A
C459   H487    1.081   .     S
C460   C462    1.406   .     A
C460   H488    1.082   .     S
C461   C463    1.409   .     A
C461   H489    1.082   .     S
C462   C464    1.410   .     A
C462   H490    1.082   .     S
C464   C43     1.509   1_556 S
N465   O467    1.301   .     A
N465   O466    1.301   .     A
N465   C505    1.443   .     S
N468   O470    1.302   .     A
N468   O469    1.302   .     A
N468   C576    1.445   1_455 S
N473   O474    1.301   .     A
N473   O475    1.301   .     A
N476   O478    1.301   .     A
N476   O477    1.301   .     A
N479   O480    1.301   .     A
N479   O691    1.301   1_545 S
O481   N689    1.301   .     S
N482   O484    1.301   .     A
N482   O693    1.301   .     S
O483   N692    1.301   1_545 S
O491   C495    1.284   .     A
O491   Zn503   1.992   .     S
O492   Zn504   1.992   .     S
O492   C496    1.286   .     A
O493   Zn504   1.999   .     S
O493   C495    1.281   .     A
O494   C496    1.284   .     A
O494   Zn503   1.999   .     S
C495   C513    1.433   .     S
C496   C514    1.440   .     S
O497   C501    1.275   .     A
O497   Zn503   1.967   .     S
O498   C502    1.277   .     A
O498   Zn504   1.967   .     S
O499   Zn504   1.980   .     S
O499   C501    1.283   .     A
O500   C502    1.283   .     A
O500   Zn503   1.980   .     S
C501   C505    1.424   .     S
C502   C506    1.426   .     S
Zn503  N528    2.001   .     S
Zn504  N527    2.001   .     S
C506   C575    1.354   .     S
C506   N608    1.445   .     S
C507   C519    1.394   .     A
C507   H541    1.084   .     S
C507   C509    1.376   .     A
C508   C520    1.392   .     A
C508   H542    1.084   .     S
C508   C510    1.376   .     A
C509   H511    1.084   .     S
C509   C513    1.394   .     A
C510   H512    1.084   .     S
C510   C514    1.397   .     A
C513   C515    1.411   .     A
C514   C516    1.411   .     A
C515   C517    1.399   .     A
C515   N543    1.438   .     S
C516   C518    1.397   .     A
C516   N546    1.432   .     S
C517   C519    1.407   .     A
C517   N549    1.438   .     S
C518   C520    1.407   .     A
C518   N552    1.439   .     S
C519   C730    1.436   1_545 S
C520   C729    1.436   .     S
C521   C523    1.406   .     A
C521   C533    1.409   .     A
C521   H555    1.082   .     S
C522   H556    1.082   .     S
C522   C534    1.410   .     A
C522   C524    1.406   .     A
C523   H525    1.081   .     S
C523   N527    1.363   .     A
C524   N528    1.362   .     A
C524   H526    1.081   .     S
N527   C529    1.363   .     A
N528   C530    1.362   .     A
C529   C531    1.406   .     A
C529   H557    1.081   .     S
C530   C532    1.406   .     A
C530   H558    1.082   .     S
C531   C533    1.409   .     A
C531   H559    1.082   .     S
C532   C534    1.410   .     A
C532   H560    1.082   .     S
C534   C113    1.509   1_556 S
N535   O537    1.301   .     A
N535   O536    1.301   .     A
N535   C575    1.443   .     S
N538   O540    1.302   .     A
N538   O539    1.302   .     A
N543   O544    1.301   .     A
N543   O545    1.301   .     A
N546   O548    1.301   .     A
N546   O547    1.301   .     A
N549   O550    1.301   .     A
N549   O761    1.301   1_545 S
O551   N759    1.301   .     S
N552   O554    1.301   .     A
N552   O763    1.301   .     S
O553   N762    1.301   1_545 S
O561   C565    1.284   .     A
O561   Zn573   1.992   .     S
O562   Zn574   1.992   .     S
O562   C566    1.286   .     A
O563   Zn574   1.999   .     S
O563   C565    1.281   .     A
O564   C566    1.284   .     A
O564   Zn573   1.999   .     S
C565   C583    1.433   .     S
C566   C584    1.440   .     S
O567   C571    1.275   .     A
O567   Zn573   1.967   .     S
O568   C572    1.277   .     A
O568   Zn574   1.967   .     S
O569   Zn574   1.980   .     S
O569   C571    1.283   .     A
O570   C572    1.283   .     A
O570   Zn573   1.980   .     S
C571   C575    1.424   .     S
C572   C576    1.426   .     S
Zn573  N598    2.001   .     S
Zn574  N597    2.001   .     S
C576   C435    1.354   1_655 S
C576   N468    1.445   1_655 S
C577   C589    1.394   .     A
C577   H611    1.084   .     S
C577   C579    1.376   .     A
C578   C590    1.392   .     A
C578   H612    1.084   .     S
C578   C580    1.376   .     A
C579   H581    1.084   .     S
C579   C583    1.394   .     A
C580   H582    1.084   .     S
C580   C584    1.397   .     A
C583   C585    1.411   .     A
C584   C586    1.411   .     A
C585   C587    1.399   .     A
C585   N613    1.438   .     S
C586   C588    1.397   .     A
C586   N616    1.432   .     S
C587   C589    1.407   .     A
C587   N619    1.438   .     S
C588   C590    1.407   .     A
C588   N622    1.439   .     S
C589   C800    1.436   1_545 S
C590   C799    1.436   .     S
C591   C593    1.406   .     A
C591   C603    1.409   .     A
C591   H625    1.082   .     S
C592   H626    1.082   .     S
C592   C604    1.410   .     A
C592   C594    1.406   .     A
C593   H595    1.081   .     S
C593   N597    1.363   .     A
C594   N598    1.362   .     A
C594   H596    1.081   .     S
N597   C599    1.363   .     A
N598   C600    1.362   .     A
C599   C601    1.406   .     A
C599   H627    1.081   .     S
C600   C602    1.406   .     A
C600   H628    1.082   .     S
C601   C603    1.409   .     A
C601   H629    1.082   .     S
C602   C604    1.410   .     A
C602   H630    1.082   .     S
C604   C183    1.509   1_556 S
N605   O607    1.301   .     A
N605   O606    1.301   .     A
N605   C435    1.443   1_655 S
N608   O610    1.302   .     A
N608   O609    1.302   .     A
N613   O614    1.301   .     A
N613   O615    1.301   .     A
N616   O618    1.301   .     A
N616   O617    1.301   .     A
N619   O620    1.301   .     A
N619   O831    1.301   1_545 S
O621   N829    1.301   .     S
N622   O624    1.301   .     A
N622   O833    1.301   .     S
O623   N832    1.301   1_545 S
O631   C635    1.284   .     A
O631   Zn643   1.992   .     S
O632   Zn644   1.992   .     S
O632   C636    1.286   .     A
O633   Zn644   1.999   .     S
O633   C635    1.281   .     A
O634   C636    1.284   .     A
O634   Zn643   1.999   .     S
C635   C653    1.433   .     S
C636   C654    1.440   .     S
O637   C641    1.275   .     A
O637   Zn643   1.967   .     S
O638   C642    1.277   .     A
O638   Zn644   1.967   .     S
O639   Zn644   1.980   .     S
O639   C641    1.283   .     A
O640   C642    1.283   .     A
O640   Zn643   1.980   .     S
C641   C645    1.424   .     S
C642   C646    1.426   .     S
Zn643  N668    2.001   .     S
Zn644  N667    2.001   .     S
C645   C786    1.354   1_455 S
C645   N815    1.443   1_455 S
C646   C715    1.354   .     S
C646   N748    1.445   .     S
C647   C659    1.394   .     A
C647   H681    1.084   .     S
C647   C649    1.376   .     A
C648   C660    1.392   .     A
C648   H682    1.084   .     S
C648   C650    1.376   .     A
C649   H651    1.084   .     S
C649   C653    1.394   .     A
C650   H652    1.084   .     S
C650   C654    1.397   .     A
C653   C655    1.411   .     A
C654   C656    1.411   .     A
C655   C657    1.399   .     A
C655   N683    1.438   .     S
C656   C658    1.397   .     A
C656   N686    1.432   .     S
C657   C659    1.407   .     A
C657   N689    1.438   .     S
C658   C660    1.407   .     A
C658   N692    1.439   .     S
C660   C449    1.436   1_565 S
C661   C663    1.406   .     A
C661   C673    1.409   .     A
C661   H695    1.082   .     S
C662   H696    1.082   .     S
C662   C674    1.410   .     A
C662   C664    1.406   .     A
C663   H665    1.081   .     S
C663   N667    1.363   .     A
C664   N668    1.362   .     A
C664   H666    1.081   .     S
N667   C669    1.363   .     A
N668   C670    1.362   .     A
C669   C671    1.406   .     A
C669   H697    1.081   .     S
C670   C672    1.406   .     A
C670   H698    1.082   .     S
C671   C673    1.409   .     A
C671   H699    1.082   .     S
C672   C674    1.410   .     A
C672   H700    1.082   .     S
C674   C253    1.509   1_556 S
N675   O677    1.301   .     A
N675   O676    1.301   .     A
N675   C715    1.443   .     S
N678   O680    1.302   .     A
N678   O679    1.302   .     A
N678   C786    1.445   1_455 S
N683   O684    1.301   .     A
N683   O685    1.301   .     A
N686   O688    1.301   .     A
N686   O687    1.301   .     A
N689   O690    1.301   .     A
O691   N479    1.301   1_565 S
N692   O694    1.301   .     A
N692   O483    1.301   1_565 S
O701   C705    1.284   .     A
O701   Zn713   1.992   .     S
O702   Zn714   1.992   .     S
O702   C706    1.286   .     A
O703   Zn714   1.999   .     S
O703   C705    1.281   .     A
O704   C706    1.284   .     A
O704   Zn713   1.999   .     S
C705   C723    1.433   .     S
C706   C724    1.440   .     S
O707   C711    1.275   .     A
O707   Zn713   1.967   .     S
O708   C712    1.277   .     A
O708   Zn714   1.967   .     S
O709   Zn714   1.980   .     S
O709   C711    1.283   .     A
O710   C712    1.283   .     A
O710   Zn713   1.980   .     S
C711   C715    1.424   .     S
C712   C716    1.426   .     S
Zn713  N738    2.001   .     S
Zn714  N737    2.001   .     S
C716   C785    1.354   .     S
C716   N818    1.445   .     S
C717   C729    1.394   .     A
C717   H751    1.084   .     S
C717   C719    1.376   .     A
C718   C730    1.392   .     A
C718   H752    1.084   .     S
C718   C720    1.376   .     A
C719   H721    1.084   .     S
C719   C723    1.394   .     A
C720   H722    1.084   .     S
C720   C724    1.397   .     A
C723   C725    1.411   .     A
C724   C726    1.411   .     A
C725   C727    1.399   .     A
C725   N753    1.438   .     S
C726   C728    1.397   .     A
C726   N756    1.432   .     S
C727   C729    1.407   .     A
C727   N759    1.438   .     S
C728   C730    1.407   .     A
C728   N762    1.439   .     S
C730   C519    1.436   1_565 S
C731   C733    1.406   .     A
C731   C743    1.409   .     A
C731   H765    1.082   .     S
C732   H766    1.082   .     S
C732   C744    1.410   .     A
C732   C734    1.406   .     A
C733   H735    1.081   .     S
C733   N737    1.363   .     A
C734   N738    1.362   .     A
C734   H736    1.081   .     S
N737   C739    1.363   .     A
N738   C740    1.362   .     A
C739   C741    1.406   .     A
C739   H767    1.081   .     S
C740   C742    1.406   .     A
C740   H768    1.082   .     S
C741   C743    1.409   .     A
C741   H769    1.082   .     S
C742   C744    1.410   .     A
C742   H770    1.082   .     S
C744   C323    1.509   1_556 S
N745   O747    1.301   .     A
N745   O746    1.301   .     A
N745   C785    1.443   .     S
N748   O750    1.302   .     A
N748   O749    1.302   .     A
N753   O754    1.301   .     A
N753   O755    1.301   .     A
N756   O758    1.301   .     A
N756   O757    1.301   .     A
N759   O760    1.301   .     A
O761   N549    1.301   1_565 S
N762   O764    1.301   .     A
N762   O553    1.301   1_565 S
O771   C775    1.284   .     A
O771   Zn783   1.992   .     S
O772   Zn784   1.992   .     S
O772   C776    1.286   .     A
O773   Zn784   1.999   .     S
O773   C775    1.281   .     A
O774   C776    1.284   .     A
O774   Zn783   1.999   .     S
C775   C793    1.433   .     S
C776   C794    1.440   .     S
O777   C781    1.275   .     A
O777   Zn783   1.967   .     S
O778   C782    1.277   .     A
O778   Zn784   1.967   .     S
O779   Zn784   1.980   .     S
O779   C781    1.283   .     A
O780   C782    1.283   .     A
O780   Zn783   1.980   .     S
C781   C785    1.424   .     S
C782   C786    1.426   .     S
Zn783  N808    2.001   .     S
Zn784  N807    2.001   .     S
C786   C645    1.354   1_655 S
C786   N678    1.445   1_655 S
C787   C799    1.394   .     A
C787   H821    1.084   .     S
C787   C789    1.376   .     A
C788   C800    1.392   .     A
C788   H822    1.084   .     S
C788   C790    1.376   .     A
C789   H791    1.084   .     S
C789   C793    1.394   .     A
C790   H792    1.084   .     S
C790   C794    1.397   .     A
C793   C795    1.411   .     A
C794   C796    1.411   .     A
C795   C797    1.399   .     A
C795   N823    1.438   .     S
C796   C798    1.397   .     A
C796   N826    1.432   .     S
C797   C799    1.407   .     A
C797   N829    1.438   .     S
C798   C800    1.407   .     A
C798   N832    1.439   .     S
C800   C589    1.436   1_565 S
C801   C803    1.406   .     A
C801   C813    1.409   .     A
C801   H835    1.082   .     S
C802   H836    1.082   .     S
C802   C814    1.410   .     A
C802   C804    1.406   .     A
C803   H805    1.081   .     S
C803   N807    1.363   .     A
C804   N808    1.362   .     A
C804   H806    1.081   .     S
N807   C809    1.363   .     A
N808   C810    1.362   .     A
C809   C811    1.406   .     A
C809   H837    1.081   .     S
C810   C812    1.406   .     A
C810   H838    1.082   .     S
C811   C813    1.409   .     A
C811   H839    1.082   .     S
C812   C814    1.410   .     A
C812   H840    1.082   .     S
C814   C393    1.509   1_556 S
N815   O817    1.301   .     A
N815   O816    1.301   .     A
N815   C645    1.443   1_655 S
N818   O820    1.302   .     A
N818   O819    1.302   .     A
N823   O824    1.301   .     A
N823   O825    1.301   .     A
N826   O828    1.301   .     A
N826   O827    1.301   .     A
N829   O830    1.301   .     A
O831   N619    1.301   1_565 S
N832   O834    1.301   .     A
N832   O623    1.301   1_565 S
