data_str_m3_o10_o17_pcu_sym.134
_audit_creation_date              2020-01-03
_audit_creation_method            'Materials Studio'
_symmetry_space_group_name_H-M    'P1'
_symmetry_Int_Tables_number       1
_symmetry_cell_setting            triclinic
loop_
_symmetry_equiv_pos_as_xyz
  x,y,z
_cell_length_a                    23.3529
_cell_length_b                    26.2308
_cell_length_c                    30.0244
_cell_angle_alpha                 91.1254
_cell_angle_beta                  84.9809
_cell_angle_gamma                 93.8090
loop_
_atom_site_label
_atom_site_type_symbol
_atom_site_fract_x
_atom_site_fract_y
_atom_site_fract_z
_atom_site_U_iso_or_equiv
_atom_site_adp_type
_atom_site_occupancy
C1     C     0.18182   0.26469   0.24871   0.00000  Uiso   1.00
C2     C     0.18501   0.21032   0.40551   0.00000  Uiso   1.00
C3     C     0.16613   0.16778   0.11616   0.00000  Uiso   1.00
C4     C     0.16721   0.16555   0.38384   0.00000  Uiso   1.00
C5     C     0.18601   0.21212   0.09319   0.00000  Uiso   1.00
C6     C     0.14733   0.12121   0.40681   0.00000  Uiso   1.00
C7     C     0.18707   0.21262   0.04604   0.00000  Uiso   1.00
C8     C     0.14626   0.12071   0.45396   0.00000  Uiso   1.00
C9     C     0.16609   0.16734   0.02355   0.00000  Uiso   1.00
C10    C     0.16725   0.16599   0.47645   0.00000  Uiso   1.00
C11    C     0.14328   0.12353   0.04825   0.00000  Uiso   1.00
C12    C     0.15151   0.06865   0.25129   0.00000  Uiso   1.00
C13    C     0.19005   0.20981   0.45175   0.00000  Uiso   1.00
C14    C     0.20981   0.25571   0.02047   0.00000  Uiso   1.00
C15    C     0.12353   0.07762   0.47953   0.00000  Uiso   1.00
C16    C     0.14321   0.07577   0.11973   0.00000  Uiso   1.00
C17    C     0.19012   0.25757   0.38027   0.00000  Uiso   1.00
C18    C     0.20984   0.25431   0.11926   0.00000  Uiso   1.00
C19    C     0.12350   0.07902   0.38073   0.00000  Uiso   1.00
C20    C     0.22570   0.30537   0.03996   0.00000  Uiso   1.00
C21    C     0.10765   0.02795   0.46005   0.00000  Uiso   1.00
C22    C     0.25437   0.29052   0.44994   0.00000  Uiso   1.00
C23    C     0.21614   0.25211   0.47397   0.00000  Uiso   1.00
C24    C     0.07897   0.04281   0.05006   0.00000  Uiso   1.00
C25    C     0.25240   0.00509   0.23144   0.00000  Uiso   1.00
C26    C     0.08093   0.32825   0.26855   0.00000  Uiso   1.00
C27    C     0.00897   0.11736   0.20896   0.00000  Uiso   1.00
C28    C     0.32436   0.21597   0.29104   0.00000  Uiso   1.00
C29    C     0.11719   0.08122   0.02603   0.00000  Uiso   1.00
C30    C     0.19010   0.31864   0.24571   0.00000  Uiso   1.00
C31    C     0.14323   0.01469   0.25428   0.00000  Uiso   1.00
C32    C     0.16684   0.16607   0.33614   0.00000  Uiso   1.00
C33    C     0.16649   0.16726   0.16386   0.00000  Uiso   1.00
C34    C     0.14833   0.12302   0.09449   0.00000  Uiso   1.00
H35    H     0.28243   0.30824   0.22208   0.00000  Uiso   1.00
H36    H     0.25379   0.02858   0.20096   0.00000  Uiso   1.00
H37    H     0.27128   0.02674   0.25940   0.00000  Uiso   1.00
H38    H     0.05090   0.02509   0.27791   0.00000  Uiso   1.00
H39    H     0.06205   0.30659   0.24059   0.00000  Uiso   1.00
H40    H     0.07953   0.30476   0.29904   0.00000  Uiso   1.00
N41    N     0.31678   0.15265   0.23783   0.00000  Uiso   1.00
N42    N     0.04838   0.01223   0.06877   0.00000  Uiso   1.00
N43    N     0.02940   0.08757   0.18462   0.00000  Uiso   1.00
N44    N     0.30394   0.24576   0.31538   0.00000  Uiso   1.00
N45    N     0.01656   0.18068   0.26217   0.00000  Uiso   1.00
N46    N     0.13954   0.03844   0.14001   0.00000  Uiso   1.00
N47    N     0.19378   0.29490   0.35999   0.00000  Uiso   1.00
N48    N     0.22917   0.28745   0.14035   0.00000  Uiso   1.00
N49    N     0.10417   0.04588   0.35964   0.00000  Uiso   1.00
N50    N     0.23850   0.01196   0.05454   0.00000  Uiso   1.00
N51    N     0.09485   0.32137   0.44546   0.00000  Uiso   1.00
N52    N     0.28495   0.32110   0.43123   0.00000  Uiso   1.00
O53    O     0.12975   0.24619   0.25299   0.00000  Uiso   1.00
O54    O     0.20358   0.08714   0.24702   0.00000  Uiso   1.00
O55    O     0.22613   0.23721   0.24519   0.00000  Uiso   1.00
O56    O     0.10720   0.09613   0.25482   0.00000  Uiso   1.00
O57    O     0.11847   0.17117   0.31998   0.00000  Uiso   1.00
O58    O     0.21486   0.16216   0.18003   0.00000  Uiso   1.00
O59    O     0.21485   0.16219   0.31218   0.00000  Uiso   1.00
O60    O     0.11848   0.17115   0.18783   0.00000  Uiso   1.00
Zn61   Zn    0.10231   0.17266   0.25521   0.00000  Uiso   1.00
Zn62   Zn    0.23102   0.16067   0.24479   0.00000  Uiso   1.00
C63    C     0.51516   0.26469   0.24871   0.00000  Uiso   1.00
C64    C     0.51834   0.21032   0.40551   0.00000  Uiso   1.00
C65    C     0.49946   0.16778   0.11616   0.00000  Uiso   1.00
C66    C     0.50054   0.16555   0.38384   0.00000  Uiso   1.00
C67    C     0.51934   0.21212   0.09319   0.00000  Uiso   1.00
C68    C     0.48067   0.12121   0.40681   0.00000  Uiso   1.00
C69    C     0.52041   0.21262   0.04604   0.00000  Uiso   1.00
C70    C     0.47960   0.12071   0.45396   0.00000  Uiso   1.00
C71    C     0.49942   0.16734   0.02355   0.00000  Uiso   1.00
C72    C     0.50058   0.16599   0.47645   0.00000  Uiso   1.00
C73    C     0.47661   0.12353   0.04825   0.00000  Uiso   1.00
C74    C     0.48484   0.06865   0.25129   0.00000  Uiso   1.00
C75    C     0.52339   0.20981   0.45175   0.00000  Uiso   1.00
C76    C     0.54314   0.25571   0.02047   0.00000  Uiso   1.00
C77    C     0.45686   0.07762   0.47953   0.00000  Uiso   1.00
C78    C     0.47654   0.07577   0.11973   0.00000  Uiso   1.00
C79    C     0.52345   0.25757   0.38027   0.00000  Uiso   1.00
C80    C     0.54317   0.25431   0.11926   0.00000  Uiso   1.00
C81    C     0.45684   0.07902   0.38073   0.00000  Uiso   1.00
C82    C     0.55903   0.30537   0.03996   0.00000  Uiso   1.00
C83    C     0.44098   0.02795   0.46005   0.00000  Uiso   1.00
C84    C     0.58770   0.29052   0.44994   0.00000  Uiso   1.00
C85    C     0.54947   0.25211   0.47397   0.00000  Uiso   1.00
C86    C     0.41230   0.04281   0.05006   0.00000  Uiso   1.00
C87    C     0.58573   0.00509   0.23144   0.00000  Uiso   1.00
C88    C     0.41426   0.32825   0.26855   0.00000  Uiso   1.00
C89    C     0.34230   0.11736   0.20896   0.00000  Uiso   1.00
C90    C     0.65769   0.21597   0.29104   0.00000  Uiso   1.00
C91    C     0.45053   0.08122   0.02603   0.00000  Uiso   1.00
C92    C     0.52343   0.31864   0.24571   0.00000  Uiso   1.00
C93    C     0.47657   0.01469   0.25428   0.00000  Uiso   1.00
C94    C     0.50018   0.16607   0.33614   0.00000  Uiso   1.00
C95    C     0.49982   0.16726   0.16386   0.00000  Uiso   1.00
C96    C     0.48166   0.12302   0.09449   0.00000  Uiso   1.00
H97    H     0.61577   0.30824   0.22208   0.00000  Uiso   1.00
H98    H     0.58713   0.02858   0.20096   0.00000  Uiso   1.00
H99    H     0.60462   0.02674   0.25940   0.00000  Uiso   1.00
H100   H     0.38423   0.02509   0.27791   0.00000  Uiso   1.00
H101   H     0.39539   0.30659   0.24059   0.00000  Uiso   1.00
H102   H     0.41287   0.30476   0.29904   0.00000  Uiso   1.00
N103   N     0.65011   0.15265   0.23783   0.00000  Uiso   1.00
N104   N     0.38171   0.01223   0.06877   0.00000  Uiso   1.00
N105   N     0.36273   0.08757   0.18462   0.00000  Uiso   1.00
N106   N     0.63727   0.24576   0.31538   0.00000  Uiso   1.00
N107   N     0.34989   0.18068   0.26217   0.00000  Uiso   1.00
N108   N     0.47287   0.03844   0.14001   0.00000  Uiso   1.00
N109   N     0.52712   0.29490   0.35999   0.00000  Uiso   1.00
N110   N     0.56251   0.28745   0.14035   0.00000  Uiso   1.00
N111   N     0.43751   0.04588   0.35964   0.00000  Uiso   1.00
N112   N     0.57183   0.01196   0.05454   0.00000  Uiso   1.00
N113   N     0.42818   0.32137   0.44546   0.00000  Uiso   1.00
N114   N     0.61829   0.32110   0.43123   0.00000  Uiso   1.00
O115   O     0.46308   0.24619   0.25299   0.00000  Uiso   1.00
O116   O     0.53692   0.08714   0.24702   0.00000  Uiso   1.00
O117   O     0.55946   0.23721   0.24519   0.00000  Uiso   1.00
O118   O     0.44054   0.09613   0.25482   0.00000  Uiso   1.00
O119   O     0.45181   0.17117   0.31998   0.00000  Uiso   1.00
O120   O     0.54819   0.16216   0.18003   0.00000  Uiso   1.00
O121   O     0.54819   0.16219   0.31218   0.00000  Uiso   1.00
O122   O     0.45181   0.17115   0.18783   0.00000  Uiso   1.00
Zn123  Zn    0.43565   0.17266   0.25521   0.00000  Uiso   1.00
Zn124  Zn    0.56435   0.16067   0.24479   0.00000  Uiso   1.00
C125   C     0.84849   0.26469   0.24871   0.00000  Uiso   1.00
C126   C     0.85167   0.21032   0.40551   0.00000  Uiso   1.00
C127   C     0.83279   0.16778   0.11616   0.00000  Uiso   1.00
C128   C     0.83387   0.16555   0.38384   0.00000  Uiso   1.00
C129   C     0.85267   0.21212   0.09319   0.00000  Uiso   1.00
C130   C     0.81400   0.12121   0.40681   0.00000  Uiso   1.00
C131   C     0.85374   0.21262   0.04604   0.00000  Uiso   1.00
C132   C     0.81293   0.12071   0.45396   0.00000  Uiso   1.00
C133   C     0.83275   0.16734   0.02355   0.00000  Uiso   1.00
C134   C     0.83391   0.16599   0.47645   0.00000  Uiso   1.00
C135   C     0.80995   0.12353   0.04825   0.00000  Uiso   1.00
C136   C     0.81818   0.06865   0.25129   0.00000  Uiso   1.00
C137   C     0.85672   0.20981   0.45175   0.00000  Uiso   1.00
C138   C     0.87647   0.25571   0.02047   0.00000  Uiso   1.00
C139   C     0.79020   0.07762   0.47953   0.00000  Uiso   1.00
C140   C     0.80987   0.07577   0.11973   0.00000  Uiso   1.00
C141   C     0.85678   0.25757   0.38027   0.00000  Uiso   1.00
C142   C     0.87651   0.25431   0.11926   0.00000  Uiso   1.00
C143   C     0.79017   0.07902   0.38073   0.00000  Uiso   1.00
C144   C     0.89236   0.30537   0.03996   0.00000  Uiso   1.00
C145   C     0.77431   0.02795   0.46005   0.00000  Uiso   1.00
C146   C     0.92103   0.29052   0.44994   0.00000  Uiso   1.00
C147   C     0.88281   0.25211   0.47397   0.00000  Uiso   1.00
C148   C     0.74563   0.04281   0.05006   0.00000  Uiso   1.00
C149   C     0.91907   0.00509   0.23144   0.00000  Uiso   1.00
C150   C     0.74760   0.32825   0.26855   0.00000  Uiso   1.00
C151   C     0.67564   0.11736   0.20896   0.00000  Uiso   1.00
C152   C     0.99103   0.21597   0.29104   0.00000  Uiso   1.00
C153   C     0.78386   0.08122   0.02603   0.00000  Uiso   1.00
C154   C     0.85677   0.31864   0.24571   0.00000  Uiso   1.00
C155   C     0.80990   0.01469   0.25428   0.00000  Uiso   1.00
C156   C     0.83351   0.16607   0.33614   0.00000  Uiso   1.00
C157   C     0.83316   0.16726   0.16386   0.00000  Uiso   1.00
C158   C     0.81499   0.12302   0.09449   0.00000  Uiso   1.00
H159   H     0.94910   0.30824   0.22208   0.00000  Uiso   1.00
H160   H     0.92046   0.02858   0.20096   0.00000  Uiso   1.00
H161   H     0.93795   0.02674   0.25940   0.00000  Uiso   1.00
H162   H     0.71756   0.02509   0.27791   0.00000  Uiso   1.00
H163   H     0.72872   0.30659   0.24059   0.00000  Uiso   1.00
H164   H     0.74620   0.30476   0.29904   0.00000  Uiso   1.00
N165   N     0.98344   0.15265   0.23783   0.00000  Uiso   1.00
N166   N     0.71504   0.01223   0.06877   0.00000  Uiso   1.00
N167   N     0.69606   0.08757   0.18462   0.00000  Uiso   1.00
N168   N     0.97060   0.24576   0.31538   0.00000  Uiso   1.00
N169   N     0.68322   0.18068   0.26217   0.00000  Uiso   1.00
N170   N     0.80620   0.03844   0.14001   0.00000  Uiso   1.00
N171   N     0.86045   0.29490   0.35999   0.00000  Uiso   1.00
N172   N     0.89584   0.28745   0.14035   0.00000  Uiso   1.00
N173   N     0.77084   0.04588   0.35964   0.00000  Uiso   1.00
N174   N     0.90516   0.01196   0.05454   0.00000  Uiso   1.00
N175   N     0.76152   0.32137   0.44546   0.00000  Uiso   1.00
N176   N     0.95162   0.32110   0.43123   0.00000  Uiso   1.00
O177   O     0.79642   0.24619   0.25299   0.00000  Uiso   1.00
O178   O     0.87025   0.08714   0.24702   0.00000  Uiso   1.00
O179   O     0.89280   0.23721   0.24519   0.00000  Uiso   1.00
O180   O     0.77387   0.09613   0.25482   0.00000  Uiso   1.00
O181   O     0.78514   0.17117   0.31998   0.00000  Uiso   1.00
O182   O     0.88153   0.16216   0.18003   0.00000  Uiso   1.00
O183   O     0.88152   0.16219   0.31218   0.00000  Uiso   1.00
O184   O     0.78515   0.17115   0.18783   0.00000  Uiso   1.00
Zn185  Zn    0.76898   0.17266   0.25521   0.00000  Uiso   1.00
Zn186  Zn    0.89769   0.16067   0.24479   0.00000  Uiso   1.00
C187   C     0.18182   0.59802   0.24871   0.00000  Uiso   1.00
C188   C     0.18501   0.54365   0.40551   0.00000  Uiso   1.00
C189   C     0.16613   0.50111   0.11616   0.00000  Uiso   1.00
C190   C     0.16721   0.49889   0.38384   0.00000  Uiso   1.00
C191   C     0.18601   0.54546   0.09319   0.00000  Uiso   1.00
C192   C     0.14733   0.45454   0.40681   0.00000  Uiso   1.00
C193   C     0.18707   0.54595   0.04604   0.00000  Uiso   1.00
C194   C     0.14626   0.45405   0.45396   0.00000  Uiso   1.00
C195   C     0.16609   0.50067   0.02355   0.00000  Uiso   1.00
C196   C     0.16725   0.49932   0.47645   0.00000  Uiso   1.00
C197   C     0.14328   0.45686   0.04825   0.00000  Uiso   1.00
C198   C     0.15151   0.40198   0.25129   0.00000  Uiso   1.00
C199   C     0.19005   0.54314   0.45175   0.00000  Uiso   1.00
C200   C     0.20981   0.58905   0.02047   0.00000  Uiso   1.00
C201   C     0.12353   0.41095   0.47953   0.00000  Uiso   1.00
C202   C     0.14321   0.40910   0.11973   0.00000  Uiso   1.00
C203   C     0.19012   0.59090   0.38027   0.00000  Uiso   1.00
C204   C     0.20984   0.58765   0.11926   0.00000  Uiso   1.00
C205   C     0.12350   0.41235   0.38073   0.00000  Uiso   1.00
C206   C     0.22570   0.63871   0.03996   0.00000  Uiso   1.00
C207   C     0.10765   0.36129   0.46005   0.00000  Uiso   1.00
C208   C     0.25437   0.62386   0.44994   0.00000  Uiso   1.00
C209   C     0.21614   0.58545   0.47397   0.00000  Uiso   1.00
C210   C     0.07897   0.37614   0.05006   0.00000  Uiso   1.00
C211   C     0.25240   0.33842   0.23144   0.00000  Uiso   1.00
C212   C     0.08093   0.66158   0.26855   0.00000  Uiso   1.00
C213   C     0.00897   0.45069   0.20896   0.00000  Uiso   1.00
C214   C     0.32436   0.54931   0.29104   0.00000  Uiso   1.00
C215   C     0.11719   0.41455   0.02603   0.00000  Uiso   1.00
C216   C     0.19010   0.65197   0.24571   0.00000  Uiso   1.00
C217   C     0.14323   0.34803   0.25428   0.00000  Uiso   1.00
C218   C     0.16684   0.49940   0.33614   0.00000  Uiso   1.00
C219   C     0.16649   0.50060   0.16386   0.00000  Uiso   1.00
C220   C     0.14833   0.45635   0.09449   0.00000  Uiso   1.00
H221   H     0.28243   0.64157   0.22208   0.00000  Uiso   1.00
H222   H     0.25379   0.36191   0.20096   0.00000  Uiso   1.00
H223   H     0.27128   0.36007   0.25940   0.00000  Uiso   1.00
H224   H     0.05090   0.35843   0.27791   0.00000  Uiso   1.00
H225   H     0.06205   0.63993   0.24059   0.00000  Uiso   1.00
H226   H     0.07953   0.63809   0.29904   0.00000  Uiso   1.00
N227   N     0.31678   0.48598   0.23783   0.00000  Uiso   1.00
N228   N     0.04838   0.34556   0.06877   0.00000  Uiso   1.00
N229   N     0.02940   0.42090   0.18462   0.00000  Uiso   1.00
N230   N     0.30394   0.57909   0.31538   0.00000  Uiso   1.00
N231   N     0.01656   0.51402   0.26217   0.00000  Uiso   1.00
N232   N     0.13954   0.37177   0.14001   0.00000  Uiso   1.00
N233   N     0.19378   0.62823   0.35999   0.00000  Uiso   1.00
N234   N     0.22917   0.62078   0.14035   0.00000  Uiso   1.00
N235   N     0.10417   0.37921   0.35964   0.00000  Uiso   1.00
N236   N     0.23850   0.34529   0.05454   0.00000  Uiso   1.00
N237   N     0.09485   0.65470   0.44546   0.00000  Uiso   1.00
N238   N     0.28495   0.65444   0.43123   0.00000  Uiso   1.00
O239   O     0.12975   0.57952   0.25299   0.00000  Uiso   1.00
O240   O     0.20358   0.42048   0.24702   0.00000  Uiso   1.00
O241   O     0.22613   0.57054   0.24519   0.00000  Uiso   1.00
O242   O     0.10720   0.42946   0.25482   0.00000  Uiso   1.00
O243   O     0.11847   0.50450   0.31998   0.00000  Uiso   1.00
O244   O     0.21486   0.49550   0.18003   0.00000  Uiso   1.00
O245   O     0.21485   0.49552   0.31218   0.00000  Uiso   1.00
O246   O     0.11848   0.50448   0.18783   0.00000  Uiso   1.00
Zn247  Zn    0.10231   0.50600   0.25521   0.00000  Uiso   1.00
Zn248  Zn    0.23102   0.49400   0.24479   0.00000  Uiso   1.00
C249   C     0.51516   0.59802   0.24871   0.00000  Uiso   1.00
C250   C     0.51834   0.54365   0.40551   0.00000  Uiso   1.00
C251   C     0.49946   0.50111   0.11616   0.00000  Uiso   1.00
C252   C     0.50054   0.49889   0.38384   0.00000  Uiso   1.00
C253   C     0.51934   0.54546   0.09319   0.00000  Uiso   1.00
C254   C     0.48067   0.45454   0.40681   0.00000  Uiso   1.00
C255   C     0.52041   0.54595   0.04604   0.00000  Uiso   1.00
C256   C     0.47960   0.45405   0.45396   0.00000  Uiso   1.00
C257   C     0.49942   0.50067   0.02355   0.00000  Uiso   1.00
C258   C     0.50058   0.49932   0.47645   0.00000  Uiso   1.00
C259   C     0.47661   0.45686   0.04825   0.00000  Uiso   1.00
C260   C     0.48484   0.40198   0.25129   0.00000  Uiso   1.00
C261   C     0.52339   0.54314   0.45175   0.00000  Uiso   1.00
C262   C     0.54314   0.58905   0.02047   0.00000  Uiso   1.00
C263   C     0.45686   0.41095   0.47953   0.00000  Uiso   1.00
C264   C     0.47654   0.40910   0.11973   0.00000  Uiso   1.00
C265   C     0.52345   0.59090   0.38027   0.00000  Uiso   1.00
C266   C     0.54317   0.58765   0.11926   0.00000  Uiso   1.00
C267   C     0.45684   0.41235   0.38073   0.00000  Uiso   1.00
C268   C     0.55903   0.63871   0.03996   0.00000  Uiso   1.00
C269   C     0.44098   0.36129   0.46005   0.00000  Uiso   1.00
C270   C     0.58770   0.62386   0.44994   0.00000  Uiso   1.00
C271   C     0.54947   0.58545   0.47397   0.00000  Uiso   1.00
C272   C     0.41230   0.37614   0.05006   0.00000  Uiso   1.00
C273   C     0.58573   0.33842   0.23144   0.00000  Uiso   1.00
C274   C     0.41426   0.66158   0.26855   0.00000  Uiso   1.00
C275   C     0.34230   0.45069   0.20896   0.00000  Uiso   1.00
C276   C     0.65769   0.54931   0.29104   0.00000  Uiso   1.00
C277   C     0.45053   0.41455   0.02603   0.00000  Uiso   1.00
C278   C     0.52343   0.65197   0.24571   0.00000  Uiso   1.00
C279   C     0.47657   0.34803   0.25428   0.00000  Uiso   1.00
C280   C     0.50018   0.49940   0.33614   0.00000  Uiso   1.00
C281   C     0.49982   0.50060   0.16386   0.00000  Uiso   1.00
C282   C     0.48166   0.45635   0.09449   0.00000  Uiso   1.00
H283   H     0.61577   0.64157   0.22208   0.00000  Uiso   1.00
H284   H     0.58713   0.36191   0.20096   0.00000  Uiso   1.00
H285   H     0.60462   0.36007   0.25940   0.00000  Uiso   1.00
H286   H     0.38423   0.35843   0.27791   0.00000  Uiso   1.00
H287   H     0.39539   0.63993   0.24059   0.00000  Uiso   1.00
H288   H     0.41287   0.63809   0.29904   0.00000  Uiso   1.00
N289   N     0.65011   0.48598   0.23783   0.00000  Uiso   1.00
N290   N     0.38171   0.34556   0.06877   0.00000  Uiso   1.00
N291   N     0.36273   0.42090   0.18462   0.00000  Uiso   1.00
N292   N     0.63727   0.57909   0.31538   0.00000  Uiso   1.00
N293   N     0.34989   0.51402   0.26217   0.00000  Uiso   1.00
N294   N     0.47287   0.37177   0.14001   0.00000  Uiso   1.00
N295   N     0.52712   0.62823   0.35999   0.00000  Uiso   1.00
N296   N     0.56251   0.62078   0.14035   0.00000  Uiso   1.00
N297   N     0.43751   0.37921   0.35964   0.00000  Uiso   1.00
N298   N     0.57183   0.34529   0.05454   0.00000  Uiso   1.00
N299   N     0.42818   0.65470   0.44546   0.00000  Uiso   1.00
N300   N     0.61829   0.65444   0.43123   0.00000  Uiso   1.00
O301   O     0.46308   0.57952   0.25299   0.00000  Uiso   1.00
O302   O     0.53692   0.42048   0.24702   0.00000  Uiso   1.00
O303   O     0.55946   0.57054   0.24519   0.00000  Uiso   1.00
O304   O     0.44054   0.42946   0.25482   0.00000  Uiso   1.00
O305   O     0.45181   0.50450   0.31998   0.00000  Uiso   1.00
O306   O     0.54819   0.49550   0.18003   0.00000  Uiso   1.00
O307   O     0.54819   0.49552   0.31218   0.00000  Uiso   1.00
O308   O     0.45181   0.50448   0.18783   0.00000  Uiso   1.00
Zn309  Zn    0.43565   0.50600   0.25521   0.00000  Uiso   1.00
Zn310  Zn    0.56435   0.49400   0.24479   0.00000  Uiso   1.00
C311   C     0.84849   0.59802   0.24871   0.00000  Uiso   1.00
C312   C     0.85167   0.54365   0.40551   0.00000  Uiso   1.00
C313   C     0.83279   0.50111   0.11616   0.00000  Uiso   1.00
C314   C     0.83387   0.49889   0.38384   0.00000  Uiso   1.00
C315   C     0.85267   0.54546   0.09319   0.00000  Uiso   1.00
C316   C     0.81400   0.45454   0.40681   0.00000  Uiso   1.00
C317   C     0.85374   0.54595   0.04604   0.00000  Uiso   1.00
C318   C     0.81293   0.45405   0.45396   0.00000  Uiso   1.00
C319   C     0.83275   0.50067   0.02355   0.00000  Uiso   1.00
C320   C     0.83391   0.49932   0.47645   0.00000  Uiso   1.00
C321   C     0.80995   0.45686   0.04825   0.00000  Uiso   1.00
C322   C     0.81818   0.40198   0.25129   0.00000  Uiso   1.00
C323   C     0.85672   0.54314   0.45175   0.00000  Uiso   1.00
C324   C     0.87647   0.58905   0.02047   0.00000  Uiso   1.00
C325   C     0.79020   0.41095   0.47953   0.00000  Uiso   1.00
C326   C     0.80987   0.40910   0.11973   0.00000  Uiso   1.00
C327   C     0.85678   0.59090   0.38027   0.00000  Uiso   1.00
C328   C     0.87651   0.58765   0.11926   0.00000  Uiso   1.00
C329   C     0.79017   0.41235   0.38073   0.00000  Uiso   1.00
C330   C     0.89236   0.63871   0.03996   0.00000  Uiso   1.00
C331   C     0.77431   0.36129   0.46005   0.00000  Uiso   1.00
C332   C     0.92103   0.62386   0.44994   0.00000  Uiso   1.00
C333   C     0.88281   0.58545   0.47397   0.00000  Uiso   1.00
C334   C     0.74563   0.37614   0.05006   0.00000  Uiso   1.00
C335   C     0.91907   0.33842   0.23144   0.00000  Uiso   1.00
C336   C     0.74760   0.66158   0.26855   0.00000  Uiso   1.00
C337   C     0.67564   0.45069   0.20896   0.00000  Uiso   1.00
C338   C     0.99103   0.54931   0.29104   0.00000  Uiso   1.00
C339   C     0.78386   0.41455   0.02603   0.00000  Uiso   1.00
C340   C     0.85677   0.65197   0.24571   0.00000  Uiso   1.00
C341   C     0.80990   0.34803   0.25428   0.00000  Uiso   1.00
C342   C     0.83351   0.49940   0.33614   0.00000  Uiso   1.00
C343   C     0.83316   0.50060   0.16386   0.00000  Uiso   1.00
C344   C     0.81499   0.45635   0.09449   0.00000  Uiso   1.00
H345   H     0.94910   0.64157   0.22208   0.00000  Uiso   1.00
H346   H     0.92046   0.36191   0.20096   0.00000  Uiso   1.00
H347   H     0.93795   0.36007   0.25940   0.00000  Uiso   1.00
H348   H     0.71756   0.35843   0.27791   0.00000  Uiso   1.00
H349   H     0.72872   0.63993   0.24059   0.00000  Uiso   1.00
H350   H     0.74620   0.63809   0.29904   0.00000  Uiso   1.00
N351   N     0.98344   0.48598   0.23783   0.00000  Uiso   1.00
N352   N     0.71504   0.34556   0.06877   0.00000  Uiso   1.00
N353   N     0.69606   0.42090   0.18462   0.00000  Uiso   1.00
N354   N     0.97060   0.57909   0.31538   0.00000  Uiso   1.00
N355   N     0.68322   0.51402   0.26217   0.00000  Uiso   1.00
N356   N     0.80620   0.37177   0.14001   0.00000  Uiso   1.00
N357   N     0.86045   0.62823   0.35999   0.00000  Uiso   1.00
N358   N     0.89584   0.62078   0.14035   0.00000  Uiso   1.00
N359   N     0.77084   0.37921   0.35964   0.00000  Uiso   1.00
N360   N     0.90516   0.34529   0.05454   0.00000  Uiso   1.00
N361   N     0.76152   0.65470   0.44546   0.00000  Uiso   1.00
N362   N     0.95162   0.65444   0.43123   0.00000  Uiso   1.00
O363   O     0.79642   0.57952   0.25299   0.00000  Uiso   1.00
O364   O     0.87025   0.42048   0.24702   0.00000  Uiso   1.00
O365   O     0.89280   0.57054   0.24519   0.00000  Uiso   1.00
O366   O     0.77387   0.42946   0.25482   0.00000  Uiso   1.00
O367   O     0.78514   0.50450   0.31998   0.00000  Uiso   1.00
O368   O     0.88153   0.49550   0.18003   0.00000  Uiso   1.00
O369   O     0.88152   0.49552   0.31218   0.00000  Uiso   1.00
O370   O     0.78515   0.50448   0.18783   0.00000  Uiso   1.00
Zn371  Zn    0.76898   0.50600   0.25521   0.00000  Uiso   1.00
Zn372  Zn    0.89769   0.49400   0.24479   0.00000  Uiso   1.00
C373   C     0.18182   0.93135   0.24871   0.00000  Uiso   1.00
C374   C     0.18501   0.87698   0.40551   0.00000  Uiso   1.00
C375   C     0.16613   0.83445   0.11616   0.00000  Uiso   1.00
C376   C     0.16721   0.83222   0.38384   0.00000  Uiso   1.00
C377   C     0.18601   0.87879   0.09319   0.00000  Uiso   1.00
C378   C     0.14733   0.78787   0.40681   0.00000  Uiso   1.00
C379   C     0.18707   0.87929   0.04604   0.00000  Uiso   1.00
C380   C     0.14626   0.78738   0.45396   0.00000  Uiso   1.00
C381   C     0.16609   0.83401   0.02355   0.00000  Uiso   1.00
C382   C     0.16725   0.83266   0.47645   0.00000  Uiso   1.00
C383   C     0.14328   0.79019   0.04825   0.00000  Uiso   1.00
C384   C     0.15151   0.73531   0.25129   0.00000  Uiso   1.00
C385   C     0.19005   0.87647   0.45175   0.00000  Uiso   1.00
C386   C     0.20981   0.92238   0.02047   0.00000  Uiso   1.00
C387   C     0.12353   0.74428   0.47953   0.00000  Uiso   1.00
C388   C     0.14321   0.74243   0.11973   0.00000  Uiso   1.00
C389   C     0.19012   0.92423   0.38027   0.00000  Uiso   1.00
C390   C     0.20984   0.92098   0.11926   0.00000  Uiso   1.00
C391   C     0.12350   0.74568   0.38073   0.00000  Uiso   1.00
C392   C     0.22570   0.97204   0.03996   0.00000  Uiso   1.00
C393   C     0.10765   0.69462   0.46005   0.00000  Uiso   1.00
C394   C     0.25437   0.95719   0.44994   0.00000  Uiso   1.00
C395   C     0.21614   0.91878   0.47397   0.00000  Uiso   1.00
C396   C     0.07897   0.70947   0.05006   0.00000  Uiso   1.00
C397   C     0.25240   0.67175   0.23144   0.00000  Uiso   1.00
C398   C     0.08093   0.99491   0.26855   0.00000  Uiso   1.00
C399   C     0.00897   0.78402   0.20896   0.00000  Uiso   1.00
C400   C     0.32436   0.88264   0.29104   0.00000  Uiso   1.00
C401   C     0.11719   0.74789   0.02603   0.00000  Uiso   1.00
C402   C     0.19010   0.98531   0.24571   0.00000  Uiso   1.00
C403   C     0.14323   0.68136   0.25428   0.00000  Uiso   1.00
C404   C     0.16684   0.83274   0.33614   0.00000  Uiso   1.00
C405   C     0.16649   0.83393   0.16386   0.00000  Uiso   1.00
C406   C     0.14833   0.78968   0.09449   0.00000  Uiso   1.00
H407   H     0.28243   0.97490   0.22208   0.00000  Uiso   1.00
H408   H     0.25379   0.69524   0.20096   0.00000  Uiso   1.00
H409   H     0.27128   0.69341   0.25940   0.00000  Uiso   1.00
H410   H     0.05090   0.69176   0.27791   0.00000  Uiso   1.00
H411   H     0.06205   0.97326   0.24059   0.00000  Uiso   1.00
H412   H     0.07953   0.97142   0.29904   0.00000  Uiso   1.00
N413   N     0.31678   0.81932   0.23783   0.00000  Uiso   1.00
N414   N     0.04838   0.67889   0.06877   0.00000  Uiso   1.00
N415   N     0.02940   0.75424   0.18462   0.00000  Uiso   1.00
N416   N     0.30394   0.91243   0.31538   0.00000  Uiso   1.00
N417   N     0.01656   0.84735   0.26217   0.00000  Uiso   1.00
N418   N     0.13954   0.70510   0.14001   0.00000  Uiso   1.00
N419   N     0.19378   0.96157   0.35999   0.00000  Uiso   1.00
N420   N     0.22917   0.95411   0.14035   0.00000  Uiso   1.00
N421   N     0.10417   0.71255   0.35964   0.00000  Uiso   1.00
N422   N     0.23850   0.67862   0.05454   0.00000  Uiso   1.00
N423   N     0.09485   0.98804   0.44546   0.00000  Uiso   1.00
N424   N     0.28495   0.98777   0.43123   0.00000  Uiso   1.00
O425   O     0.12975   0.91286   0.25299   0.00000  Uiso   1.00
O426   O     0.20358   0.75381   0.24702   0.00000  Uiso   1.00
O427   O     0.22613   0.90387   0.24519   0.00000  Uiso   1.00
O428   O     0.10720   0.76279   0.25482   0.00000  Uiso   1.00
O429   O     0.11847   0.83784   0.31998   0.00000  Uiso   1.00
O430   O     0.21486   0.82883   0.18003   0.00000  Uiso   1.00
O431   O     0.21485   0.82885   0.31218   0.00000  Uiso   1.00
O432   O     0.11848   0.83781   0.18783   0.00000  Uiso   1.00
Zn433  Zn    0.10231   0.83933   0.25521   0.00000  Uiso   1.00
Zn434  Zn    0.23102   0.82734   0.24479   0.00000  Uiso   1.00
C435   C     0.51516   0.93135   0.24871   0.00000  Uiso   1.00
C436   C     0.51834   0.87698   0.40551   0.00000  Uiso   1.00
C437   C     0.49946   0.83445   0.11616   0.00000  Uiso   1.00
C438   C     0.50054   0.83222   0.38384   0.00000  Uiso   1.00
C439   C     0.51934   0.87879   0.09319   0.00000  Uiso   1.00
C440   C     0.48067   0.78787   0.40681   0.00000  Uiso   1.00
C441   C     0.52041   0.87929   0.04604   0.00000  Uiso   1.00
C442   C     0.47960   0.78738   0.45396   0.00000  Uiso   1.00
C443   C     0.49942   0.83401   0.02355   0.00000  Uiso   1.00
C444   C     0.50058   0.83266   0.47645   0.00000  Uiso   1.00
C445   C     0.47661   0.79019   0.04825   0.00000  Uiso   1.00
C446   C     0.48484   0.73531   0.25129   0.00000  Uiso   1.00
C447   C     0.52339   0.87647   0.45175   0.00000  Uiso   1.00
C448   C     0.54314   0.92238   0.02047   0.00000  Uiso   1.00
C449   C     0.45686   0.74428   0.47953   0.00000  Uiso   1.00
C450   C     0.47654   0.74243   0.11973   0.00000  Uiso   1.00
C451   C     0.52345   0.92423   0.38027   0.00000  Uiso   1.00
C452   C     0.54317   0.92098   0.11926   0.00000  Uiso   1.00
C453   C     0.45684   0.74568   0.38073   0.00000  Uiso   1.00
C454   C     0.55903   0.97204   0.03996   0.00000  Uiso   1.00
C455   C     0.44098   0.69462   0.46005   0.00000  Uiso   1.00
C456   C     0.58770   0.95719   0.44994   0.00000  Uiso   1.00
C457   C     0.54947   0.91878   0.47397   0.00000  Uiso   1.00
C458   C     0.41230   0.70947   0.05006   0.00000  Uiso   1.00
C459   C     0.58573   0.67175   0.23144   0.00000  Uiso   1.00
C460   C     0.41426   0.99491   0.26855   0.00000  Uiso   1.00
C461   C     0.34230   0.78402   0.20896   0.00000  Uiso   1.00
C462   C     0.65769   0.88264   0.29104   0.00000  Uiso   1.00
C463   C     0.45053   0.74789   0.02603   0.00000  Uiso   1.00
C464   C     0.52343   0.98531   0.24571   0.00000  Uiso   1.00
C465   C     0.47657   0.68136   0.25428   0.00000  Uiso   1.00
C466   C     0.50018   0.83274   0.33614   0.00000  Uiso   1.00
C467   C     0.49982   0.83393   0.16386   0.00000  Uiso   1.00
C468   C     0.48166   0.78968   0.09449   0.00000  Uiso   1.00
H469   H     0.61577   0.97490   0.22208   0.00000  Uiso   1.00
H470   H     0.58713   0.69524   0.20096   0.00000  Uiso   1.00
H471   H     0.60462   0.69341   0.25940   0.00000  Uiso   1.00
H472   H     0.38423   0.69176   0.27791   0.00000  Uiso   1.00
H473   H     0.39539   0.97326   0.24059   0.00000  Uiso   1.00
H474   H     0.41287   0.97142   0.29904   0.00000  Uiso   1.00
N475   N     0.65011   0.81932   0.23783   0.00000  Uiso   1.00
N476   N     0.38171   0.67889   0.06877   0.00000  Uiso   1.00
N477   N     0.36273   0.75424   0.18462   0.00000  Uiso   1.00
N478   N     0.63727   0.91243   0.31538   0.00000  Uiso   1.00
N479   N     0.34989   0.84735   0.26217   0.00000  Uiso   1.00
N480   N     0.47287   0.70510   0.14001   0.00000  Uiso   1.00
N481   N     0.52712   0.96157   0.35999   0.00000  Uiso   1.00
N482   N     0.56251   0.95411   0.14035   0.00000  Uiso   1.00
N483   N     0.43751   0.71255   0.35964   0.00000  Uiso   1.00
N484   N     0.57183   0.67862   0.05454   0.00000  Uiso   1.00
N485   N     0.42818   0.98804   0.44546   0.00000  Uiso   1.00
N486   N     0.61829   0.98777   0.43123   0.00000  Uiso   1.00
O487   O     0.46308   0.91286   0.25299   0.00000  Uiso   1.00
O488   O     0.53692   0.75381   0.24702   0.00000  Uiso   1.00
O489   O     0.55946   0.90387   0.24519   0.00000  Uiso   1.00
O490   O     0.44054   0.76279   0.25482   0.00000  Uiso   1.00
O491   O     0.45181   0.83784   0.31998   0.00000  Uiso   1.00
O492   O     0.54819   0.82883   0.18003   0.00000  Uiso   1.00
O493   O     0.54819   0.82885   0.31218   0.00000  Uiso   1.00
O494   O     0.45181   0.83781   0.18783   0.00000  Uiso   1.00
Zn495  Zn    0.43565   0.83933   0.25521   0.00000  Uiso   1.00
Zn496  Zn    0.56435   0.82734   0.24479   0.00000  Uiso   1.00
C497   C     0.84849   0.93135   0.24871   0.00000  Uiso   1.00
C498   C     0.85167   0.87698   0.40551   0.00000  Uiso   1.00
C499   C     0.83279   0.83445   0.11616   0.00000  Uiso   1.00
C500   C     0.83387   0.83222   0.38384   0.00000  Uiso   1.00
C501   C     0.85267   0.87879   0.09319   0.00000  Uiso   1.00
C502   C     0.81400   0.78787   0.40681   0.00000  Uiso   1.00
C503   C     0.85374   0.87929   0.04604   0.00000  Uiso   1.00
C504   C     0.81293   0.78738   0.45396   0.00000  Uiso   1.00
C505   C     0.83275   0.83401   0.02355   0.00000  Uiso   1.00
C506   C     0.83391   0.83266   0.47645   0.00000  Uiso   1.00
C507   C     0.80995   0.79019   0.04825   0.00000  Uiso   1.00
C508   C     0.81818   0.73531   0.25129   0.00000  Uiso   1.00
C509   C     0.85672   0.87647   0.45175   0.00000  Uiso   1.00
C510   C     0.87647   0.92238   0.02047   0.00000  Uiso   1.00
C511   C     0.79020   0.74428   0.47953   0.00000  Uiso   1.00
C512   C     0.80987   0.74243   0.11973   0.00000  Uiso   1.00
C513   C     0.85678   0.92423   0.38027   0.00000  Uiso   1.00
C514   C     0.87651   0.92098   0.11926   0.00000  Uiso   1.00
C515   C     0.79017   0.74568   0.38073   0.00000  Uiso   1.00
C516   C     0.89236   0.97204   0.03996   0.00000  Uiso   1.00
C517   C     0.77431   0.69462   0.46005   0.00000  Uiso   1.00
C518   C     0.92103   0.95719   0.44994   0.00000  Uiso   1.00
C519   C     0.88281   0.91878   0.47397   0.00000  Uiso   1.00
C520   C     0.74563   0.70947   0.05006   0.00000  Uiso   1.00
C521   C     0.91907   0.67175   0.23144   0.00000  Uiso   1.00
C522   C     0.74760   0.99491   0.26855   0.00000  Uiso   1.00
C523   C     0.67564   0.78402   0.20896   0.00000  Uiso   1.00
C524   C     0.99103   0.88264   0.29104   0.00000  Uiso   1.00
C525   C     0.78386   0.74789   0.02603   0.00000  Uiso   1.00
C526   C     0.85677   0.98531   0.24571   0.00000  Uiso   1.00
C527   C     0.80990   0.68136   0.25428   0.00000  Uiso   1.00
C528   C     0.83351   0.83274   0.33614   0.00000  Uiso   1.00
C529   C     0.83316   0.83393   0.16386   0.00000  Uiso   1.00
C530   C     0.81499   0.78968   0.09449   0.00000  Uiso   1.00
H531   H     0.94910   0.97490   0.22208   0.00000  Uiso   1.00
H532   H     0.92046   0.69524   0.20096   0.00000  Uiso   1.00
H533   H     0.93795   0.69341   0.25940   0.00000  Uiso   1.00
H534   H     0.71756   0.69176   0.27791   0.00000  Uiso   1.00
H535   H     0.72872   0.97326   0.24059   0.00000  Uiso   1.00
H536   H     0.74620   0.97142   0.29904   0.00000  Uiso   1.00
N537   N     0.98344   0.81932   0.23783   0.00000  Uiso   1.00
N538   N     0.71504   0.67889   0.06877   0.00000  Uiso   1.00
N539   N     0.69606   0.75424   0.18462   0.00000  Uiso   1.00
N540   N     0.97060   0.91243   0.31538   0.00000  Uiso   1.00
N541   N     0.68322   0.84735   0.26217   0.00000  Uiso   1.00
N542   N     0.80620   0.70510   0.14001   0.00000  Uiso   1.00
N543   N     0.86045   0.96157   0.35999   0.00000  Uiso   1.00
N544   N     0.89584   0.95411   0.14035   0.00000  Uiso   1.00
N545   N     0.77084   0.71255   0.35964   0.00000  Uiso   1.00
N546   N     0.90516   0.67862   0.05454   0.00000  Uiso   1.00
N547   N     0.76152   0.98804   0.44546   0.00000  Uiso   1.00
N548   N     0.95162   0.98777   0.43123   0.00000  Uiso   1.00
O549   O     0.79642   0.91286   0.25299   0.00000  Uiso   1.00
O550   O     0.87025   0.75381   0.24702   0.00000  Uiso   1.00
O551   O     0.89280   0.90387   0.24519   0.00000  Uiso   1.00
O552   O     0.77387   0.76279   0.25482   0.00000  Uiso   1.00
O553   O     0.78514   0.83784   0.31998   0.00000  Uiso   1.00
O554   O     0.88153   0.82883   0.18003   0.00000  Uiso   1.00
O555   O     0.88152   0.82885   0.31218   0.00000  Uiso   1.00
O556   O     0.78515   0.83781   0.18783   0.00000  Uiso   1.00
Zn557  Zn    0.76898   0.83933   0.25521   0.00000  Uiso   1.00
Zn558  Zn    0.89769   0.82734   0.24479   0.00000  Uiso   1.00
C559   C     0.18182   0.26469   0.74871   0.00000  Uiso   1.00
C560   C     0.18501   0.21032   0.90551   0.00000  Uiso   1.00
C561   C     0.16613   0.16778   0.61616   0.00000  Uiso   1.00
C562   C     0.16721   0.16555   0.88384   0.00000  Uiso   1.00
C563   C     0.18601   0.21212   0.59319   0.00000  Uiso   1.00
C564   C     0.14733   0.12121   0.90681   0.00000  Uiso   1.00
C565   C     0.18707   0.21262   0.54604   0.00000  Uiso   1.00
C566   C     0.14626   0.12071   0.95396   0.00000  Uiso   1.00
C567   C     0.16609   0.16734   0.52355   0.00000  Uiso   1.00
C568   C     0.16725   0.16599   0.97645   0.00000  Uiso   1.00
C569   C     0.14328   0.12353   0.54825   0.00000  Uiso   1.00
C570   C     0.15151   0.06865   0.75129   0.00000  Uiso   1.00
C571   C     0.19005   0.20981   0.95175   0.00000  Uiso   1.00
C572   C     0.20981   0.25571   0.52047   0.00000  Uiso   1.00
C573   C     0.12353   0.07762   0.97953   0.00000  Uiso   1.00
C574   C     0.14321   0.07577   0.61973   0.00000  Uiso   1.00
C575   C     0.19012   0.25757   0.88027   0.00000  Uiso   1.00
C576   C     0.20984   0.25431   0.61926   0.00000  Uiso   1.00
C577   C     0.12350   0.07902   0.88073   0.00000  Uiso   1.00
C578   C     0.22570   0.30537   0.53996   0.00000  Uiso   1.00
C579   C     0.10765   0.02795   0.96005   0.00000  Uiso   1.00
C580   C     0.25437   0.29052   0.94994   0.00000  Uiso   1.00
C581   C     0.21614   0.25211   0.97397   0.00000  Uiso   1.00
C582   C     0.07897   0.04281   0.55006   0.00000  Uiso   1.00
C583   C     0.25240   0.00509   0.73144   0.00000  Uiso   1.00
C584   C     0.08093   0.32825   0.76855   0.00000  Uiso   1.00
C585   C     0.00897   0.11736   0.70896   0.00000  Uiso   1.00
C586   C     0.32436   0.21597   0.79104   0.00000  Uiso   1.00
C587   C     0.11719   0.08122   0.52603   0.00000  Uiso   1.00
C588   C     0.19010   0.31864   0.74571   0.00000  Uiso   1.00
C589   C     0.14323   0.01469   0.75428   0.00000  Uiso   1.00
C590   C     0.16684   0.16607   0.83614   0.00000  Uiso   1.00
C591   C     0.16649   0.16726   0.66386   0.00000  Uiso   1.00
C592   C     0.14833   0.12302   0.59449   0.00000  Uiso   1.00
H593   H     0.28243   0.30824   0.72208   0.00000  Uiso   1.00
H594   H     0.25379   0.02858   0.70096   0.00000  Uiso   1.00
H595   H     0.27128   0.02674   0.75940   0.00000  Uiso   1.00
H596   H     0.05090   0.02509   0.77791   0.00000  Uiso   1.00
H597   H     0.06205   0.30659   0.74059   0.00000  Uiso   1.00
H598   H     0.07953   0.30476   0.79904   0.00000  Uiso   1.00
N599   N     0.31678   0.15265   0.73783   0.00000  Uiso   1.00
N600   N     0.04838   0.01223   0.56877   0.00000  Uiso   1.00
N601   N     0.02940   0.08757   0.68462   0.00000  Uiso   1.00
N602   N     0.30394   0.24576   0.81538   0.00000  Uiso   1.00
N603   N     0.01656   0.18068   0.76217   0.00000  Uiso   1.00
N604   N     0.13954   0.03844   0.64001   0.00000  Uiso   1.00
N605   N     0.19378   0.29490   0.85999   0.00000  Uiso   1.00
N606   N     0.22917   0.28745   0.64035   0.00000  Uiso   1.00
N607   N     0.10417   0.04588   0.85964   0.00000  Uiso   1.00
N608   N     0.23850   0.01196   0.55454   0.00000  Uiso   1.00
N609   N     0.09485   0.32137   0.94546   0.00000  Uiso   1.00
N610   N     0.28495   0.32110   0.93123   0.00000  Uiso   1.00
O611   O     0.12975   0.24619   0.75299   0.00000  Uiso   1.00
O612   O     0.20358   0.08714   0.74702   0.00000  Uiso   1.00
O613   O     0.22613   0.23721   0.74519   0.00000  Uiso   1.00
O614   O     0.10720   0.09613   0.75482   0.00000  Uiso   1.00
O615   O     0.11847   0.17117   0.81998   0.00000  Uiso   1.00
O616   O     0.21486   0.16216   0.68003   0.00000  Uiso   1.00
O617   O     0.21485   0.16219   0.81218   0.00000  Uiso   1.00
O618   O     0.11848   0.17115   0.68783   0.00000  Uiso   1.00
Zn619  Zn    0.10231   0.17266   0.75521   0.00000  Uiso   1.00
Zn620  Zn    0.23102   0.16067   0.74479   0.00000  Uiso   1.00
C621   C     0.51516   0.26469   0.74871   0.00000  Uiso   1.00
C622   C     0.51834   0.21032   0.90551   0.00000  Uiso   1.00
C623   C     0.49946   0.16778   0.61616   0.00000  Uiso   1.00
C624   C     0.50054   0.16555   0.88384   0.00000  Uiso   1.00
C625   C     0.51934   0.21212   0.59319   0.00000  Uiso   1.00
C626   C     0.48067   0.12121   0.90681   0.00000  Uiso   1.00
C627   C     0.52041   0.21262   0.54604   0.00000  Uiso   1.00
C628   C     0.47960   0.12071   0.95396   0.00000  Uiso   1.00
C629   C     0.49942   0.16734   0.52355   0.00000  Uiso   1.00
C630   C     0.50058   0.16599   0.97645   0.00000  Uiso   1.00
C631   C     0.47661   0.12353   0.54825   0.00000  Uiso   1.00
C632   C     0.48484   0.06865   0.75129   0.00000  Uiso   1.00
C633   C     0.52339   0.20981   0.95175   0.00000  Uiso   1.00
C634   C     0.54314   0.25571   0.52047   0.00000  Uiso   1.00
C635   C     0.45686   0.07762   0.97953   0.00000  Uiso   1.00
C636   C     0.47654   0.07577   0.61973   0.00000  Uiso   1.00
C637   C     0.52345   0.25757   0.88027   0.00000  Uiso   1.00
C638   C     0.54317   0.25431   0.61926   0.00000  Uiso   1.00
C639   C     0.45684   0.07902   0.88073   0.00000  Uiso   1.00
C640   C     0.55903   0.30537   0.53996   0.00000  Uiso   1.00
C641   C     0.44098   0.02795   0.96005   0.00000  Uiso   1.00
C642   C     0.58770   0.29052   0.94994   0.00000  Uiso   1.00
C643   C     0.54947   0.25211   0.97397   0.00000  Uiso   1.00
C644   C     0.41230   0.04281   0.55006   0.00000  Uiso   1.00
C645   C     0.58573   0.00509   0.73144   0.00000  Uiso   1.00
C646   C     0.41426   0.32825   0.76855   0.00000  Uiso   1.00
C647   C     0.34230   0.11736   0.70896   0.00000  Uiso   1.00
C648   C     0.65769   0.21597   0.79104   0.00000  Uiso   1.00
C649   C     0.45053   0.08122   0.52603   0.00000  Uiso   1.00
C650   C     0.52343   0.31864   0.74571   0.00000  Uiso   1.00
C651   C     0.47657   0.01469   0.75428   0.00000  Uiso   1.00
C652   C     0.50018   0.16607   0.83614   0.00000  Uiso   1.00
C653   C     0.49982   0.16726   0.66386   0.00000  Uiso   1.00
C654   C     0.48166   0.12302   0.59449   0.00000  Uiso   1.00
H655   H     0.61577   0.30824   0.72208   0.00000  Uiso   1.00
H656   H     0.58713   0.02858   0.70096   0.00000  Uiso   1.00
H657   H     0.60462   0.02674   0.75940   0.00000  Uiso   1.00
H658   H     0.38423   0.02509   0.77791   0.00000  Uiso   1.00
H659   H     0.39539   0.30659   0.74059   0.00000  Uiso   1.00
H660   H     0.41287   0.30476   0.79904   0.00000  Uiso   1.00
N661   N     0.65011   0.15265   0.73783   0.00000  Uiso   1.00
N662   N     0.38171   0.01223   0.56877   0.00000  Uiso   1.00
N663   N     0.36273   0.08757   0.68462   0.00000  Uiso   1.00
N664   N     0.63727   0.24576   0.81538   0.00000  Uiso   1.00
N665   N     0.34989   0.18068   0.76217   0.00000  Uiso   1.00
N666   N     0.47287   0.03844   0.64001   0.00000  Uiso   1.00
N667   N     0.52712   0.29490   0.85999   0.00000  Uiso   1.00
N668   N     0.56251   0.28745   0.64035   0.00000  Uiso   1.00
N669   N     0.43751   0.04588   0.85964   0.00000  Uiso   1.00
N670   N     0.57183   0.01196   0.55454   0.00000  Uiso   1.00
N671   N     0.42818   0.32137   0.94546   0.00000  Uiso   1.00
N672   N     0.61829   0.32110   0.93123   0.00000  Uiso   1.00
O673   O     0.46308   0.24619   0.75299   0.00000  Uiso   1.00
O674   O     0.53692   0.08714   0.74702   0.00000  Uiso   1.00
O675   O     0.55946   0.23721   0.74519   0.00000  Uiso   1.00
O676   O     0.44054   0.09613   0.75482   0.00000  Uiso   1.00
O677   O     0.45181   0.17117   0.81998   0.00000  Uiso   1.00
O678   O     0.54819   0.16216   0.68003   0.00000  Uiso   1.00
O679   O     0.54819   0.16219   0.81218   0.00000  Uiso   1.00
O680   O     0.45181   0.17115   0.68783   0.00000  Uiso   1.00
Zn681  Zn    0.43565   0.17266   0.75521   0.00000  Uiso   1.00
Zn682  Zn    0.56435   0.16067   0.74479   0.00000  Uiso   1.00
C683   C     0.84849   0.26469   0.74871   0.00000  Uiso   1.00
C684   C     0.85167   0.21032   0.90551   0.00000  Uiso   1.00
C685   C     0.83279   0.16778   0.61616   0.00000  Uiso   1.00
C686   C     0.83387   0.16555   0.88384   0.00000  Uiso   1.00
C687   C     0.85267   0.21212   0.59319   0.00000  Uiso   1.00
C688   C     0.81400   0.12121   0.90681   0.00000  Uiso   1.00
C689   C     0.85374   0.21262   0.54604   0.00000  Uiso   1.00
C690   C     0.81293   0.12071   0.95396   0.00000  Uiso   1.00
C691   C     0.83275   0.16734   0.52355   0.00000  Uiso   1.00
C692   C     0.83391   0.16599   0.97645   0.00000  Uiso   1.00
C693   C     0.80995   0.12353   0.54825   0.00000  Uiso   1.00
C694   C     0.81818   0.06865   0.75129   0.00000  Uiso   1.00
C695   C     0.85672   0.20981   0.95175   0.00000  Uiso   1.00
C696   C     0.87647   0.25571   0.52047   0.00000  Uiso   1.00
C697   C     0.79020   0.07762   0.97953   0.00000  Uiso   1.00
C698   C     0.80987   0.07577   0.61973   0.00000  Uiso   1.00
C699   C     0.85678   0.25757   0.88027   0.00000  Uiso   1.00
C700   C     0.87651   0.25431   0.61926   0.00000  Uiso   1.00
C701   C     0.79017   0.07902   0.88073   0.00000  Uiso   1.00
C702   C     0.89236   0.30537   0.53996   0.00000  Uiso   1.00
C703   C     0.77431   0.02795   0.96005   0.00000  Uiso   1.00
C704   C     0.92103   0.29052   0.94994   0.00000  Uiso   1.00
C705   C     0.88281   0.25211   0.97397   0.00000  Uiso   1.00
C706   C     0.74563   0.04281   0.55006   0.00000  Uiso   1.00
C707   C     0.91907   0.00509   0.73144   0.00000  Uiso   1.00
C708   C     0.74760   0.32825   0.76855   0.00000  Uiso   1.00
C709   C     0.67564   0.11736   0.70896   0.00000  Uiso   1.00
C710   C     0.99103   0.21597   0.79104   0.00000  Uiso   1.00
C711   C     0.78386   0.08122   0.52603   0.00000  Uiso   1.00
C712   C     0.85677   0.31864   0.74571   0.00000  Uiso   1.00
C713   C     0.80990   0.01469   0.75428   0.00000  Uiso   1.00
C714   C     0.83351   0.16607   0.83614   0.00000  Uiso   1.00
C715   C     0.83316   0.16726   0.66386   0.00000  Uiso   1.00
C716   C     0.81499   0.12302   0.59449   0.00000  Uiso   1.00
H717   H     0.94910   0.30824   0.72208   0.00000  Uiso   1.00
H718   H     0.92046   0.02858   0.70096   0.00000  Uiso   1.00
H719   H     0.93795   0.02674   0.75940   0.00000  Uiso   1.00
H720   H     0.71756   0.02509   0.77791   0.00000  Uiso   1.00
H721   H     0.72872   0.30659   0.74059   0.00000  Uiso   1.00
H722   H     0.74620   0.30476   0.79904   0.00000  Uiso   1.00
N723   N     0.98344   0.15265   0.73783   0.00000  Uiso   1.00
N724   N     0.71504   0.01223   0.56877   0.00000  Uiso   1.00
N725   N     0.69606   0.08757   0.68462   0.00000  Uiso   1.00
N726   N     0.97060   0.24576   0.81538   0.00000  Uiso   1.00
N727   N     0.68322   0.18068   0.76217   0.00000  Uiso   1.00
N728   N     0.80620   0.03844   0.64001   0.00000  Uiso   1.00
N729   N     0.86045   0.29490   0.85999   0.00000  Uiso   1.00
N730   N     0.89584   0.28745   0.64035   0.00000  Uiso   1.00
N731   N     0.77084   0.04588   0.85964   0.00000  Uiso   1.00
N732   N     0.90516   0.01196   0.55454   0.00000  Uiso   1.00
N733   N     0.76152   0.32137   0.94546   0.00000  Uiso   1.00
N734   N     0.95162   0.32110   0.93123   0.00000  Uiso   1.00
O735   O     0.79642   0.24619   0.75299   0.00000  Uiso   1.00
O736   O     0.87025   0.08714   0.74702   0.00000  Uiso   1.00
O737   O     0.89280   0.23721   0.74519   0.00000  Uiso   1.00
O738   O     0.77387   0.09613   0.75482   0.00000  Uiso   1.00
O739   O     0.78514   0.17117   0.81998   0.00000  Uiso   1.00
O740   O     0.88153   0.16216   0.68003   0.00000  Uiso   1.00
O741   O     0.88152   0.16219   0.81218   0.00000  Uiso   1.00
O742   O     0.78515   0.17115   0.68783   0.00000  Uiso   1.00
Zn743  Zn    0.76898   0.17266   0.75521   0.00000  Uiso   1.00
Zn744  Zn    0.89769   0.16067   0.74479   0.00000  Uiso   1.00
C745   C     0.18182   0.59802   0.74871   0.00000  Uiso   1.00
C746   C     0.18501   0.54365   0.90551   0.00000  Uiso   1.00
C747   C     0.16613   0.50111   0.61616   0.00000  Uiso   1.00
C748   C     0.16721   0.49889   0.88384   0.00000  Uiso   1.00
C749   C     0.18601   0.54546   0.59319   0.00000  Uiso   1.00
C750   C     0.14733   0.45454   0.90681   0.00000  Uiso   1.00
C751   C     0.18707   0.54595   0.54604   0.00000  Uiso   1.00
C752   C     0.14626   0.45405   0.95396   0.00000  Uiso   1.00
C753   C     0.16609   0.50067   0.52355   0.00000  Uiso   1.00
C754   C     0.16725   0.49932   0.97645   0.00000  Uiso   1.00
C755   C     0.14328   0.45686   0.54825   0.00000  Uiso   1.00
C756   C     0.15151   0.40198   0.75129   0.00000  Uiso   1.00
C757   C     0.19005   0.54314   0.95175   0.00000  Uiso   1.00
C758   C     0.20981   0.58905   0.52047   0.00000  Uiso   1.00
C759   C     0.12353   0.41095   0.97953   0.00000  Uiso   1.00
C760   C     0.14321   0.40910   0.61973   0.00000  Uiso   1.00
C761   C     0.19012   0.59090   0.88027   0.00000  Uiso   1.00
C762   C     0.20984   0.58765   0.61926   0.00000  Uiso   1.00
C763   C     0.12350   0.41235   0.88073   0.00000  Uiso   1.00
C764   C     0.22570   0.63871   0.53996   0.00000  Uiso   1.00
C765   C     0.10765   0.36129   0.96005   0.00000  Uiso   1.00
C766   C     0.25437   0.62386   0.94994   0.00000  Uiso   1.00
C767   C     0.21614   0.58545   0.97397   0.00000  Uiso   1.00
C768   C     0.07897   0.37614   0.55006   0.00000  Uiso   1.00
C769   C     0.25240   0.33842   0.73144   0.00000  Uiso   1.00
C770   C     0.08093   0.66158   0.76855   0.00000  Uiso   1.00
C771   C     0.00897   0.45069   0.70896   0.00000  Uiso   1.00
C772   C     0.32436   0.54931   0.79104   0.00000  Uiso   1.00
C773   C     0.11719   0.41455   0.52603   0.00000  Uiso   1.00
C774   C     0.19010   0.65197   0.74571   0.00000  Uiso   1.00
C775   C     0.14323   0.34803   0.75428   0.00000  Uiso   1.00
C776   C     0.16684   0.49940   0.83614   0.00000  Uiso   1.00
C777   C     0.16649   0.50060   0.66386   0.00000  Uiso   1.00
C778   C     0.14833   0.45635   0.59449   0.00000  Uiso   1.00
H779   H     0.28243   0.64157   0.72208   0.00000  Uiso   1.00
H780   H     0.25379   0.36191   0.70096   0.00000  Uiso   1.00
H781   H     0.27128   0.36007   0.75940   0.00000  Uiso   1.00
H782   H     0.05090   0.35843   0.77791   0.00000  Uiso   1.00
H783   H     0.06205   0.63993   0.74059   0.00000  Uiso   1.00
H784   H     0.07953   0.63809   0.79904   0.00000  Uiso   1.00
N785   N     0.31678   0.48598   0.73783   0.00000  Uiso   1.00
N786   N     0.04838   0.34556   0.56877   0.00000  Uiso   1.00
N787   N     0.02940   0.42090   0.68462   0.00000  Uiso   1.00
N788   N     0.30394   0.57909   0.81538   0.00000  Uiso   1.00
N789   N     0.01656   0.51402   0.76217   0.00000  Uiso   1.00
N790   N     0.13954   0.37177   0.64001   0.00000  Uiso   1.00
N791   N     0.19378   0.62823   0.85999   0.00000  Uiso   1.00
N792   N     0.22917   0.62078   0.64035   0.00000  Uiso   1.00
N793   N     0.10417   0.37921   0.85964   0.00000  Uiso   1.00
N794   N     0.23850   0.34529   0.55454   0.00000  Uiso   1.00
N795   N     0.09485   0.65470   0.94546   0.00000  Uiso   1.00
N796   N     0.28495   0.65444   0.93123   0.00000  Uiso   1.00
O797   O     0.12975   0.57952   0.75299   0.00000  Uiso   1.00
O798   O     0.20358   0.42048   0.74702   0.00000  Uiso   1.00
O799   O     0.22613   0.57054   0.74519   0.00000  Uiso   1.00
O800   O     0.10720   0.42946   0.75482   0.00000  Uiso   1.00
O801   O     0.11847   0.50450   0.81998   0.00000  Uiso   1.00
O802   O     0.21486   0.49550   0.68003   0.00000  Uiso   1.00
O803   O     0.21485   0.49552   0.81218   0.00000  Uiso   1.00
O804   O     0.11848   0.50448   0.68783   0.00000  Uiso   1.00
Zn805  Zn    0.10231   0.50600   0.75521   0.00000  Uiso   1.00
Zn806  Zn    0.23102   0.49400   0.74479   0.00000  Uiso   1.00
C807   C     0.51516   0.59802   0.74871   0.00000  Uiso   1.00
C808   C     0.51834   0.54365   0.90551   0.00000  Uiso   1.00
C809   C     0.49946   0.50111   0.61616   0.00000  Uiso   1.00
C810   C     0.50054   0.49889   0.88384   0.00000  Uiso   1.00
C811   C     0.51934   0.54546   0.59319   0.00000  Uiso   1.00
C812   C     0.48067   0.45454   0.90681   0.00000  Uiso   1.00
C813   C     0.52041   0.54595   0.54604   0.00000  Uiso   1.00
C814   C     0.47960   0.45405   0.95396   0.00000  Uiso   1.00
C815   C     0.49942   0.50067   0.52355   0.00000  Uiso   1.00
C816   C     0.50058   0.49932   0.97645   0.00000  Uiso   1.00
C817   C     0.47661   0.45686   0.54825   0.00000  Uiso   1.00
C818   C     0.48484   0.40198   0.75129   0.00000  Uiso   1.00
C819   C     0.52339   0.54314   0.95175   0.00000  Uiso   1.00
C820   C     0.54314   0.58905   0.52047   0.00000  Uiso   1.00
C821   C     0.45686   0.41095   0.97953   0.00000  Uiso   1.00
C822   C     0.47654   0.40910   0.61973   0.00000  Uiso   1.00
C823   C     0.52345   0.59090   0.88027   0.00000  Uiso   1.00
C824   C     0.54317   0.58765   0.61926   0.00000  Uiso   1.00
C825   C     0.45684   0.41235   0.88073   0.00000  Uiso   1.00
C826   C     0.55903   0.63871   0.53996   0.00000  Uiso   1.00
C827   C     0.44098   0.36129   0.96005   0.00000  Uiso   1.00
C828   C     0.58770   0.62386   0.94994   0.00000  Uiso   1.00
C829   C     0.54947   0.58545   0.97397   0.00000  Uiso   1.00
C830   C     0.41230   0.37614   0.55006   0.00000  Uiso   1.00
C831   C     0.58573   0.33842   0.73144   0.00000  Uiso   1.00
C832   C     0.41426   0.66158   0.76855   0.00000  Uiso   1.00
C833   C     0.34230   0.45069   0.70896   0.00000  Uiso   1.00
C834   C     0.65769   0.54931   0.79104   0.00000  Uiso   1.00
C835   C     0.45053   0.41455   0.52603   0.00000  Uiso   1.00
C836   C     0.52343   0.65197   0.74571   0.00000  Uiso   1.00
C837   C     0.47657   0.34803   0.75428   0.00000  Uiso   1.00
C838   C     0.50018   0.49940   0.83614   0.00000  Uiso   1.00
C839   C     0.49982   0.50060   0.66386   0.00000  Uiso   1.00
C840   C     0.48166   0.45635   0.59449   0.00000  Uiso   1.00
H841   H     0.61577   0.64157   0.72208   0.00000  Uiso   1.00
H842   H     0.58713   0.36191   0.70096   0.00000  Uiso   1.00
H843   H     0.60462   0.36007   0.75940   0.00000  Uiso   1.00
H844   H     0.38423   0.35843   0.77791   0.00000  Uiso   1.00
H845   H     0.39539   0.63993   0.74059   0.00000  Uiso   1.00
H846   H     0.41287   0.63809   0.79904   0.00000  Uiso   1.00
N847   N     0.65011   0.48598   0.73783   0.00000  Uiso   1.00
N848   N     0.38171   0.34556   0.56877   0.00000  Uiso   1.00
N849   N     0.36273   0.42090   0.68462   0.00000  Uiso   1.00
N850   N     0.63727   0.57909   0.81538   0.00000  Uiso   1.00
N851   N     0.34989   0.51402   0.76217   0.00000  Uiso   1.00
N852   N     0.47287   0.37177   0.64001   0.00000  Uiso   1.00
N853   N     0.52712   0.62823   0.85999   0.00000  Uiso   1.00
N854   N     0.56251   0.62078   0.64035   0.00000  Uiso   1.00
N855   N     0.43751   0.37921   0.85964   0.00000  Uiso   1.00
N856   N     0.57183   0.34529   0.55454   0.00000  Uiso   1.00
N857   N     0.42818   0.65470   0.94546   0.00000  Uiso   1.00
N858   N     0.61829   0.65444   0.93123   0.00000  Uiso   1.00
O859   O     0.46308   0.57952   0.75299   0.00000  Uiso   1.00
O860   O     0.53692   0.42048   0.74702   0.00000  Uiso   1.00
O861   O     0.55946   0.57054   0.74519   0.00000  Uiso   1.00
O862   O     0.44054   0.42946   0.75482   0.00000  Uiso   1.00
O863   O     0.45181   0.50450   0.81998   0.00000  Uiso   1.00
O864   O     0.54819   0.49550   0.68003   0.00000  Uiso   1.00
O865   O     0.54819   0.49552   0.81218   0.00000  Uiso   1.00
O866   O     0.45181   0.50448   0.68783   0.00000  Uiso   1.00
Zn867  Zn    0.43565   0.50600   0.75521   0.00000  Uiso   1.00
Zn868  Zn    0.56435   0.49400   0.74479   0.00000  Uiso   1.00
C869   C     0.84849   0.59802   0.74871   0.00000  Uiso   1.00
C870   C     0.85167   0.54365   0.90551   0.00000  Uiso   1.00
C871   C     0.83279   0.50111   0.61616   0.00000  Uiso   1.00
C872   C     0.83387   0.49889   0.88384   0.00000  Uiso   1.00
C873   C     0.85267   0.54546   0.59319   0.00000  Uiso   1.00
C874   C     0.81400   0.45454   0.90681   0.00000  Uiso   1.00
C875   C     0.85374   0.54595   0.54604   0.00000  Uiso   1.00
C876   C     0.81293   0.45405   0.95396   0.00000  Uiso   1.00
C877   C     0.83275   0.50067   0.52355   0.00000  Uiso   1.00
C878   C     0.83391   0.49932   0.97645   0.00000  Uiso   1.00
C879   C     0.80995   0.45686   0.54825   0.00000  Uiso   1.00
C880   C     0.81818   0.40198   0.75129   0.00000  Uiso   1.00
C881   C     0.85672   0.54314   0.95175   0.00000  Uiso   1.00
C882   C     0.87647   0.58905   0.52047   0.00000  Uiso   1.00
C883   C     0.79020   0.41095   0.97953   0.00000  Uiso   1.00
C884   C     0.80987   0.40910   0.61973   0.00000  Uiso   1.00
C885   C     0.85678   0.59090   0.88027   0.00000  Uiso   1.00
C886   C     0.87651   0.58765   0.61926   0.00000  Uiso   1.00
C887   C     0.79017   0.41235   0.88073   0.00000  Uiso   1.00
C888   C     0.89236   0.63871   0.53996   0.00000  Uiso   1.00
C889   C     0.77431   0.36129   0.96005   0.00000  Uiso   1.00
C890   C     0.92103   0.62386   0.94994   0.00000  Uiso   1.00
C891   C     0.88281   0.58545   0.97397   0.00000  Uiso   1.00
C892   C     0.74563   0.37614   0.55006   0.00000  Uiso   1.00
C893   C     0.91907   0.33842   0.73144   0.00000  Uiso   1.00
C894   C     0.74760   0.66158   0.76855   0.00000  Uiso   1.00
C895   C     0.67564   0.45069   0.70896   0.00000  Uiso   1.00
C896   C     0.99103   0.54931   0.79104   0.00000  Uiso   1.00
C897   C     0.78386   0.41455   0.52603   0.00000  Uiso   1.00
C898   C     0.85677   0.65197   0.74571   0.00000  Uiso   1.00
C899   C     0.80990   0.34803   0.75428   0.00000  Uiso   1.00
C900   C     0.83351   0.49940   0.83614   0.00000  Uiso   1.00
C901   C     0.83316   0.50060   0.66386   0.00000  Uiso   1.00
C902   C     0.81499   0.45635   0.59449   0.00000  Uiso   1.00
H903   H     0.94910   0.64157   0.72208   0.00000  Uiso   1.00
H904   H     0.92046   0.36191   0.70096   0.00000  Uiso   1.00
H905   H     0.93795   0.36007   0.75940   0.00000  Uiso   1.00
H906   H     0.71756   0.35843   0.77791   0.00000  Uiso   1.00
H907   H     0.72872   0.63993   0.74059   0.00000  Uiso   1.00
H908   H     0.74620   0.63809   0.79904   0.00000  Uiso   1.00
N909   N     0.98344   0.48598   0.73783   0.00000  Uiso   1.00
N910   N     0.71504   0.34556   0.56877   0.00000  Uiso   1.00
N911   N     0.69606   0.42090   0.68462   0.00000  Uiso   1.00
N912   N     0.97060   0.57909   0.81538   0.00000  Uiso   1.00
N913   N     0.68322   0.51402   0.76217   0.00000  Uiso   1.00
N914   N     0.80620   0.37177   0.64001   0.00000  Uiso   1.00
N915   N     0.86045   0.62823   0.85999   0.00000  Uiso   1.00
N916   N     0.89584   0.62078   0.64035   0.00000  Uiso   1.00
N917   N     0.77084   0.37921   0.85964   0.00000  Uiso   1.00
N918   N     0.90516   0.34529   0.55454   0.00000  Uiso   1.00
N919   N     0.76152   0.65470   0.94546   0.00000  Uiso   1.00
N920   N     0.95162   0.65444   0.93123   0.00000  Uiso   1.00
O921   O     0.79642   0.57952   0.75299   0.00000  Uiso   1.00
O922   O     0.87025   0.42048   0.74702   0.00000  Uiso   1.00
O923   O     0.89280   0.57054   0.74519   0.00000  Uiso   1.00
O924   O     0.77387   0.42946   0.75482   0.00000  Uiso   1.00
O925   O     0.78514   0.50450   0.81998   0.00000  Uiso   1.00
O926   O     0.88153   0.49550   0.68003   0.00000  Uiso   1.00
O927   O     0.88152   0.49552   0.81218   0.00000  Uiso   1.00
O928   O     0.78515   0.50448   0.68783   0.00000  Uiso   1.00
Zn929  Zn    0.76898   0.50600   0.75521   0.00000  Uiso   1.00
Zn930  Zn    0.89769   0.49400   0.74479   0.00000  Uiso   1.00
C931   C     0.18182   0.93135   0.74871   0.00000  Uiso   1.00
C932   C     0.18501   0.87698   0.90551   0.00000  Uiso   1.00
C933   C     0.16613   0.83445   0.61616   0.00000  Uiso   1.00
C934   C     0.16721   0.83222   0.88384   0.00000  Uiso   1.00
C935   C     0.18601   0.87879   0.59319   0.00000  Uiso   1.00
C936   C     0.14733   0.78787   0.90681   0.00000  Uiso   1.00
C937   C     0.18707   0.87929   0.54604   0.00000  Uiso   1.00
C938   C     0.14626   0.78738   0.95396   0.00000  Uiso   1.00
C939   C     0.16609   0.83401   0.52355   0.00000  Uiso   1.00
C940   C     0.16725   0.83266   0.97645   0.00000  Uiso   1.00
C941   C     0.14328   0.79019   0.54825   0.00000  Uiso   1.00
C942   C     0.15151   0.73531   0.75129   0.00000  Uiso   1.00
C943   C     0.19005   0.87647   0.95175   0.00000  Uiso   1.00
C944   C     0.20981   0.92238   0.52047   0.00000  Uiso   1.00
C945   C     0.12353   0.74428   0.97953   0.00000  Uiso   1.00
C946   C     0.14321   0.74243   0.61973   0.00000  Uiso   1.00
C947   C     0.19012   0.92423   0.88027   0.00000  Uiso   1.00
C948   C     0.20984   0.92098   0.61926   0.00000  Uiso   1.00
C949   C     0.12350   0.74568   0.88073   0.00000  Uiso   1.00
C950   C     0.22570   0.97204   0.53996   0.00000  Uiso   1.00
C951   C     0.10765   0.69462   0.96005   0.00000  Uiso   1.00
C952   C     0.25437   0.95719   0.94994   0.00000  Uiso   1.00
C953   C     0.21614   0.91878   0.97397   0.00000  Uiso   1.00
C954   C     0.07897   0.70947   0.55006   0.00000  Uiso   1.00
C955   C     0.25240   0.67175   0.73144   0.00000  Uiso   1.00
C956   C     0.08093   0.99491   0.76855   0.00000  Uiso   1.00
C957   C     0.00897   0.78402   0.70896   0.00000  Uiso   1.00
C958   C     0.32436   0.88264   0.79104   0.00000  Uiso   1.00
C959   C     0.11719   0.74789   0.52603   0.00000  Uiso   1.00
C960   C     0.19010   0.98531   0.74571   0.00000  Uiso   1.00
C961   C     0.14323   0.68136   0.75428   0.00000  Uiso   1.00
C962   C     0.16684   0.83274   0.83614   0.00000  Uiso   1.00
C963   C     0.16649   0.83393   0.66386   0.00000  Uiso   1.00
C964   C     0.14833   0.78968   0.59449   0.00000  Uiso   1.00
H965   H     0.28243   0.97490   0.72208   0.00000  Uiso   1.00
H966   H     0.25379   0.69524   0.70096   0.00000  Uiso   1.00
H967   H     0.27128   0.69341   0.75940   0.00000  Uiso   1.00
H968   H     0.05090   0.69176   0.77791   0.00000  Uiso   1.00
H969   H     0.06205   0.97326   0.74059   0.00000  Uiso   1.00
H970   H     0.07953   0.97142   0.79904   0.00000  Uiso   1.00
N971   N     0.31678   0.81932   0.73783   0.00000  Uiso   1.00
N972   N     0.04838   0.67889   0.56877   0.00000  Uiso   1.00
N973   N     0.02940   0.75424   0.68462   0.00000  Uiso   1.00
N974   N     0.30394   0.91243   0.81538   0.00000  Uiso   1.00
N975   N     0.01656   0.84735   0.76217   0.00000  Uiso   1.00
N976   N     0.13954   0.70510   0.64001   0.00000  Uiso   1.00
N977   N     0.19378   0.96157   0.85999   0.00000  Uiso   1.00
N978   N     0.22917   0.95411   0.64035   0.00000  Uiso   1.00
N979   N     0.10417   0.71255   0.85964   0.00000  Uiso   1.00
N980   N     0.23850   0.67862   0.55454   0.00000  Uiso   1.00
N981   N     0.09485   0.98804   0.94546   0.00000  Uiso   1.00
N982   N     0.28495   0.98777   0.93123   0.00000  Uiso   1.00
O983   O     0.12975   0.91286   0.75299   0.00000  Uiso   1.00
O984   O     0.20358   0.75381   0.74702   0.00000  Uiso   1.00
O985   O     0.22613   0.90387   0.74519   0.00000  Uiso   1.00
O986   O     0.10720   0.76279   0.75482   0.00000  Uiso   1.00
O987   O     0.11847   0.83784   0.81998   0.00000  Uiso   1.00
O988   O     0.21486   0.82883   0.68003   0.00000  Uiso   1.00
O989   O     0.21485   0.82885   0.81218   0.00000  Uiso   1.00
O990   O     0.11848   0.83781   0.68783   0.00000  Uiso   1.00
Zn991  Zn    0.10231   0.83933   0.75521   0.00000  Uiso   1.00
Zn992  Zn    0.23102   0.82734   0.74479   0.00000  Uiso   1.00
C993   C     0.51516   0.93135   0.74871   0.00000  Uiso   1.00
C994   C     0.51834   0.87698   0.90551   0.00000  Uiso   1.00
C995   C     0.49946   0.83445   0.61616   0.00000  Uiso   1.00
C996   C     0.50054   0.83222   0.88384   0.00000  Uiso   1.00
C997   C     0.51934   0.87879   0.59319   0.00000  Uiso   1.00
C998   C     0.48067   0.78787   0.90681   0.00000  Uiso   1.00
C999   C     0.52041   0.87929   0.54604   0.00000  Uiso   1.00
C1000  C     0.47960   0.78738   0.95396   0.00000  Uiso   1.00
C1001  C     0.49942   0.83401   0.52355   0.00000  Uiso   1.00
C1002  C     0.50058   0.83266   0.97645   0.00000  Uiso   1.00
C1003  C     0.47661   0.79019   0.54825   0.00000  Uiso   1.00
C1004  C     0.48484   0.73531   0.75129   0.00000  Uiso   1.00
C1005  C     0.52339   0.87647   0.95175   0.00000  Uiso   1.00
C1006  C     0.54314   0.92238   0.52047   0.00000  Uiso   1.00
C1007  C     0.45686   0.74428   0.97953   0.00000  Uiso   1.00
C1008  C     0.47654   0.74243   0.61973   0.00000  Uiso   1.00
C1009  C     0.52345   0.92423   0.88027   0.00000  Uiso   1.00
C1010  C     0.54317   0.92098   0.61926   0.00000  Uiso   1.00
C1011  C     0.45684   0.74568   0.88073   0.00000  Uiso   1.00
C1012  C     0.55903   0.97204   0.53996   0.00000  Uiso   1.00
C1013  C     0.44098   0.69462   0.96005   0.00000  Uiso   1.00
C1014  C     0.58770   0.95719   0.94994   0.00000  Uiso   1.00
C1015  C     0.54947   0.91878   0.97397   0.00000  Uiso   1.00
C1016  C     0.41230   0.70947   0.55006   0.00000  Uiso   1.00
C1017  C     0.58573   0.67175   0.73144   0.00000  Uiso   1.00
C1018  C     0.41426   0.99491   0.76855   0.00000  Uiso   1.00
C1019  C     0.34230   0.78402   0.70896   0.00000  Uiso   1.00
C1020  C     0.65769   0.88264   0.79104   0.00000  Uiso   1.00
C1021  C     0.45053   0.74789   0.52603   0.00000  Uiso   1.00
C1022  C     0.52343   0.98531   0.74571   0.00000  Uiso   1.00
C1023  C     0.47657   0.68136   0.75428   0.00000  Uiso   1.00
C1024  C     0.50018   0.83274   0.83614   0.00000  Uiso   1.00
C1025  C     0.49982   0.83393   0.66386   0.00000  Uiso   1.00
C1026  C     0.48166   0.78968   0.59449   0.00000  Uiso   1.00
H1027  H     0.61577   0.97490   0.72208   0.00000  Uiso   1.00
H1028  H     0.58713   0.69524   0.70096   0.00000  Uiso   1.00
H1029  H     0.60462   0.69341   0.75940   0.00000  Uiso   1.00
H1030  H     0.38423   0.69176   0.77791   0.00000  Uiso   1.00
H1031  H     0.39539   0.97326   0.74059   0.00000  Uiso   1.00
H1032  H     0.41287   0.97142   0.79904   0.00000  Uiso   1.00
N1033  N     0.65011   0.81932   0.73783   0.00000  Uiso   1.00
N1034  N     0.38171   0.67889   0.56877   0.00000  Uiso   1.00
N1035  N     0.36273   0.75424   0.68462   0.00000  Uiso   1.00
N1036  N     0.63727   0.91243   0.81538   0.00000  Uiso   1.00
N1037  N     0.34989   0.84735   0.76217   0.00000  Uiso   1.00
N1038  N     0.47287   0.70510   0.64001   0.00000  Uiso   1.00
N1039  N     0.52712   0.96157   0.85999   0.00000  Uiso   1.00
N1040  N     0.56251   0.95411   0.64035   0.00000  Uiso   1.00
N1041  N     0.43751   0.71255   0.85964   0.00000  Uiso   1.00
N1042  N     0.57183   0.67862   0.55454   0.00000  Uiso   1.00
N1043  N     0.42818   0.98804   0.94546   0.00000  Uiso   1.00
N1044  N     0.61829   0.98777   0.93123   0.00000  Uiso   1.00
O1045  O     0.46308   0.91286   0.75299   0.00000  Uiso   1.00
O1046  O     0.53692   0.75381   0.74702   0.00000  Uiso   1.00
O1047  O     0.55946   0.90387   0.74519   0.00000  Uiso   1.00
O1048  O     0.44054   0.76279   0.75482   0.00000  Uiso   1.00
O1049  O     0.45181   0.83784   0.81998   0.00000  Uiso   1.00
O1050  O     0.54819   0.82883   0.68003   0.00000  Uiso   1.00
O1051  O     0.54819   0.82885   0.81218   0.00000  Uiso   1.00
O1052  O     0.45181   0.83781   0.68783   0.00000  Uiso   1.00
Zn1053 Zn    0.43565   0.83933   0.75521   0.00000  Uiso   1.00
Zn1054 Zn    0.56435   0.82734   0.74479   0.00000  Uiso   1.00
C1055  C     0.84849   0.93135   0.74871   0.00000  Uiso   1.00
C1056  C     0.85167   0.87698   0.90551   0.00000  Uiso   1.00
C1057  C     0.83279   0.83445   0.61616   0.00000  Uiso   1.00
C1058  C     0.83387   0.83222   0.88384   0.00000  Uiso   1.00
C1059  C     0.85267   0.87879   0.59319   0.00000  Uiso   1.00
C1060  C     0.81400   0.78787   0.90681   0.00000  Uiso   1.00
C1061  C     0.85374   0.87929   0.54604   0.00000  Uiso   1.00
C1062  C     0.81293   0.78738   0.95396   0.00000  Uiso   1.00
C1063  C     0.83275   0.83401   0.52355   0.00000  Uiso   1.00
C1064  C     0.83391   0.83266   0.97645   0.00000  Uiso   1.00
C1065  C     0.80995   0.79019   0.54825   0.00000  Uiso   1.00
C1066  C     0.81818   0.73531   0.75129   0.00000  Uiso   1.00
C1067  C     0.85672   0.87647   0.95175   0.00000  Uiso   1.00
C1068  C     0.87647   0.92238   0.52047   0.00000  Uiso   1.00
C1069  C     0.79020   0.74428   0.97953   0.00000  Uiso   1.00
C1070  C     0.80987   0.74243   0.61973   0.00000  Uiso   1.00
C1071  C     0.85678   0.92423   0.88027   0.00000  Uiso   1.00
C1072  C     0.87651   0.92098   0.61926   0.00000  Uiso   1.00
C1073  C     0.79017   0.74568   0.88073   0.00000  Uiso   1.00
C1074  C     0.89236   0.97204   0.53996   0.00000  Uiso   1.00
C1075  C     0.77431   0.69462   0.96005   0.00000  Uiso   1.00
C1076  C     0.92103   0.95719   0.94994   0.00000  Uiso   1.00
C1077  C     0.88281   0.91878   0.97397   0.00000  Uiso   1.00
C1078  C     0.74563   0.70947   0.55006   0.00000  Uiso   1.00
C1079  C     0.91907   0.67175   0.73144   0.00000  Uiso   1.00
C1080  C     0.74760   0.99491   0.76855   0.00000  Uiso   1.00
C1081  C     0.67564   0.78402   0.70896   0.00000  Uiso   1.00
C1082  C     0.99103   0.88264   0.79104   0.00000  Uiso   1.00
C1083  C     0.78386   0.74789   0.52603   0.00000  Uiso   1.00
C1084  C     0.85677   0.98531   0.74571   0.00000  Uiso   1.00
C1085  C     0.80990   0.68136   0.75428   0.00000  Uiso   1.00
C1086  C     0.83351   0.83274   0.83614   0.00000  Uiso   1.00
C1087  C     0.83316   0.83393   0.66386   0.00000  Uiso   1.00
C1088  C     0.81499   0.78968   0.59449   0.00000  Uiso   1.00
H1089  H     0.94910   0.97490   0.72208   0.00000  Uiso   1.00
H1090  H     0.92046   0.69524   0.70096   0.00000  Uiso   1.00
H1091  H     0.93795   0.69341   0.75940   0.00000  Uiso   1.00
H1092  H     0.71756   0.69176   0.77791   0.00000  Uiso   1.00
H1093  H     0.72872   0.97326   0.74059   0.00000  Uiso   1.00
H1094  H     0.74620   0.97142   0.79904   0.00000  Uiso   1.00
N1095  N     0.98344   0.81932   0.73783   0.00000  Uiso   1.00
N1096  N     0.71504   0.67889   0.56877   0.00000  Uiso   1.00
N1097  N     0.69606   0.75424   0.68462   0.00000  Uiso   1.00
N1098  N     0.97060   0.91243   0.81538   0.00000  Uiso   1.00
N1099  N     0.68322   0.84735   0.76217   0.00000  Uiso   1.00
N1100  N     0.80620   0.70510   0.64001   0.00000  Uiso   1.00
N1101  N     0.86045   0.96157   0.85999   0.00000  Uiso   1.00
N1102  N     0.89584   0.95411   0.64035   0.00000  Uiso   1.00
N1103  N     0.77084   0.71255   0.85964   0.00000  Uiso   1.00
N1104  N     0.90516   0.67862   0.55454   0.00000  Uiso   1.00
N1105  N     0.76152   0.98804   0.94546   0.00000  Uiso   1.00
N1106  N     0.95162   0.98777   0.93123   0.00000  Uiso   1.00
O1107  O     0.79642   0.91286   0.75299   0.00000  Uiso   1.00
O1108  O     0.87025   0.75381   0.74702   0.00000  Uiso   1.00
O1109  O     0.89280   0.90387   0.74519   0.00000  Uiso   1.00
O1110  O     0.77387   0.76279   0.75482   0.00000  Uiso   1.00
O1111  O     0.78514   0.83784   0.81998   0.00000  Uiso   1.00
O1112  O     0.88153   0.82883   0.68003   0.00000  Uiso   1.00
O1113  O     0.88152   0.82885   0.81218   0.00000  Uiso   1.00
O1114  O     0.78515   0.83781   0.68783   0.00000  Uiso   1.00
Zn1115 Zn    0.76898   0.83933   0.75521   0.00000  Uiso   1.00
Zn1116 Zn    0.89769   0.82734   0.74479   0.00000  Uiso   1.00
loop_
_geom_bond_atom_site_label_1
_geom_bond_atom_site_label_2
_geom_bond_distance
_geom_bond_site_symmetry_2
_ccdc_geom_bond_type
C1     O55     1.295   .     A
C1     C30     1.419   .     S
C1     O53     1.276   .     A
C2     C4      1.388   .     A
C2     C17     1.458   .     S
C2     C13     1.404   .     A
C3     C34     1.388   .     A
C3     C33     1.433   .     S
C3     C5      1.396   .     A
C4     C32     1.433   .     S
C4     C6      1.396   .     A
C5     C7      1.414   .     A
C5     C18     1.452   .     S
C6     C19     1.452   .     S
C6     C8      1.414   .     A
C7     C14     1.426   .     A
C7     C9      1.434   .     A
C8     C10     1.434   .     A
C8     C15     1.426   .     A
C9     C11     1.427   .     A
C9     C568    1.412   1_554 S
C10    C13     1.427   .     A
C10    C567    1.412   .     S
C11    C29     1.414   .     A
C11    C34     1.404   .     A
C12    O56     1.295   .     A
C12    C31     1.419   .     S
C12    O54     1.276   .     A
C13    C23     1.414   .     A
C14    C20     1.456   .     S
C14    C581    1.393   1_554 S
C15    C21     1.456   .     S
C15    C587    1.393   .     S
C16    C34     1.458   .     S
C16    N46     1.158   .     T
C17    N47     1.158   .     T
C18    N48     1.156   .     T
C19    N49     1.156   .     T
C20    N236    1.158   .     S
C21    N423    1.158   1_545 S
C22    N52     1.158   .     T
C22    C23     1.459   .     S
C23    C572    1.393   .     S
C24    N42     1.158   .     T
C24    C29     1.459   .     S
C25    H36     1.110   .     S
C25    H37     1.111   .     S
C25    C402    1.539   1_545 S
C25    H407    1.108   1_545 S
C26    H40     1.110   .     S
C26    H39     1.111   .     S
C26    C217    1.539   .     S
C26    H224    1.108   .     S
C27    N43     1.157   .     T
C27    N165    1.384   1_455 S
C28    N44     1.157   .     T
C28    N107    1.384   .     S
C29    C573    1.393   1_554 S
C30    C211    1.539   .     S
C30    C217    1.383   .     S
C31    C402    1.383   1_545 S
C31    C398    1.539   1_545 S
C32    O57     1.284   .     A
C32    O59     1.287   .     A
C33    O58     1.284   .     A
C33    O60     1.287   .     A
H35    C211    1.108   .     S
H38    C398    1.108   1_545 S
N41    Zn62    2.020   .     S
N41    C89     1.384   .     S
N41    N107    1.294   .     S
N45    Zn61    2.020   .     S
N45    N165    1.294   1_455 S
N45    C152    1.384   1_455 S
N50    C392    1.158   1_545 S
N51    C207    1.158   .     S
O53    Zn61    1.992   .     S
O54    Zn62    1.992   .     S
O55    Zn62    2.018   .     S
O56    Zn61    2.018   .     S
O57    Zn61    2.015   .     S
O58    Zn62    2.015   .     S
O59    Zn62    2.025   .     S
O60    Zn61    2.025   .     S
C63    O117    1.295   .     A
C63    C92     1.419   .     S
C63    O115    1.276   .     A
C64    C66     1.388   .     A
C64    C79     1.458   .     S
C64    C75     1.404   .     A
C65    C96     1.388   .     A
C65    C95     1.433   .     S
C65    C67     1.396   .     A
C66    C94     1.433   .     S
C66    C68     1.396   .     A
C67    C69     1.414   .     A
C67    C80     1.452   .     S
C68    C81     1.452   .     S
C68    C70     1.414   .     A
C69    C76     1.426   .     A
C69    C71     1.434   .     A
C70    C72     1.434   .     A
C70    C77     1.426   .     A
C71    C73     1.427   .     A
C71    C630    1.412   1_554 S
C72    C75     1.427   .     A
C72    C629    1.412   .     S
C73    C91     1.414   .     A
C73    C96     1.404   .     A
C74    O118    1.295   .     A
C74    C93     1.419   .     S
C74    O116    1.276   .     A
C75    C85     1.414   .     A
C76    C82     1.456   .     S
C76    C643    1.393   1_554 S
C77    C83     1.456   .     S
C77    C649    1.393   .     S
C78    C96     1.458   .     S
C78    N108    1.158   .     T
C79    N109    1.158   .     T
C80    N110    1.156   .     T
C81    N111    1.156   .     T
C82    N298    1.158   .     S
C83    N485    1.158   1_545 S
C84    N114    1.158   .     T
C84    C85     1.459   .     S
C85    C634    1.393   .     S
C86    N104    1.158   .     T
C86    C91     1.459   .     S
C87    H98     1.110   .     S
C87    H99     1.111   .     S
C87    C464    1.539   1_545 S
C87    H469    1.108   1_545 S
C88    H102    1.110   .     S
C88    H101    1.111   .     S
C88    C279    1.539   .     S
C88    H286    1.108   .     S
C89    N105    1.157   .     T
C90    N106    1.157   .     T
C90    N169    1.384   .     S
C91    C635    1.393   1_554 S
C92    C273    1.539   .     S
C92    C279    1.383   .     S
C93    C464    1.383   1_545 S
C93    C460    1.539   1_545 S
C94    O119    1.284   .     A
C94    O121    1.287   .     A
C95    O120    1.284   .     A
C95    O122    1.287   .     A
H97    C273    1.108   .     S
H100   C460    1.108   1_545 S
N103   Zn124   2.020   .     S
N103   C151    1.384   .     S
N103   N169    1.294   .     S
N107   Zn123   2.020   .     S
N112   C454    1.158   1_545 S
N113   C269    1.158   .     S
O115   Zn123   1.992   .     S
O116   Zn124   1.992   .     S
O117   Zn124   2.018   .     S
O118   Zn123   2.018   .     S
O119   Zn123   2.015   .     S
O120   Zn124   2.015   .     S
O121   Zn124   2.025   .     S
O122   Zn123   2.025   .     S
C125   O179    1.295   .     A
C125   C154    1.419   .     S
C125   O177    1.276   .     A
C126   C128    1.388   .     A
C126   C141    1.458   .     S
C126   C137    1.404   .     A
C127   C158    1.388   .     A
C127   C157    1.433   .     S
C127   C129    1.396   .     A
C128   C156    1.433   .     S
C128   C130    1.396   .     A
C129   C131    1.414   .     A
C129   C142    1.452   .     S
C130   C143    1.452   .     S
C130   C132    1.414   .     A
C131   C138    1.426   .     A
C131   C133    1.434   .     A
C132   C134    1.434   .     A
C132   C139    1.426   .     A
C133   C135    1.427   .     A
C133   C692    1.412   1_554 S
C134   C137    1.427   .     A
C134   C691    1.412   .     S
C135   C153    1.414   .     A
C135   C158    1.404   .     A
C136   O180    1.295   .     A
C136   C155    1.419   .     S
C136   O178    1.276   .     A
C137   C147    1.414   .     A
C138   C144    1.456   .     S
C138   C705    1.393   1_554 S
C139   C145    1.456   .     S
C139   C711    1.393   .     S
C140   C158    1.458   .     S
C140   N170    1.158   .     T
C141   N171    1.158   .     T
C142   N172    1.156   .     T
C143   N173    1.156   .     T
C144   N360    1.158   .     S
C145   N547    1.158   1_545 S
C146   N176    1.158   .     T
C146   C147    1.459   .     S
C147   C696    1.393   .     S
C148   N166    1.158   .     T
C148   C153    1.459   .     S
C149   H160    1.110   .     S
C149   H161    1.111   .     S
C149   C526    1.539   1_545 S
C149   H531    1.108   1_545 S
C150   H164    1.110   .     S
C150   H163    1.111   .     S
C150   C341    1.539   .     S
C150   H348    1.108   .     S
C151   N167    1.157   .     T
C152   N168    1.157   .     T
C152   N45     1.384   1_655 S
C153   C697    1.393   1_554 S
C154   C335    1.539   .     S
C154   C341    1.383   .     S
C155   C526    1.383   1_545 S
C155   C522    1.539   1_545 S
C156   O181    1.284   .     A
C156   O183    1.287   .     A
C157   O182    1.284   .     A
C157   O184    1.287   .     A
H159   C335    1.108   .     S
H162   C522    1.108   1_545 S
N165   Zn186   2.020   .     S
N165   C27     1.384   1_655 S
N165   N45     1.294   1_655 S
N169   Zn185   2.020   .     S
N174   C516    1.158   1_545 S
N175   C331    1.158   .     S
O177   Zn185   1.992   .     S
O178   Zn186   1.992   .     S
O179   Zn186   2.018   .     S
O180   Zn185   2.018   .     S
O181   Zn185   2.015   .     S
O182   Zn186   2.015   .     S
O183   Zn186   2.025   .     S
O184   Zn185   2.025   .     S
C187   O241    1.295   .     A
C187   C216    1.419   .     S
C187   O239    1.276   .     A
C188   C190    1.388   .     A
C188   C203    1.458   .     S
C188   C199    1.404   .     A
C189   C220    1.388   .     A
C189   C219    1.433   .     S
C189   C191    1.396   .     A
C190   C218    1.433   .     S
C190   C192    1.396   .     A
C191   C193    1.414   .     A
C191   C204    1.452   .     S
C192   C205    1.452   .     S
C192   C194    1.414   .     A
C193   C200    1.426   .     A
C193   C195    1.434   .     A
C194   C196    1.434   .     A
C194   C201    1.426   .     A
C195   C197    1.427   .     A
C195   C754    1.412   1_554 S
C196   C199    1.427   .     A
C196   C753    1.412   .     S
C197   C215    1.414   .     A
C197   C220    1.404   .     A
C198   O242    1.295   .     A
C198   C217    1.419   .     S
C198   O240    1.276   .     A
C199   C209    1.414   .     A
C200   C206    1.456   .     S
C200   C767    1.393   1_554 S
C201   C207    1.456   .     S
C201   C773    1.393   .     S
C202   C220    1.458   .     S
C202   N232    1.158   .     T
C203   N233    1.158   .     T
C204   N234    1.156   .     T
C205   N235    1.156   .     T
C206   N422    1.158   .     S
C208   N238    1.158   .     T
C208   C209    1.459   .     S
C209   C758    1.393   .     S
C210   N228    1.158   .     T
C210   C215    1.459   .     S
C211   H222    1.110   .     S
C211   H223    1.111   .     S
C212   H226    1.110   .     S
C212   H225    1.111   .     S
C212   C403    1.539   .     S
C212   H410    1.108   .     S
C213   N229    1.157   .     T
C213   N351    1.384   1_455 S
C214   N230    1.157   .     T
C214   N293    1.384   .     S
C215   C759    1.393   1_554 S
C216   C397    1.539   .     S
C216   C403    1.383   .     S
C218   O243    1.284   .     A
C218   O245    1.287   .     A
C219   O244    1.284   .     A
C219   O246    1.287   .     A
H221   C397    1.108   .     S
N227   Zn248   2.020   .     S
N227   C275    1.384   .     S
N227   N293    1.294   .     S
N231   Zn247   2.020   .     S
N231   N351    1.294   1_455 S
N231   C338    1.384   1_455 S
N237   C393    1.158   .     S
O239   Zn247   1.992   .     S
O240   Zn248   1.992   .     S
O241   Zn248   2.018   .     S
O242   Zn247   2.018   .     S
O243   Zn247   2.015   .     S
O244   Zn248   2.015   .     S
O245   Zn248   2.025   .     S
O246   Zn247   2.025   .     S
C249   O303    1.295   .     A
C249   C278    1.419   .     S
C249   O301    1.276   .     A
C250   C252    1.388   .     A
C250   C265    1.458   .     S
C250   C261    1.404   .     A
C251   C282    1.388   .     A
C251   C281    1.433   .     S
C251   C253    1.396   .     A
C252   C280    1.433   .     S
C252   C254    1.396   .     A
C253   C255    1.414   .     A
C253   C266    1.452   .     S
C254   C267    1.452   .     S
C254   C256    1.414   .     A
C255   C262    1.426   .     A
C255   C257    1.434   .     A
C256   C258    1.434   .     A
C256   C263    1.426   .     A
C257   C259    1.427   .     A
C257   C816    1.412   1_554 S
C258   C261    1.427   .     A
C258   C815    1.412   .     S
C259   C277    1.414   .     A
C259   C282    1.404   .     A
C260   O304    1.295   .     A
C260   C279    1.419   .     S
C260   O302    1.276   .     A
C261   C271    1.414   .     A
C262   C268    1.456   .     S
C262   C829    1.393   1_554 S
C263   C269    1.456   .     S
C263   C835    1.393   .     S
C264   C282    1.458   .     S
C264   N294    1.158   .     T
C265   N295    1.158   .     T
C266   N296    1.156   .     T
C267   N297    1.156   .     T
C268   N484    1.158   .     S
C270   N300    1.158   .     T
C270   C271    1.459   .     S
C271   C820    1.393   .     S
C272   N290    1.158   .     T
C272   C277    1.459   .     S
C273   H284    1.110   .     S
C273   H285    1.111   .     S
C274   H288    1.110   .     S
C274   H287    1.111   .     S
C274   C465    1.539   .     S
C274   H472    1.108   .     S
C275   N291    1.157   .     T
C276   N292    1.157   .     T
C276   N355    1.384   .     S
C277   C821    1.393   1_554 S
C278   C459    1.539   .     S
C278   C465    1.383   .     S
C280   O305    1.284   .     A
C280   O307    1.287   .     A
C281   O306    1.284   .     A
C281   O308    1.287   .     A
H283   C459    1.108   .     S
N289   Zn310   2.020   .     S
N289   C337    1.384   .     S
N289   N355    1.294   .     S
N293   Zn309   2.020   .     S
N299   C455    1.158   .     S
O301   Zn309   1.992   .     S
O302   Zn310   1.992   .     S
O303   Zn310   2.018   .     S
O304   Zn309   2.018   .     S
O305   Zn309   2.015   .     S
O306   Zn310   2.015   .     S
O307   Zn310   2.025   .     S
O308   Zn309   2.025   .     S
C311   O365    1.295   .     A
C311   C340    1.419   .     S
C311   O363    1.276   .     A
C312   C314    1.388   .     A
C312   C327    1.458   .     S
C312   C323    1.404   .     A
C313   C344    1.388   .     A
C313   C343    1.433   .     S
C313   C315    1.396   .     A
C314   C342    1.433   .     S
C314   C316    1.396   .     A
C315   C317    1.414   .     A
C315   C328    1.452   .     S
C316   C329    1.452   .     S
C316   C318    1.414   .     A
C317   C324    1.426   .     A
C317   C319    1.434   .     A
C318   C320    1.434   .     A
C318   C325    1.426   .     A
C319   C321    1.427   .     A
C319   C878    1.412   1_554 S
C320   C323    1.427   .     A
C320   C877    1.412   .     S
C321   C339    1.414   .     A
C321   C344    1.404   .     A
C322   O366    1.295   .     A
C322   C341    1.419   .     S
C322   O364    1.276   .     A
C323   C333    1.414   .     A
C324   C330    1.456   .     S
C324   C891    1.393   1_554 S
C325   C331    1.456   .     S
C325   C897    1.393   .     S
C326   C344    1.458   .     S
C326   N356    1.158   .     T
C327   N357    1.158   .     T
C328   N358    1.156   .     T
C329   N359    1.156   .     T
C330   N546    1.158   .     S
C332   N362    1.158   .     T
C332   C333    1.459   .     S
C333   C882    1.393   .     S
C334   N352    1.158   .     T
C334   C339    1.459   .     S
C335   H346    1.110   .     S
C335   H347    1.111   .     S
C336   H350    1.110   .     S
C336   H349    1.111   .     S
C336   C527    1.539   .     S
C336   H534    1.108   .     S
C337   N353    1.157   .     T
C338   N354    1.157   .     T
C338   N231    1.384   1_655 S
C339   C883    1.393   1_554 S
C340   C521    1.539   .     S
C340   C527    1.383   .     S
C342   O367    1.284   .     A
C342   O369    1.287   .     A
C343   O368    1.284   .     A
C343   O370    1.287   .     A
H345   C521    1.108   .     S
N351   Zn372   2.020   .     S
N351   C213    1.384   1_655 S
N351   N231    1.294   1_655 S
N355   Zn371   2.020   .     S
N361   C517    1.158   .     S
O363   Zn371   1.992   .     S
O364   Zn372   1.992   .     S
O365   Zn372   2.018   .     S
O366   Zn371   2.018   .     S
O367   Zn371   2.015   .     S
O368   Zn372   2.015   .     S
O369   Zn372   2.025   .     S
O370   Zn371   2.025   .     S
C373   O427    1.295   .     A
C373   C402    1.419   .     S
C373   O425    1.276   .     A
C374   C376    1.388   .     A
C374   C389    1.458   .     S
C374   C385    1.404   .     A
C375   C406    1.388   .     A
C375   C405    1.433   .     S
C375   C377    1.396   .     A
C376   C404    1.433   .     S
C376   C378    1.396   .     A
C377   C379    1.414   .     A
C377   C390    1.452   .     S
C378   C391    1.452   .     S
C378   C380    1.414   .     A
C379   C386    1.426   .     A
C379   C381    1.434   .     A
C380   C382    1.434   .     A
C380   C387    1.426   .     A
C381   C383    1.427   .     A
C381   C940    1.412   1_554 S
C382   C385    1.427   .     A
C382   C939    1.412   .     S
C383   C401    1.414   .     A
C383   C406    1.404   .     A
C384   O428    1.295   .     A
C384   C403    1.419   .     S
C384   O426    1.276   .     A
C385   C395    1.414   .     A
C386   C392    1.456   .     S
C386   C953    1.393   1_554 S
C387   C393    1.456   .     S
C387   C959    1.393   .     S
C388   C406    1.458   .     S
C388   N418    1.158   .     T
C389   N419    1.158   .     T
C390   N420    1.156   .     T
C391   N421    1.156   .     T
C392   N50     1.158   1_565 S
C394   N424    1.158   .     T
C394   C395    1.459   .     S
C395   C944    1.393   .     S
C396   N414    1.158   .     T
C396   C401    1.459   .     S
C397   H408    1.110   .     S
C397   H409    1.111   .     S
C398   H412    1.110   .     S
C398   H411    1.111   .     S
C398   C31     1.539   1_565 S
C398   H38     1.108   1_565 S
C399   N415    1.157   .     T
C399   N537    1.384   1_455 S
C400   N416    1.157   .     T
C400   N479    1.384   .     S
C401   C945    1.393   1_554 S
C402   C25     1.539   1_565 S
C402   C31     1.383   1_565 S
C404   O429    1.284   .     A
C404   O431    1.287   .     A
C405   O430    1.284   .     A
C405   O432    1.287   .     A
H407   C25     1.108   1_565 S
N413   Zn434   2.020   .     S
N413   C461    1.384   .     S
N413   N479    1.294   .     S
N417   Zn433   2.020   .     S
N417   N537    1.294   1_455 S
N417   C524    1.384   1_455 S
N423   C21     1.158   1_565 S
O425   Zn433   1.992   .     S
O426   Zn434   1.992   .     S
O427   Zn434   2.018   .     S
O428   Zn433   2.018   .     S
O429   Zn433   2.015   .     S
O430   Zn434   2.015   .     S
O431   Zn434   2.025   .     S
O432   Zn433   2.025   .     S
C435   O489    1.295   .     A
C435   C464    1.419   .     S
C435   O487    1.276   .     A
C436   C438    1.388   .     A
C436   C451    1.458   .     S
C436   C447    1.404   .     A
C437   C468    1.388   .     A
C437   C467    1.433   .     S
C437   C439    1.396   .     A
C438   C466    1.433   .     S
C438   C440    1.396   .     A
C439   C441    1.414   .     A
C439   C452    1.452   .     S
C440   C453    1.452   .     S
C440   C442    1.414   .     A
C441   C448    1.426   .     A
C441   C443    1.434   .     A
C442   C444    1.434   .     A
C442   C449    1.426   .     A
C443   C445    1.427   .     A
C443   C1002   1.412   1_554 S
C444   C447    1.427   .     A
C444   C1001   1.412   .     S
C445   C463    1.414   .     A
C445   C468    1.404   .     A
C446   O490    1.295   .     A
C446   C465    1.419   .     S
C446   O488    1.276   .     A
C447   C457    1.414   .     A
C448   C454    1.456   .     S
C448   C1015   1.393   1_554 S
C449   C455    1.456   .     S
C449   C1021   1.393   .     S
C450   C468    1.458   .     S
C450   N480    1.158   .     T
C451   N481    1.158   .     T
C452   N482    1.156   .     T
C453   N483    1.156   .     T
C454   N112    1.158   1_565 S
C456   N486    1.158   .     T
C456   C457    1.459   .     S
C457   C1006   1.393   .     S
C458   N476    1.158   .     T
C458   C463    1.459   .     S
C459   H470    1.110   .     S
C459   H471    1.111   .     S
C460   H474    1.110   .     S
C460   H473    1.111   .     S
C460   C93     1.539   1_565 S
C460   H100    1.108   1_565 S
C461   N477    1.157   .     T
C462   N478    1.157   .     T
C462   N541    1.384   .     S
C463   C1007   1.393   1_554 S
C464   C87     1.539   1_565 S
C464   C93     1.383   1_565 S
C466   O491    1.284   .     A
C466   O493    1.287   .     A
C467   O492    1.284   .     A
C467   O494    1.287   .     A
H469   C87     1.108   1_565 S
N475   Zn496   2.020   .     S
N475   C523    1.384   .     S
N475   N541    1.294   .     S
N479   Zn495   2.020   .     S
N485   C83     1.158   1_565 S
O487   Zn495   1.992   .     S
O488   Zn496   1.992   .     S
O489   Zn496   2.018   .     S
O490   Zn495   2.018   .     S
O491   Zn495   2.015   .     S
O492   Zn496   2.015   .     S
O493   Zn496   2.025   .     S
O494   Zn495   2.025   .     S
C497   O551    1.295   .     A
C497   C526    1.419   .     S
C497   O549    1.276   .     A
C498   C500    1.388   .     A
C498   C513    1.458   .     S
C498   C509    1.404   .     A
C499   C530    1.388   .     A
C499   C529    1.433   .     S
C499   C501    1.396   .     A
C500   C528    1.433   .     S
C500   C502    1.396   .     A
C501   C503    1.414   .     A
C501   C514    1.452   .     S
C502   C515    1.452   .     S
C502   C504    1.414   .     A
C503   C510    1.426   .     A
C503   C505    1.434   .     A
C504   C506    1.434   .     A
C504   C511    1.426   .     A
C505   C507    1.427   .     A
C505   C1064   1.412   1_554 S
C506   C509    1.427   .     A
C506   C1063   1.412   .     S
C507   C525    1.414   .     A
C507   C530    1.404   .     A
C508   O552    1.295   .     A
C508   C527    1.419   .     S
C508   O550    1.276   .     A
C509   C519    1.414   .     A
C510   C516    1.456   .     S
C510   C1077   1.393   1_554 S
C511   C517    1.456   .     S
C511   C1083   1.393   .     S
C512   C530    1.458   .     S
C512   N542    1.158   .     T
C513   N543    1.158   .     T
C514   N544    1.156   .     T
C515   N545    1.156   .     T
C516   N174    1.158   1_565 S
C518   N548    1.158   .     T
C518   C519    1.459   .     S
C519   C1068   1.393   .     S
C520   N538    1.158   .     T
C520   C525    1.459   .     S
C521   H532    1.110   .     S
C521   H533    1.111   .     S
C522   H536    1.110   .     S
C522   H535    1.111   .     S
C522   C155    1.539   1_565 S
C522   H162    1.108   1_565 S
C523   N539    1.157   .     T
C524   N540    1.157   .     T
C524   N417    1.384   1_655 S
C525   C1069   1.393   1_554 S
C526   C149    1.539   1_565 S
C526   C155    1.383   1_565 S
C528   O553    1.284   .     A
C528   O555    1.287   .     A
C529   O554    1.284   .     A
C529   O556    1.287   .     A
H531   C149    1.108   1_565 S
N537   Zn558   2.020   .     S
N537   C399    1.384   1_655 S
N537   N417    1.294   1_655 S
N541   Zn557   2.020   .     S
N547   C145    1.158   1_565 S
O549   Zn557   1.992   .     S
O550   Zn558   1.992   .     S
O551   Zn558   2.018   .     S
O552   Zn557   2.018   .     S
O553   Zn557   2.015   .     S
O554   Zn558   2.015   .     S
O555   Zn558   2.025   .     S
O556   Zn557   2.025   .     S
C559   O613    1.295   .     A
C559   C588    1.419   .     S
C559   O611    1.276   .     A
C560   C562    1.388   .     A
C560   C575    1.458   .     S
C560   C571    1.404   .     A
C561   C592    1.388   .     A
C561   C591    1.433   .     S
C561   C563    1.396   .     A
C562   C590    1.433   .     S
C562   C564    1.396   .     A
C563   C565    1.414   .     A
C563   C576    1.452   .     S
C564   C577    1.452   .     S
C564   C566    1.414   .     A
C565   C572    1.426   .     A
C565   C567    1.434   .     A
C566   C568    1.434   .     A
C566   C573    1.426   .     A
C567   C569    1.427   .     A
C568   C571    1.427   .     A
C568   C9      1.412   1_556 S
C569   C587    1.414   .     A
C569   C592    1.404   .     A
C570   O614    1.295   .     A
C570   C589    1.419   .     S
C570   O612    1.276   .     A
C571   C581    1.414   .     A
C572   C578    1.456   .     S
C573   C579    1.456   .     S
C573   C29     1.393   1_556 S
C574   C592    1.458   .     S
C574   N604    1.158   .     T
C575   N605    1.158   .     T
C576   N606    1.156   .     T
C577   N607    1.156   .     T
C578   N794    1.158   .     S
C579   N981    1.158   1_545 S
C580   N610    1.158   .     T
C580   C581    1.459   .     S
C581   C14     1.393   1_556 S
C582   N600    1.158   .     T
C582   C587    1.459   .     S
C583   H594    1.110   .     S
C583   H595    1.111   .     S
C583   C960    1.539   1_545 S
C583   H965    1.108   1_545 S
C584   H598    1.110   .     S
C584   H597    1.111   .     S
C584   C775    1.539   .     S
C584   H782    1.108   .     S
C585   N601    1.157   .     T
C585   N723    1.384   1_455 S
C586   N602    1.157   .     T
C586   N665    1.384   .     S
C588   C769    1.539   .     S
C588   C775    1.383   .     S
C589   C960    1.383   1_545 S
C589   C956    1.539   1_545 S
C590   O615    1.284   .     A
C590   O617    1.287   .     A
C591   O616    1.284   .     A
C591   O618    1.287   .     A
H593   C769    1.108   .     S
H596   C956    1.108   1_545 S
N599   Zn620   2.020   .     S
N599   C647    1.384   .     S
N599   N665    1.294   .     S
N603   Zn619   2.020   .     S
N603   N723    1.294   1_455 S
N603   C710    1.384   1_455 S
N608   C950    1.158   1_545 S
N609   C765    1.158   .     S
O611   Zn619   1.992   .     S
O612   Zn620   1.992   .     S
O613   Zn620   2.018   .     S
O614   Zn619   2.018   .     S
O615   Zn619   2.015   .     S
O616   Zn620   2.015   .     S
O617   Zn620   2.025   .     S
O618   Zn619   2.025   .     S
C621   O675    1.295   .     A
C621   C650    1.419   .     S
C621   O673    1.276   .     A
C622   C624    1.388   .     A
C622   C637    1.458   .     S
C622   C633    1.404   .     A
C623   C654    1.388   .     A
C623   C653    1.433   .     S
C623   C625    1.396   .     A
C624   C652    1.433   .     S
C624   C626    1.396   .     A
C625   C627    1.414   .     A
C625   C638    1.452   .     S
C626   C639    1.452   .     S
C626   C628    1.414   .     A
C627   C634    1.426   .     A
C627   C629    1.434   .     A
C628   C630    1.434   .     A
C628   C635    1.426   .     A
C629   C631    1.427   .     A
C630   C633    1.427   .     A
C630   C71     1.412   1_556 S
C631   C649    1.414   .     A
C631   C654    1.404   .     A
C632   O676    1.295   .     A
C632   C651    1.419   .     S
C632   O674    1.276   .     A
C633   C643    1.414   .     A
C634   C640    1.456   .     S
C635   C641    1.456   .     S
C635   C91     1.393   1_556 S
C636   C654    1.458   .     S
C636   N666    1.158   .     T
C637   N667    1.158   .     T
C638   N668    1.156   .     T
C639   N669    1.156   .     T
C640   N856    1.158   .     S
C641   N1043   1.158   1_545 S
C642   N672    1.158   .     T
C642   C643    1.459   .     S
C643   C76     1.393   1_556 S
C644   N662    1.158   .     T
C644   C649    1.459   .     S
C645   H656    1.110   .     S
C645   H657    1.111   .     S
C645   C1022   1.539   1_545 S
C645   H1027   1.108   1_545 S
C646   H660    1.110   .     S
C646   H659    1.111   .     S
C646   C837    1.539   .     S
C646   H844    1.108   .     S
C647   N663    1.157   .     T
C648   N664    1.157   .     T
C648   N727    1.384   .     S
C650   C831    1.539   .     S
C650   C837    1.383   .     S
C651   C1022   1.383   1_545 S
C651   C1018   1.539   1_545 S
C652   O677    1.284   .     A
C652   O679    1.287   .     A
C653   O678    1.284   .     A
C653   O680    1.287   .     A
H655   C831    1.108   .     S
H658   C1018   1.108   1_545 S
N661   Zn682   2.020   .     S
N661   C709    1.384   .     S
N661   N727    1.294   .     S
N665   Zn681   2.020   .     S
N670   C1012   1.158   1_545 S
N671   C827    1.158   .     S
O673   Zn681   1.992   .     S
O674   Zn682   1.992   .     S
O675   Zn682   2.018   .     S
O676   Zn681   2.018   .     S
O677   Zn681   2.015   .     S
O678   Zn682   2.015   .     S
O679   Zn682   2.025   .     S
O680   Zn681   2.025   .     S
C683   O737    1.295   .     A
C683   C712    1.419   .     S
C683   O735    1.276   .     A
C684   C686    1.388   .     A
C684   C699    1.458   .     S
C684   C695    1.404   .     A
C685   C716    1.388   .     A
C685   C715    1.433   .     S
C685   C687    1.396   .     A
C686   C714    1.433   .     S
C686   C688    1.396   .     A
C687   C689    1.414   .     A
C687   C700    1.452   .     S
C688   C701    1.452   .     S
C688   C690    1.414   .     A
C689   C696    1.426   .     A
C689   C691    1.434   .     A
C690   C692    1.434   .     A
C690   C697    1.426   .     A
C691   C693    1.427   .     A
C692   C695    1.427   .     A
C692   C133    1.412   1_556 S
C693   C711    1.414   .     A
C693   C716    1.404   .     A
C694   O738    1.295   .     A
C694   C713    1.419   .     S
C694   O736    1.276   .     A
C695   C705    1.414   .     A
C696   C702    1.456   .     S
C697   C703    1.456   .     S
C697   C153    1.393   1_556 S
C698   C716    1.458   .     S
C698   N728    1.158   .     T
C699   N729    1.158   .     T
C700   N730    1.156   .     T
C701   N731    1.156   .     T
C702   N918    1.158   .     S
C703   N1105   1.158   1_545 S
C704   N734    1.158   .     T
C704   C705    1.459   .     S
C705   C138    1.393   1_556 S
C706   N724    1.158   .     T
C706   C711    1.459   .     S
C707   H718    1.110   .     S
C707   H719    1.111   .     S
C707   C1084   1.539   1_545 S
C707   H1089   1.108   1_545 S
C708   H722    1.110   .     S
C708   H721    1.111   .     S
C708   C899    1.539   .     S
C708   H906    1.108   .     S
C709   N725    1.157   .     T
C710   N726    1.157   .     T
C710   N603    1.384   1_655 S
C712   C893    1.539   .     S
C712   C899    1.383   .     S
C713   C1084   1.383   1_545 S
C713   C1080   1.539   1_545 S
C714   O739    1.284   .     A
C714   O741    1.287   .     A
C715   O740    1.284   .     A
C715   O742    1.287   .     A
H717   C893    1.108   .     S
H720   C1080   1.108   1_545 S
N723   Zn744   2.020   .     S
N723   C585    1.384   1_655 S
N723   N603    1.294   1_655 S
N727   Zn743   2.020   .     S
N732   C1074   1.158   1_545 S
N733   C889    1.158   .     S
O735   Zn743   1.992   .     S
O736   Zn744   1.992   .     S
O737   Zn744   2.018   .     S
O738   Zn743   2.018   .     S
O739   Zn743   2.015   .     S
O740   Zn744   2.015   .     S
O741   Zn744   2.025   .     S
O742   Zn743   2.025   .     S
C745   O799    1.295   .     A
C745   C774    1.419   .     S
C745   O797    1.276   .     A
C746   C748    1.388   .     A
C746   C761    1.458   .     S
C746   C757    1.404   .     A
C747   C778    1.388   .     A
C747   C777    1.433   .     S
C747   C749    1.396   .     A
C748   C776    1.433   .     S
C748   C750    1.396   .     A
C749   C751    1.414   .     A
C749   C762    1.452   .     S
C750   C763    1.452   .     S
C750   C752    1.414   .     A
C751   C758    1.426   .     A
C751   C753    1.434   .     A
C752   C754    1.434   .     A
C752   C759    1.426   .     A
C753   C755    1.427   .     A
C754   C757    1.427   .     A
C754   C195    1.412   1_556 S
C755   C773    1.414   .     A
C755   C778    1.404   .     A
C756   O800    1.295   .     A
C756   C775    1.419   .     S
C756   O798    1.276   .     A
C757   C767    1.414   .     A
C758   C764    1.456   .     S
C759   C765    1.456   .     S
C759   C215    1.393   1_556 S
C760   C778    1.458   .     S
C760   N790    1.158   .     T
C761   N791    1.158   .     T
C762   N792    1.156   .     T
C763   N793    1.156   .     T
C764   N980    1.158   .     S
C766   N796    1.158   .     T
C766   C767    1.459   .     S
C767   C200    1.393   1_556 S
C768   N786    1.158   .     T
C768   C773    1.459   .     S
C769   H780    1.110   .     S
C769   H781    1.111   .     S
C770   H784    1.110   .     S
C770   H783    1.111   .     S
C770   C961    1.539   .     S
C770   H968    1.108   .     S
C771   N787    1.157   .     T
C771   N909    1.384   1_455 S
C772   N788    1.157   .     T
C772   N851    1.384   .     S
C774   C955    1.539   .     S
C774   C961    1.383   .     S
C776   O801    1.284   .     A
C776   O803    1.287   .     A
C777   O802    1.284   .     A
C777   O804    1.287   .     A
H779   C955    1.108   .     S
N785   Zn806   2.020   .     S
N785   C833    1.384   .     S
N785   N851    1.294   .     S
N789   Zn805   2.020   .     S
N789   N909    1.294   1_455 S
N789   C896    1.384   1_455 S
N795   C951    1.158   .     S
O797   Zn805   1.992   .     S
O798   Zn806   1.992   .     S
O799   Zn806   2.018   .     S
O800   Zn805   2.018   .     S
O801   Zn805   2.015   .     S
O802   Zn806   2.015   .     S
O803   Zn806   2.025   .     S
O804   Zn805   2.025   .     S
C807   O861    1.295   .     A
C807   C836    1.419   .     S
C807   O859    1.276   .     A
C808   C810    1.388   .     A
C808   C823    1.458   .     S
C808   C819    1.404   .     A
C809   C840    1.388   .     A
C809   C839    1.433   .     S
C809   C811    1.396   .     A
C810   C838    1.433   .     S
C810   C812    1.396   .     A
C811   C813    1.414   .     A
C811   C824    1.452   .     S
C812   C825    1.452   .     S
C812   C814    1.414   .     A
C813   C820    1.426   .     A
C813   C815    1.434   .     A
C814   C816    1.434   .     A
C814   C821    1.426   .     A
C815   C817    1.427   .     A
C816   C819    1.427   .     A
C816   C257    1.412   1_556 S
C817   C835    1.414   .     A
C817   C840    1.404   .     A
C818   O862    1.295   .     A
C818   C837    1.419   .     S
C818   O860    1.276   .     A
C819   C829    1.414   .     A
C820   C826    1.456   .     S
C821   C827    1.456   .     S
C821   C277    1.393   1_556 S
C822   C840    1.458   .     S
C822   N852    1.158   .     T
C823   N853    1.158   .     T
C824   N854    1.156   .     T
C825   N855    1.156   .     T
C826   N1042   1.158   .     S
C828   N858    1.158   .     T
C828   C829    1.459   .     S
C829   C262    1.393   1_556 S
C830   N848    1.158   .     T
C830   C835    1.459   .     S
C831   H842    1.110   .     S
C831   H843    1.111   .     S
C832   H846    1.110   .     S
C832   H845    1.111   .     S
C832   C1023   1.539   .     S
C832   H1030   1.108   .     S
C833   N849    1.157   .     T
C834   N850    1.157   .     T
C834   N913    1.384   .     S
C836   C1017   1.539   .     S
C836   C1023   1.383   .     S
C838   O863    1.284   .     A
C838   O865    1.287   .     A
C839   O864    1.284   .     A
C839   O866    1.287   .     A
H841   C1017   1.108   .     S
N847   Zn868   2.020   .     S
N847   C895    1.384   .     S
N847   N913    1.294   .     S
N851   Zn867   2.020   .     S
N857   C1013   1.158   .     S
O859   Zn867   1.992   .     S
O860   Zn868   1.992   .     S
O861   Zn868   2.018   .     S
O862   Zn867   2.018   .     S
O863   Zn867   2.015   .     S
O864   Zn868   2.015   .     S
O865   Zn868   2.025   .     S
O866   Zn867   2.025   .     S
C869   O923    1.295   .     A
C869   C898    1.419   .     S
C869   O921    1.276   .     A
C870   C872    1.388   .     A
C870   C885    1.458   .     S
C870   C881    1.404   .     A
C871   C902    1.388   .     A
C871   C901    1.433   .     S
C871   C873    1.396   .     A
C872   C900    1.433   .     S
C872   C874    1.396   .     A
C873   C875    1.414   .     A
C873   C886    1.452   .     S
C874   C887    1.452   .     S
C874   C876    1.414   .     A
C875   C882    1.426   .     A
C875   C877    1.434   .     A
C876   C878    1.434   .     A
C876   C883    1.426   .     A
C877   C879    1.427   .     A
C878   C881    1.427   .     A
C878   C319    1.412   1_556 S
C879   C897    1.414   .     A
C879   C902    1.404   .     A
C880   O924    1.295   .     A
C880   C899    1.419   .     S
C880   O922    1.276   .     A
C881   C891    1.414   .     A
C882   C888    1.456   .     S
C883   C889    1.456   .     S
C883   C339    1.393   1_556 S
C884   C902    1.458   .     S
C884   N914    1.158   .     T
C885   N915    1.158   .     T
C886   N916    1.156   .     T
C887   N917    1.156   .     T
C888   N1104   1.158   .     S
C890   N920    1.158   .     T
C890   C891    1.459   .     S
C891   C324    1.393   1_556 S
C892   N910    1.158   .     T
C892   C897    1.459   .     S
C893   H904    1.110   .     S
C893   H905    1.111   .     S
C894   H908    1.110   .     S
C894   H907    1.111   .     S
C894   C1085   1.539   .     S
C894   H1092   1.108   .     S
C895   N911    1.157   .     T
C896   N912    1.157   .     T
C896   N789    1.384   1_655 S
C898   C1079   1.539   .     S
C898   C1085   1.383   .     S
C900   O925    1.284   .     A
C900   O927    1.287   .     A
C901   O926    1.284   .     A
C901   O928    1.287   .     A
H903   C1079   1.108   .     S
N909   Zn930   2.020   .     S
N909   C771    1.384   1_655 S
N909   N789    1.294   1_655 S
N913   Zn929   2.020   .     S
N919   C1075   1.158   .     S
O921   Zn929   1.992   .     S
O922   Zn930   1.992   .     S
O923   Zn930   2.018   .     S
O924   Zn929   2.018   .     S
O925   Zn929   2.015   .     S
O926   Zn930   2.015   .     S
O927   Zn930   2.025   .     S
O928   Zn929   2.025   .     S
C931   O985    1.295   .     A
C931   C960    1.419   .     S
C931   O983    1.276   .     A
C932   C934    1.388   .     A
C932   C947    1.458   .     S
C932   C943    1.404   .     A
C933   C964    1.388   .     A
C933   C963    1.433   .     S
C933   C935    1.396   .     A
C934   C962    1.433   .     S
C934   C936    1.396   .     A
C935   C937    1.414   .     A
C935   C948    1.452   .     S
C936   C949    1.452   .     S
C936   C938    1.414   .     A
C937   C944    1.426   .     A
C937   C939    1.434   .     A
C938   C940    1.434   .     A
C938   C945    1.426   .     A
C939   C941    1.427   .     A
C940   C943    1.427   .     A
C940   C381    1.412   1_556 S
C941   C959    1.414   .     A
C941   C964    1.404   .     A
C942   O986    1.295   .     A
C942   C961    1.419   .     S
C942   O984    1.276   .     A
C943   C953    1.414   .     A
C944   C950    1.456   .     S
C945   C951    1.456   .     S
C945   C401    1.393   1_556 S
C946   C964    1.458   .     S
C946   N976    1.158   .     T
C947   N977    1.158   .     T
C948   N978    1.156   .     T
C949   N979    1.156   .     T
C950   N608    1.158   1_565 S
C952   N982    1.158   .     T
C952   C953    1.459   .     S
C953   C386    1.393   1_556 S
C954   N972    1.158   .     T
C954   C959    1.459   .     S
C955   H966    1.110   .     S
C955   H967    1.111   .     S
C956   H970    1.110   .     S
C956   H969    1.111   .     S
C956   C589    1.539   1_565 S
C956   H596    1.108   1_565 S
C957   N973    1.157   .     T
C957   N1095   1.384   1_455 S
C958   N974    1.157   .     T
C958   N1037   1.384   .     S
C960   C583    1.539   1_565 S
C960   C589    1.383   1_565 S
C962   O987    1.284   .     A
C962   O989    1.287   .     A
C963   O988    1.284   .     A
C963   O990    1.287   .     A
H965   C583    1.108   1_565 S
N971   Zn992   2.020   .     S
N971   C1019   1.384   .     S
N971   N1037   1.294   .     S
N975   Zn991   2.020   .     S
N975   N1095   1.294   1_455 S
N975   C1082   1.384   1_455 S
N981   C579    1.158   1_565 S
O983   Zn991   1.992   .     S
O984   Zn992   1.992   .     S
O985   Zn992   2.018   .     S
O986   Zn991   2.018   .     S
O987   Zn991   2.015   .     S
O988   Zn992   2.015   .     S
O989   Zn992   2.025   .     S
O990   Zn991   2.025   .     S
C993   O1047   1.295   .     A
C993   C1022   1.419   .     S
C993   O1045   1.276   .     A
C994   C996    1.388   .     A
C994   C1009   1.458   .     S
C994   C1005   1.404   .     A
C995   C1026   1.388   .     A
C995   C1025   1.433   .     S
C995   C997    1.396   .     A
C996   C1024   1.433   .     S
C996   C998    1.396   .     A
C997   C999    1.414   .     A
C997   C1010   1.452   .     S
C998   C1011   1.452   .     S
C998   C1000   1.414   .     A
C999   C1006   1.426   .     A
C999   C1001   1.434   .     A
C1000  C1002   1.434   .     A
C1000  C1007   1.426   .     A
C1001  C1003   1.427   .     A
C1002  C1005   1.427   .     A
C1002  C443    1.412   1_556 S
C1003  C1021   1.414   .     A
C1003  C1026   1.404   .     A
C1004  O1048   1.295   .     A
C1004  C1023   1.419   .     S
C1004  O1046   1.276   .     A
C1005  C1015   1.414   .     A
C1006  C1012   1.456   .     S
C1007  C1013   1.456   .     S
C1007  C463    1.393   1_556 S
C1008  C1026   1.458   .     S
C1008  N1038   1.158   .     T
C1009  N1039   1.158   .     T
C1010  N1040   1.156   .     T
C1011  N1041   1.156   .     T
C1012  N670    1.158   1_565 S
C1014  N1044   1.158   .     T
C1014  C1015   1.459   .     S
C1015  C448    1.393   1_556 S
C1016  N1034   1.158   .     T
C1016  C1021   1.459   .     S
C1017  H1028   1.110   .     S
C1017  H1029   1.111   .     S
C1018  H1032   1.110   .     S
C1018  H1031   1.111   .     S
C1018  C651    1.539   1_565 S
C1018  H658    1.108   1_565 S
C1019  N1035   1.157   .     T
C1020  N1036   1.157   .     T
C1020  N1099   1.384   .     S
C1022  C645    1.539   1_565 S
C1022  C651    1.383   1_565 S
C1024  O1049   1.284   .     A
C1024  O1051   1.287   .     A
C1025  O1050   1.284   .     A
C1025  O1052   1.287   .     A
H1027  C645    1.108   1_565 S
N1033  Zn1054  2.020   .     S
N1033  C1081   1.384   .     S
N1033  N1099   1.294   .     S
N1037  Zn1053  2.020   .     S
N1043  C641    1.158   1_565 S
O1045  Zn1053  1.992   .     S
O1046  Zn1054  1.992   .     S
O1047  Zn1054  2.018   .     S
O1048  Zn1053  2.018   .     S
O1049  Zn1053  2.015   .     S
O1050  Zn1054  2.015   .     S
O1051  Zn1054  2.025   .     S
O1052  Zn1053  2.025   .     S
C1055  O1109   1.295   .     A
C1055  C1084   1.419   .     S
C1055  O1107   1.276   .     A
C1056  C1058   1.388   .     A
C1056  C1071   1.458   .     S
C1056  C1067   1.404   .     A
C1057  C1088   1.388   .     A
C1057  C1087   1.433   .     S
C1057  C1059   1.396   .     A
C1058  C1086   1.433   .     S
C1058  C1060   1.396   .     A
C1059  C1061   1.414   .     A
C1059  C1072   1.452   .     S
C1060  C1073   1.452   .     S
C1060  C1062   1.414   .     A
C1061  C1068   1.426   .     A
C1061  C1063   1.434   .     A
C1062  C1064   1.434   .     A
C1062  C1069   1.426   .     A
C1063  C1065   1.427   .     A
C1064  C1067   1.427   .     A
C1064  C505    1.412   1_556 S
C1065  C1083   1.414   .     A
C1065  C1088   1.404   .     A
C1066  O1110   1.295   .     A
C1066  C1085   1.419   .     S
C1066  O1108   1.276   .     A
C1067  C1077   1.414   .     A
C1068  C1074   1.456   .     S
C1069  C1075   1.456   .     S
C1069  C525    1.393   1_556 S
C1070  C1088   1.458   .     S
C1070  N1100   1.158   .     T
C1071  N1101   1.158   .     T
C1072  N1102   1.156   .     T
C1073  N1103   1.156   .     T
C1074  N732    1.158   1_565 S
C1076  N1106   1.158   .     T
C1076  C1077   1.459   .     S
C1077  C510    1.393   1_556 S
C1078  N1096   1.158   .     T
C1078  C1083   1.459   .     S
C1079  H1090   1.110   .     S
C1079  H1091   1.111   .     S
C1080  H1094   1.110   .     S
C1080  H1093   1.111   .     S
C1080  C713    1.539   1_565 S
C1080  H720    1.108   1_565 S
C1081  N1097   1.157   .     T
C1082  N1098   1.157   .     T
C1082  N975    1.384   1_655 S
C1084  C707    1.539   1_565 S
C1084  C713    1.383   1_565 S
C1086  O1111   1.284   .     A
C1086  O1113   1.287   .     A
C1087  O1112   1.284   .     A
C1087  O1114   1.287   .     A
H1089  C707    1.108   1_565 S
N1095  Zn1116  2.020   .     S
N1095  C957    1.384   1_655 S
N1095  N975    1.294   1_655 S
N1099  Zn1115  2.020   .     S
N1105  C703    1.158   1_565 S
O1107  Zn1115  1.992   .     S
O1108  Zn1116  1.992   .     S
O1109  Zn1116  2.018   .     S
O1110  Zn1115  2.018   .     S
O1111  Zn1115  2.015   .     S
O1112  Zn1116  2.015   .     S
O1113  Zn1116  2.025   .     S
O1114  Zn1115  2.025   .     S
