data_str_m3_o1_o10_pcu_sym.101
_audit_creation_date              2020-01-03
_audit_creation_method            'Materials Studio'
_symmetry_space_group_name_H-M    'P1'
_symmetry_Int_Tables_number       1
_symmetry_cell_setting            triclinic
loop_
_symmetry_equiv_pos_as_xyz
  x,y,z
_cell_length_a                    25.8587
_cell_length_b                    32.1514
_cell_length_c                    30.0293
_cell_angle_alpha                 89.9820
_cell_angle_beta                  97.9669
_cell_angle_gamma                 93.7814
loop_
_atom_site_label
_atom_site_type_symbol
_atom_site_fract_x
_atom_site_fract_y
_atom_site_fract_z
_atom_site_U_iso_or_equiv
_atom_site_adp_type
_atom_site_occupancy
C1     C     0.16650   0.08679   0.16663   0.00000  Uiso   1.00
C2     C     0.16683   0.24654   0.16670   0.00000  Uiso   1.00
C3     C     0.06743   0.16544   0.15524   0.00000  Uiso   1.00
C4     C     0.26590   0.16789   0.17809   0.00000  Uiso   1.00
C5     C     0.01269   0.15768   0.15124   0.00000  Uiso   1.00
C6     C     0.32064   0.17565   0.18209   0.00000  Uiso   1.00
C7     C     0.17228   0.02162   0.12701   0.00000  Uiso   1.00
C8     C     0.16105   0.31171   0.20632   0.00000  Uiso   1.00
C9     C     0.17242   0.31235   0.12704   0.00000  Uiso   1.00
C10    C     0.16091   0.02098   0.20629   0.00000  Uiso   1.00
C11    C     0.16680   0.29079   0.16669   0.00000  Uiso   1.00
C12    C     0.16653   0.04254   0.16664   0.00000  Uiso   1.00
C13    C     0.20061   0.19340   0.02795   0.00000  Uiso   1.00
C14    C     0.13272   0.13993   0.30539   0.00000  Uiso   1.00
C15    C     0.20049   0.19346   0.31351   0.00000  Uiso   1.00
C16    C     0.13284   0.13988   0.01982   0.00000  Uiso   1.00
H17    H     0.17687   0.03801   0.09612   0.00000  Uiso   1.00
H18    H     0.15647   0.29532   0.23722   0.00000  Uiso   1.00
H19    H     0.17704   0.29649   0.09617   0.00000  Uiso   1.00
H20    H     0.15629   0.03684   0.23717   0.00000  Uiso   1.00
N21    N     0.16665   0.16666   0.28573   0.00000  Uiso   1.00
N22    N     0.16668   0.16668   0.04760   0.00000  Uiso   1.00
O23    O     0.16666   0.10558   0.20487   0.00000  Uiso   1.00
O24    O     0.16667   0.22775   0.12846   0.00000  Uiso   1.00
O25    O     0.16666   0.10559   0.12843   0.00000  Uiso   1.00
O26    O     0.16667   0.22774   0.20490   0.00000  Uiso   1.00
O27    O     0.09058   0.16666   0.19595   0.00000  Uiso   1.00
O28    O     0.24275   0.16667   0.13739   0.00000  Uiso   1.00
O29    O     0.09058   0.16667   0.11950   0.00000  Uiso   1.00
O30    O     0.24275   0.16666   0.21383   0.00000  Uiso   1.00
Zn31   Zn    0.16667   0.16666   0.21771   0.00000  Uiso   1.00
Zn32   Zn    0.16667   0.16667   0.11563   0.00000  Uiso   1.00
C33    C     0.32209   0.12311   0.11858   0.00000  Uiso   1.00
H34    H     0.01920   0.10396   0.10810   0.00000  Uiso   1.00
H35    H     0.29522   0.10129   0.13461   0.00000  Uiso   1.00
H36    H     0.30092   0.13665   0.08783   0.00000  Uiso   1.00
C37    C     0.01124   0.21022   0.21475   0.00000  Uiso   1.00
H38    H     0.31413   0.22937   0.22524   0.00000  Uiso   1.00
H39    H     0.03242   0.19668   0.24550   0.00000  Uiso   1.00
H40    H     0.03811   0.23204   0.19872   0.00000  Uiso   1.00
C41    C     0.23933   0.22344   0.05613   0.00000  Uiso   1.00
H42    H     0.27991   0.21633   0.05233   0.00000  Uiso   1.00
H43    H     0.23271   0.25597   0.04571   0.00000  Uiso   1.00
H44    H     0.23700   0.22270   0.09189   0.00000  Uiso   1.00
C45    C     0.09401   0.10990   0.27720   0.00000  Uiso   1.00
H46    H     0.10062   0.07736   0.28762   0.00000  Uiso   1.00
H47    H     0.05342   0.11700   0.28101   0.00000  Uiso   1.00
H48    H     0.09633   0.11064   0.24144   0.00000  Uiso   1.00
C49    C     0.23849   0.22395   0.29448   0.00000  Uiso   1.00
H50    H     0.23634   0.22254   0.25828   0.00000  Uiso   1.00
H51    H     0.23063   0.25639   0.30264   0.00000  Uiso   1.00
H52    H     0.27932   0.21782   0.30829   0.00000  Uiso   1.00
C53    C     0.09484   0.10938   0.03885   0.00000  Uiso   1.00
H54    H     0.09699   0.11079   0.07506   0.00000  Uiso   1.00
H55    H     0.05401   0.11551   0.02504   0.00000  Uiso   1.00
H56    H     0.10271   0.07694   0.03069   0.00000  Uiso   1.00
C57    C     0.49984   0.08679   0.16663   0.00000  Uiso   1.00
C58    C     0.50016   0.24654   0.16670   0.00000  Uiso   1.00
C59    C     0.40077   0.16544   0.15524   0.00000  Uiso   1.00
C60    C     0.59923   0.16789   0.17809   0.00000  Uiso   1.00
C61    C     0.34603   0.15768   0.15124   0.00000  Uiso   1.00
C62    C     0.65397   0.17565   0.18209   0.00000  Uiso   1.00
C63    C     0.50561   0.02162   0.12701   0.00000  Uiso   1.00
C64    C     0.49439   0.31171   0.20632   0.00000  Uiso   1.00
C65    C     0.50575   0.31235   0.12704   0.00000  Uiso   1.00
C66    C     0.49425   0.02098   0.20629   0.00000  Uiso   1.00
C67    C     0.50014   0.29079   0.16669   0.00000  Uiso   1.00
C68    C     0.49986   0.04254   0.16664   0.00000  Uiso   1.00
C69    C     0.53394   0.19340   0.02795   0.00000  Uiso   1.00
C70    C     0.46606   0.13993   0.30539   0.00000  Uiso   1.00
C71    C     0.53383   0.19346   0.31351   0.00000  Uiso   1.00
C72    C     0.46617   0.13988   0.01982   0.00000  Uiso   1.00
H73    H     0.51020   0.03801   0.09612   0.00000  Uiso   1.00
H74    H     0.48980   0.29532   0.23722   0.00000  Uiso   1.00
H75    H     0.51038   0.29649   0.09617   0.00000  Uiso   1.00
H76    H     0.48962   0.03684   0.23717   0.00000  Uiso   1.00
N77    N     0.49999   0.16666   0.28573   0.00000  Uiso   1.00
N78    N     0.50001   0.16668   0.04760   0.00000  Uiso   1.00
O79    O     0.50000   0.10558   0.20487   0.00000  Uiso   1.00
O80    O     0.50000   0.22775   0.12846   0.00000  Uiso   1.00
O81    O     0.50000   0.10559   0.12843   0.00000  Uiso   1.00
O82    O     0.50000   0.22774   0.20490   0.00000  Uiso   1.00
O83    O     0.42392   0.16666   0.19595   0.00000  Uiso   1.00
O84    O     0.57608   0.16667   0.13739   0.00000  Uiso   1.00
O85    O     0.42392   0.16667   0.11950   0.00000  Uiso   1.00
O86    O     0.57608   0.16666   0.21383   0.00000  Uiso   1.00
Zn87   Zn    0.50000   0.16666   0.21771   0.00000  Uiso   1.00
Zn88   Zn    0.50000   0.16667   0.11563   0.00000  Uiso   1.00
C89    C     0.65543   0.12311   0.11858   0.00000  Uiso   1.00
H90    H     0.35253   0.10396   0.10810   0.00000  Uiso   1.00
H91    H     0.62856   0.10129   0.13461   0.00000  Uiso   1.00
H92    H     0.63425   0.13665   0.08783   0.00000  Uiso   1.00
C93    C     0.34457   0.21022   0.21475   0.00000  Uiso   1.00
H94    H     0.64747   0.22937   0.22524   0.00000  Uiso   1.00
H95    H     0.36575   0.19668   0.24550   0.00000  Uiso   1.00
H96    H     0.37144   0.23204   0.19872   0.00000  Uiso   1.00
C97    C     0.57266   0.22344   0.05613   0.00000  Uiso   1.00
H98    H     0.61325   0.21633   0.05233   0.00000  Uiso   1.00
H99    H     0.56605   0.25597   0.04571   0.00000  Uiso   1.00
H100   H     0.57033   0.22270   0.09189   0.00000  Uiso   1.00
C101   C     0.42734   0.10990   0.27720   0.00000  Uiso   1.00
H102   H     0.43395   0.07736   0.28762   0.00000  Uiso   1.00
H103   H     0.38675   0.11700   0.28101   0.00000  Uiso   1.00
H104   H     0.42967   0.11064   0.24144   0.00000  Uiso   1.00
C105   C     0.57183   0.22395   0.29448   0.00000  Uiso   1.00
H106   H     0.56967   0.22254   0.25828   0.00000  Uiso   1.00
H107   H     0.56396   0.25639   0.30264   0.00000  Uiso   1.00
H108   H     0.61265   0.21782   0.30829   0.00000  Uiso   1.00
C109   C     0.42817   0.10938   0.03885   0.00000  Uiso   1.00
H110   H     0.43033   0.11079   0.07506   0.00000  Uiso   1.00
H111   H     0.38735   0.11551   0.02504   0.00000  Uiso   1.00
H112   H     0.43604   0.07694   0.03069   0.00000  Uiso   1.00
C113   C     0.83317   0.08679   0.16663   0.00000  Uiso   1.00
C114   C     0.83350   0.24654   0.16670   0.00000  Uiso   1.00
C115   C     0.73410   0.16544   0.15524   0.00000  Uiso   1.00
C116   C     0.93257   0.16789   0.17809   0.00000  Uiso   1.00
C117   C     0.67936   0.15768   0.15124   0.00000  Uiso   1.00
C118   C     0.98731   0.17565   0.18209   0.00000  Uiso   1.00
C119   C     0.83895   0.02162   0.12701   0.00000  Uiso   1.00
C120   C     0.82772   0.31171   0.20632   0.00000  Uiso   1.00
C121   C     0.83909   0.31235   0.12704   0.00000  Uiso   1.00
C122   C     0.82758   0.02098   0.20629   0.00000  Uiso   1.00
C123   C     0.83347   0.29079   0.16669   0.00000  Uiso   1.00
C124   C     0.83320   0.04254   0.16664   0.00000  Uiso   1.00
C125   C     0.86728   0.19340   0.02795   0.00000  Uiso   1.00
C126   C     0.79939   0.13993   0.30539   0.00000  Uiso   1.00
C127   C     0.86716   0.19346   0.31351   0.00000  Uiso   1.00
C128   C     0.79951   0.13988   0.01982   0.00000  Uiso   1.00
H129   H     0.84353   0.03801   0.09612   0.00000  Uiso   1.00
H130   H     0.82313   0.29532   0.23722   0.00000  Uiso   1.00
H131   H     0.84371   0.29649   0.09617   0.00000  Uiso   1.00
H132   H     0.82296   0.03684   0.23717   0.00000  Uiso   1.00
N133   N     0.83332   0.16666   0.28573   0.00000  Uiso   1.00
N134   N     0.83335   0.16668   0.04760   0.00000  Uiso   1.00
O135   O     0.83333   0.10558   0.20487   0.00000  Uiso   1.00
O136   O     0.83334   0.22775   0.12846   0.00000  Uiso   1.00
O137   O     0.83333   0.10559   0.12843   0.00000  Uiso   1.00
O138   O     0.83334   0.22774   0.20490   0.00000  Uiso   1.00
O139   O     0.75725   0.16666   0.19595   0.00000  Uiso   1.00
O140   O     0.90942   0.16667   0.13739   0.00000  Uiso   1.00
O141   O     0.75725   0.16667   0.11950   0.00000  Uiso   1.00
O142   O     0.90942   0.16666   0.21383   0.00000  Uiso   1.00
Zn143  Zn    0.83333   0.16666   0.21771   0.00000  Uiso   1.00
Zn144  Zn    0.83333   0.16667   0.11563   0.00000  Uiso   1.00
C145   C     0.98876   0.12311   0.11858   0.00000  Uiso   1.00
H146   H     0.68587   0.10396   0.10810   0.00000  Uiso   1.00
H147   H     0.96189   0.10129   0.13461   0.00000  Uiso   1.00
H148   H     0.96758   0.13665   0.08783   0.00000  Uiso   1.00
C149   C     0.67791   0.21022   0.21475   0.00000  Uiso   1.00
H150   H     0.98080   0.22937   0.22524   0.00000  Uiso   1.00
H151   H     0.69908   0.19668   0.24550   0.00000  Uiso   1.00
H152   H     0.70477   0.23204   0.19872   0.00000  Uiso   1.00
C153   C     0.90599   0.22344   0.05613   0.00000  Uiso   1.00
H154   H     0.94658   0.21633   0.05233   0.00000  Uiso   1.00
H155   H     0.89938   0.25597   0.04571   0.00000  Uiso   1.00
H156   H     0.90367   0.22270   0.09189   0.00000  Uiso   1.00
C157   C     0.76067   0.10990   0.27720   0.00000  Uiso   1.00
H158   H     0.76729   0.07736   0.28762   0.00000  Uiso   1.00
H159   H     0.72009   0.11700   0.28101   0.00000  Uiso   1.00
H160   H     0.76300   0.11064   0.24144   0.00000  Uiso   1.00
C161   C     0.90516   0.22395   0.29448   0.00000  Uiso   1.00
H162   H     0.90301   0.22254   0.25828   0.00000  Uiso   1.00
H163   H     0.89729   0.25639   0.30264   0.00000  Uiso   1.00
H164   H     0.94599   0.21782   0.30829   0.00000  Uiso   1.00
C165   C     0.76151   0.10938   0.03885   0.00000  Uiso   1.00
H166   H     0.76366   0.11079   0.07506   0.00000  Uiso   1.00
H167   H     0.72068   0.11551   0.02504   0.00000  Uiso   1.00
H168   H     0.76938   0.07694   0.03069   0.00000  Uiso   1.00
C169   C     0.16650   0.42012   0.16663   0.00000  Uiso   1.00
C170   C     0.16683   0.57988   0.16670   0.00000  Uiso   1.00
C171   C     0.06743   0.49877   0.15524   0.00000  Uiso   1.00
C172   C     0.26590   0.50123   0.17809   0.00000  Uiso   1.00
C173   C     0.01269   0.49101   0.15124   0.00000  Uiso   1.00
C174   C     0.32064   0.50899   0.18209   0.00000  Uiso   1.00
C175   C     0.17228   0.35496   0.12701   0.00000  Uiso   1.00
C176   C     0.16105   0.64504   0.20632   0.00000  Uiso   1.00
C177   C     0.17242   0.64569   0.12704   0.00000  Uiso   1.00
C178   C     0.16091   0.35431   0.20629   0.00000  Uiso   1.00
C179   C     0.16680   0.62412   0.16669   0.00000  Uiso   1.00
C180   C     0.16653   0.37587   0.16664   0.00000  Uiso   1.00
C181   C     0.20061   0.52674   0.02795   0.00000  Uiso   1.00
C182   C     0.13272   0.47326   0.30539   0.00000  Uiso   1.00
C183   C     0.20049   0.52679   0.31351   0.00000  Uiso   1.00
C184   C     0.13284   0.47321   0.01982   0.00000  Uiso   1.00
H185   H     0.17687   0.37135   0.09612   0.00000  Uiso   1.00
H186   H     0.15647   0.62865   0.23722   0.00000  Uiso   1.00
H187   H     0.17704   0.62982   0.09617   0.00000  Uiso   1.00
H188   H     0.15629   0.37018   0.23717   0.00000  Uiso   1.00
N189   N     0.16665   0.49999   0.28573   0.00000  Uiso   1.00
N190   N     0.16668   0.50001   0.04760   0.00000  Uiso   1.00
O191   O     0.16666   0.43892   0.20487   0.00000  Uiso   1.00
O192   O     0.16667   0.56108   0.12846   0.00000  Uiso   1.00
O193   O     0.16666   0.43893   0.12843   0.00000  Uiso   1.00
O194   O     0.16667   0.56107   0.20490   0.00000  Uiso   1.00
O195   O     0.09058   0.50000   0.19595   0.00000  Uiso   1.00
O196   O     0.24275   0.50000   0.13739   0.00000  Uiso   1.00
O197   O     0.09058   0.50000   0.11950   0.00000  Uiso   1.00
O198   O     0.24275   0.50000   0.21383   0.00000  Uiso   1.00
Zn199  Zn    0.16667   0.49999   0.21771   0.00000  Uiso   1.00
Zn200  Zn    0.16667   0.50001   0.11563   0.00000  Uiso   1.00
C201   C     0.32209   0.45644   0.11858   0.00000  Uiso   1.00
H202   H     0.01920   0.43730   0.10810   0.00000  Uiso   1.00
H203   H     0.29522   0.43463   0.13461   0.00000  Uiso   1.00
H204   H     0.30092   0.46999   0.08783   0.00000  Uiso   1.00
C205   C     0.01124   0.54356   0.21475   0.00000  Uiso   1.00
H206   H     0.31413   0.56270   0.22524   0.00000  Uiso   1.00
H207   H     0.03242   0.53001   0.24550   0.00000  Uiso   1.00
H208   H     0.03811   0.56537   0.19872   0.00000  Uiso   1.00
C209   C     0.23933   0.55677   0.05613   0.00000  Uiso   1.00
H210   H     0.27991   0.54966   0.05233   0.00000  Uiso   1.00
H211   H     0.23271   0.58931   0.04571   0.00000  Uiso   1.00
H212   H     0.23700   0.55603   0.09189   0.00000  Uiso   1.00
C213   C     0.09401   0.44323   0.27720   0.00000  Uiso   1.00
H214   H     0.10062   0.41069   0.28762   0.00000  Uiso   1.00
H215   H     0.05342   0.45033   0.28101   0.00000  Uiso   1.00
H216   H     0.09633   0.44397   0.24144   0.00000  Uiso   1.00
C217   C     0.23849   0.55729   0.29448   0.00000  Uiso   1.00
H218   H     0.23634   0.55588   0.25828   0.00000  Uiso   1.00
H219   H     0.23063   0.58972   0.30264   0.00000  Uiso   1.00
H220   H     0.27932   0.55115   0.30829   0.00000  Uiso   1.00
C221   C     0.09484   0.44271   0.03885   0.00000  Uiso   1.00
H222   H     0.09699   0.44412   0.07506   0.00000  Uiso   1.00
H223   H     0.05401   0.44885   0.02504   0.00000  Uiso   1.00
H224   H     0.10271   0.41028   0.03069   0.00000  Uiso   1.00
C225   C     0.49984   0.42012   0.16663   0.00000  Uiso   1.00
C226   C     0.50016   0.57988   0.16670   0.00000  Uiso   1.00
C227   C     0.40077   0.49877   0.15524   0.00000  Uiso   1.00
C228   C     0.59923   0.50123   0.17809   0.00000  Uiso   1.00
C229   C     0.34603   0.49101   0.15124   0.00000  Uiso   1.00
C230   C     0.65397   0.50899   0.18209   0.00000  Uiso   1.00
C231   C     0.50561   0.35496   0.12701   0.00000  Uiso   1.00
C232   C     0.49439   0.64504   0.20632   0.00000  Uiso   1.00
C233   C     0.50575   0.64569   0.12704   0.00000  Uiso   1.00
C234   C     0.49425   0.35431   0.20629   0.00000  Uiso   1.00
C235   C     0.50014   0.62412   0.16669   0.00000  Uiso   1.00
C236   C     0.49986   0.37587   0.16664   0.00000  Uiso   1.00
C237   C     0.53394   0.52674   0.02795   0.00000  Uiso   1.00
C238   C     0.46606   0.47326   0.30539   0.00000  Uiso   1.00
C239   C     0.53383   0.52679   0.31351   0.00000  Uiso   1.00
C240   C     0.46617   0.47321   0.01982   0.00000  Uiso   1.00
H241   H     0.51020   0.37135   0.09612   0.00000  Uiso   1.00
H242   H     0.48980   0.62865   0.23722   0.00000  Uiso   1.00
H243   H     0.51038   0.62982   0.09617   0.00000  Uiso   1.00
H244   H     0.48962   0.37018   0.23717   0.00000  Uiso   1.00
N245   N     0.49999   0.49999   0.28573   0.00000  Uiso   1.00
N246   N     0.50001   0.50001   0.04760   0.00000  Uiso   1.00
O247   O     0.50000   0.43892   0.20487   0.00000  Uiso   1.00
O248   O     0.50000   0.56108   0.12846   0.00000  Uiso   1.00
O249   O     0.50000   0.43893   0.12843   0.00000  Uiso   1.00
O250   O     0.50000   0.56107   0.20490   0.00000  Uiso   1.00
O251   O     0.42392   0.50000   0.19595   0.00000  Uiso   1.00
O252   O     0.57608   0.50000   0.13739   0.00000  Uiso   1.00
O253   O     0.42392   0.50000   0.11950   0.00000  Uiso   1.00
O254   O     0.57608   0.50000   0.21383   0.00000  Uiso   1.00
Zn255  Zn    0.50000   0.49999   0.21771   0.00000  Uiso   1.00
Zn256  Zn    0.50000   0.50001   0.11563   0.00000  Uiso   1.00
C257   C     0.65543   0.45644   0.11858   0.00000  Uiso   1.00
H258   H     0.35253   0.43730   0.10810   0.00000  Uiso   1.00
H259   H     0.62856   0.43463   0.13461   0.00000  Uiso   1.00
H260   H     0.63425   0.46999   0.08783   0.00000  Uiso   1.00
C261   C     0.34457   0.54356   0.21475   0.00000  Uiso   1.00
H262   H     0.64747   0.56270   0.22524   0.00000  Uiso   1.00
H263   H     0.36575   0.53001   0.24550   0.00000  Uiso   1.00
H264   H     0.37144   0.56537   0.19872   0.00000  Uiso   1.00
C265   C     0.57266   0.55677   0.05613   0.00000  Uiso   1.00
H266   H     0.61325   0.54966   0.05233   0.00000  Uiso   1.00
H267   H     0.56605   0.58931   0.04571   0.00000  Uiso   1.00
H268   H     0.57033   0.55603   0.09189   0.00000  Uiso   1.00
C269   C     0.42734   0.44323   0.27720   0.00000  Uiso   1.00
H270   H     0.43395   0.41069   0.28762   0.00000  Uiso   1.00
H271   H     0.38675   0.45033   0.28101   0.00000  Uiso   1.00
H272   H     0.42967   0.44397   0.24144   0.00000  Uiso   1.00
C273   C     0.57183   0.55729   0.29448   0.00000  Uiso   1.00
H274   H     0.56967   0.55588   0.25828   0.00000  Uiso   1.00
H275   H     0.56396   0.58972   0.30264   0.00000  Uiso   1.00
H276   H     0.61265   0.55115   0.30829   0.00000  Uiso   1.00
C277   C     0.42817   0.44271   0.03885   0.00000  Uiso   1.00
H278   H     0.43033   0.44412   0.07506   0.00000  Uiso   1.00
H279   H     0.38735   0.44885   0.02504   0.00000  Uiso   1.00
H280   H     0.43604   0.41028   0.03069   0.00000  Uiso   1.00
C281   C     0.83317   0.42012   0.16663   0.00000  Uiso   1.00
C282   C     0.83350   0.57988   0.16670   0.00000  Uiso   1.00
C283   C     0.73410   0.49877   0.15524   0.00000  Uiso   1.00
C284   C     0.93257   0.50123   0.17809   0.00000  Uiso   1.00
C285   C     0.67936   0.49101   0.15124   0.00000  Uiso   1.00
C286   C     0.98731   0.50899   0.18209   0.00000  Uiso   1.00
C287   C     0.83895   0.35496   0.12701   0.00000  Uiso   1.00
C288   C     0.82772   0.64504   0.20632   0.00000  Uiso   1.00
C289   C     0.83909   0.64569   0.12704   0.00000  Uiso   1.00
C290   C     0.82758   0.35431   0.20629   0.00000  Uiso   1.00
C291   C     0.83347   0.62412   0.16669   0.00000  Uiso   1.00
C292   C     0.83320   0.37587   0.16664   0.00000  Uiso   1.00
C293   C     0.86728   0.52674   0.02795   0.00000  Uiso   1.00
C294   C     0.79939   0.47326   0.30539   0.00000  Uiso   1.00
C295   C     0.86716   0.52679   0.31351   0.00000  Uiso   1.00
C296   C     0.79951   0.47321   0.01982   0.00000  Uiso   1.00
H297   H     0.84353   0.37135   0.09612   0.00000  Uiso   1.00
H298   H     0.82313   0.62865   0.23722   0.00000  Uiso   1.00
H299   H     0.84371   0.62982   0.09617   0.00000  Uiso   1.00
H300   H     0.82296   0.37018   0.23717   0.00000  Uiso   1.00
N301   N     0.83332   0.49999   0.28573   0.00000  Uiso   1.00
N302   N     0.83335   0.50001   0.04760   0.00000  Uiso   1.00
O303   O     0.83333   0.43892   0.20487   0.00000  Uiso   1.00
O304   O     0.83334   0.56108   0.12846   0.00000  Uiso   1.00
O305   O     0.83333   0.43893   0.12843   0.00000  Uiso   1.00
O306   O     0.83334   0.56107   0.20490   0.00000  Uiso   1.00
O307   O     0.75725   0.50000   0.19595   0.00000  Uiso   1.00
O308   O     0.90942   0.50000   0.13739   0.00000  Uiso   1.00
O309   O     0.75725   0.50000   0.11950   0.00000  Uiso   1.00
O310   O     0.90942   0.50000   0.21383   0.00000  Uiso   1.00
Zn311  Zn    0.83333   0.49999   0.21771   0.00000  Uiso   1.00
Zn312  Zn    0.83333   0.50001   0.11563   0.00000  Uiso   1.00
C313   C     0.98876   0.45644   0.11858   0.00000  Uiso   1.00
H314   H     0.68587   0.43730   0.10810   0.00000  Uiso   1.00
H315   H     0.96189   0.43463   0.13461   0.00000  Uiso   1.00
H316   H     0.96758   0.46999   0.08783   0.00000  Uiso   1.00
C317   C     0.67791   0.54356   0.21475   0.00000  Uiso   1.00
H318   H     0.98080   0.56270   0.22524   0.00000  Uiso   1.00
H319   H     0.69908   0.53001   0.24550   0.00000  Uiso   1.00
H320   H     0.70477   0.56537   0.19872   0.00000  Uiso   1.00
C321   C     0.90599   0.55677   0.05613   0.00000  Uiso   1.00
H322   H     0.94658   0.54966   0.05233   0.00000  Uiso   1.00
H323   H     0.89938   0.58931   0.04571   0.00000  Uiso   1.00
H324   H     0.90367   0.55603   0.09189   0.00000  Uiso   1.00
C325   C     0.76067   0.44323   0.27720   0.00000  Uiso   1.00
H326   H     0.76729   0.41069   0.28762   0.00000  Uiso   1.00
H327   H     0.72009   0.45033   0.28101   0.00000  Uiso   1.00
H328   H     0.76300   0.44397   0.24144   0.00000  Uiso   1.00
C329   C     0.90516   0.55729   0.29448   0.00000  Uiso   1.00
H330   H     0.90301   0.55588   0.25828   0.00000  Uiso   1.00
H331   H     0.89729   0.58972   0.30264   0.00000  Uiso   1.00
H332   H     0.94599   0.55115   0.30829   0.00000  Uiso   1.00
C333   C     0.76151   0.44271   0.03885   0.00000  Uiso   1.00
H334   H     0.76366   0.44412   0.07506   0.00000  Uiso   1.00
H335   H     0.72068   0.44885   0.02504   0.00000  Uiso   1.00
H336   H     0.76938   0.41028   0.03069   0.00000  Uiso   1.00
C337   C     0.16650   0.75346   0.16663   0.00000  Uiso   1.00
C338   C     0.16683   0.91321   0.16670   0.00000  Uiso   1.00
C339   C     0.06743   0.83211   0.15524   0.00000  Uiso   1.00
C340   C     0.26590   0.83456   0.17809   0.00000  Uiso   1.00
C341   C     0.01269   0.82435   0.15124   0.00000  Uiso   1.00
C342   C     0.32064   0.84232   0.18209   0.00000  Uiso   1.00
C343   C     0.17228   0.68829   0.12701   0.00000  Uiso   1.00
C344   C     0.16105   0.97838   0.20632   0.00000  Uiso   1.00
C345   C     0.17242   0.97902   0.12704   0.00000  Uiso   1.00
C346   C     0.16091   0.68765   0.20629   0.00000  Uiso   1.00
C347   C     0.16680   0.95746   0.16669   0.00000  Uiso   1.00
C348   C     0.16653   0.70921   0.16664   0.00000  Uiso   1.00
C349   C     0.20061   0.86007   0.02795   0.00000  Uiso   1.00
C350   C     0.13272   0.80659   0.30539   0.00000  Uiso   1.00
C351   C     0.20049   0.86012   0.31351   0.00000  Uiso   1.00
C352   C     0.13284   0.80654   0.01982   0.00000  Uiso   1.00
H353   H     0.17687   0.70468   0.09612   0.00000  Uiso   1.00
H354   H     0.15647   0.96199   0.23722   0.00000  Uiso   1.00
H355   H     0.17704   0.96316   0.09617   0.00000  Uiso   1.00
H356   H     0.15629   0.70351   0.23717   0.00000  Uiso   1.00
N357   N     0.16665   0.83332   0.28573   0.00000  Uiso   1.00
N358   N     0.16668   0.83334   0.04760   0.00000  Uiso   1.00
O359   O     0.16666   0.77225   0.20487   0.00000  Uiso   1.00
O360   O     0.16667   0.89442   0.12846   0.00000  Uiso   1.00
O361   O     0.16666   0.77226   0.12843   0.00000  Uiso   1.00
O362   O     0.16667   0.89441   0.20490   0.00000  Uiso   1.00
O363   O     0.09058   0.83333   0.19595   0.00000  Uiso   1.00
O364   O     0.24275   0.83334   0.13739   0.00000  Uiso   1.00
O365   O     0.09058   0.83334   0.11950   0.00000  Uiso   1.00
O366   O     0.24275   0.83333   0.21383   0.00000  Uiso   1.00
Zn367  Zn    0.16667   0.83333   0.21771   0.00000  Uiso   1.00
Zn368  Zn    0.16667   0.83334   0.11563   0.00000  Uiso   1.00
C369   C     0.32209   0.78978   0.11858   0.00000  Uiso   1.00
H370   H     0.01920   0.77063   0.10810   0.00000  Uiso   1.00
H371   H     0.29522   0.76796   0.13461   0.00000  Uiso   1.00
H372   H     0.30092   0.80332   0.08783   0.00000  Uiso   1.00
C373   C     0.01124   0.87689   0.21475   0.00000  Uiso   1.00
H374   H     0.31413   0.89603   0.22524   0.00000  Uiso   1.00
H375   H     0.03242   0.86335   0.24550   0.00000  Uiso   1.00
H376   H     0.03811   0.89871   0.19872   0.00000  Uiso   1.00
C377   C     0.23933   0.89010   0.05613   0.00000  Uiso   1.00
H378   H     0.27991   0.88300   0.05233   0.00000  Uiso   1.00
H379   H     0.23271   0.92264   0.04571   0.00000  Uiso   1.00
H380   H     0.23700   0.88936   0.09189   0.00000  Uiso   1.00
C381   C     0.09401   0.77656   0.27720   0.00000  Uiso   1.00
H382   H     0.10062   0.74402   0.28762   0.00000  Uiso   1.00
H383   H     0.05342   0.78367   0.28101   0.00000  Uiso   1.00
H384   H     0.09633   0.77730   0.24144   0.00000  Uiso   1.00
C385   C     0.23849   0.89062   0.29448   0.00000  Uiso   1.00
H386   H     0.23634   0.88921   0.25828   0.00000  Uiso   1.00
H387   H     0.23063   0.92305   0.30264   0.00000  Uiso   1.00
H388   H     0.27932   0.88448   0.30829   0.00000  Uiso   1.00
C389   C     0.09484   0.77605   0.03885   0.00000  Uiso   1.00
H390   H     0.09699   0.77746   0.07506   0.00000  Uiso   1.00
H391   H     0.05401   0.78218   0.02504   0.00000  Uiso   1.00
H392   H     0.10271   0.74361   0.03069   0.00000  Uiso   1.00
C393   C     0.49984   0.75346   0.16663   0.00000  Uiso   1.00
C394   C     0.50016   0.91321   0.16670   0.00000  Uiso   1.00
C395   C     0.40077   0.83211   0.15524   0.00000  Uiso   1.00
C396   C     0.59923   0.83456   0.17809   0.00000  Uiso   1.00
C397   C     0.34603   0.82435   0.15124   0.00000  Uiso   1.00
C398   C     0.65397   0.84232   0.18209   0.00000  Uiso   1.00
C399   C     0.50561   0.68829   0.12701   0.00000  Uiso   1.00
C400   C     0.49439   0.97838   0.20632   0.00000  Uiso   1.00
C401   C     0.50575   0.97902   0.12704   0.00000  Uiso   1.00
C402   C     0.49425   0.68765   0.20629   0.00000  Uiso   1.00
C403   C     0.50014   0.95746   0.16669   0.00000  Uiso   1.00
C404   C     0.49986   0.70921   0.16664   0.00000  Uiso   1.00
C405   C     0.53394   0.86007   0.02795   0.00000  Uiso   1.00
C406   C     0.46606   0.80659   0.30539   0.00000  Uiso   1.00
C407   C     0.53383   0.86012   0.31351   0.00000  Uiso   1.00
C408   C     0.46617   0.80654   0.01982   0.00000  Uiso   1.00
H409   H     0.51020   0.70468   0.09612   0.00000  Uiso   1.00
H410   H     0.48980   0.96199   0.23722   0.00000  Uiso   1.00
H411   H     0.51038   0.96316   0.09617   0.00000  Uiso   1.00
H412   H     0.48962   0.70351   0.23717   0.00000  Uiso   1.00
N413   N     0.49999   0.83332   0.28573   0.00000  Uiso   1.00
N414   N     0.50001   0.83334   0.04760   0.00000  Uiso   1.00
O415   O     0.50000   0.77225   0.20487   0.00000  Uiso   1.00
O416   O     0.50000   0.89442   0.12846   0.00000  Uiso   1.00
O417   O     0.50000   0.77226   0.12843   0.00000  Uiso   1.00
O418   O     0.50000   0.89441   0.20490   0.00000  Uiso   1.00
O419   O     0.42392   0.83333   0.19595   0.00000  Uiso   1.00
O420   O     0.57608   0.83334   0.13739   0.00000  Uiso   1.00
O421   O     0.42392   0.83334   0.11950   0.00000  Uiso   1.00
O422   O     0.57608   0.83333   0.21383   0.00000  Uiso   1.00
Zn423  Zn    0.50000   0.83333   0.21771   0.00000  Uiso   1.00
Zn424  Zn    0.50000   0.83334   0.11563   0.00000  Uiso   1.00
C425   C     0.65543   0.78978   0.11858   0.00000  Uiso   1.00
H426   H     0.35253   0.77063   0.10810   0.00000  Uiso   1.00
H427   H     0.62856   0.76796   0.13461   0.00000  Uiso   1.00
H428   H     0.63425   0.80332   0.08783   0.00000  Uiso   1.00
C429   C     0.34457   0.87689   0.21475   0.00000  Uiso   1.00
H430   H     0.64747   0.89603   0.22524   0.00000  Uiso   1.00
H431   H     0.36575   0.86335   0.24550   0.00000  Uiso   1.00
H432   H     0.37144   0.89871   0.19872   0.00000  Uiso   1.00
C433   C     0.57266   0.89010   0.05613   0.00000  Uiso   1.00
H434   H     0.61325   0.88300   0.05233   0.00000  Uiso   1.00
H435   H     0.56605   0.92264   0.04571   0.00000  Uiso   1.00
H436   H     0.57033   0.88936   0.09189   0.00000  Uiso   1.00
C437   C     0.42734   0.77656   0.27720   0.00000  Uiso   1.00
H438   H     0.43395   0.74402   0.28762   0.00000  Uiso   1.00
H439   H     0.38675   0.78367   0.28101   0.00000  Uiso   1.00
H440   H     0.42967   0.77730   0.24144   0.00000  Uiso   1.00
C441   C     0.57183   0.89062   0.29448   0.00000  Uiso   1.00
H442   H     0.56967   0.88921   0.25828   0.00000  Uiso   1.00
H443   H     0.56396   0.92305   0.30264   0.00000  Uiso   1.00
H444   H     0.61265   0.88448   0.30829   0.00000  Uiso   1.00
C445   C     0.42817   0.77605   0.03885   0.00000  Uiso   1.00
H446   H     0.43033   0.77746   0.07506   0.00000  Uiso   1.00
H447   H     0.38735   0.78218   0.02504   0.00000  Uiso   1.00
H448   H     0.43604   0.74361   0.03069   0.00000  Uiso   1.00
C449   C     0.83317   0.75346   0.16663   0.00000  Uiso   1.00
C450   C     0.83350   0.91321   0.16670   0.00000  Uiso   1.00
C451   C     0.73410   0.83211   0.15524   0.00000  Uiso   1.00
C452   C     0.93257   0.83456   0.17809   0.00000  Uiso   1.00
C453   C     0.67936   0.82435   0.15124   0.00000  Uiso   1.00
C454   C     0.98731   0.84232   0.18209   0.00000  Uiso   1.00
C455   C     0.83895   0.68829   0.12701   0.00000  Uiso   1.00
C456   C     0.82772   0.97838   0.20632   0.00000  Uiso   1.00
C457   C     0.83909   0.97902   0.12704   0.00000  Uiso   1.00
C458   C     0.82758   0.68765   0.20629   0.00000  Uiso   1.00
C459   C     0.83347   0.95746   0.16669   0.00000  Uiso   1.00
C460   C     0.83320   0.70921   0.16664   0.00000  Uiso   1.00
C461   C     0.86728   0.86007   0.02795   0.00000  Uiso   1.00
C462   C     0.79939   0.80659   0.30539   0.00000  Uiso   1.00
C463   C     0.86716   0.86012   0.31351   0.00000  Uiso   1.00
C464   C     0.79951   0.80654   0.01982   0.00000  Uiso   1.00
H465   H     0.84353   0.70468   0.09612   0.00000  Uiso   1.00
H466   H     0.82313   0.96199   0.23722   0.00000  Uiso   1.00
H467   H     0.84371   0.96316   0.09617   0.00000  Uiso   1.00
H468   H     0.82296   0.70351   0.23717   0.00000  Uiso   1.00
N469   N     0.83332   0.83332   0.28573   0.00000  Uiso   1.00
N470   N     0.83335   0.83334   0.04760   0.00000  Uiso   1.00
O471   O     0.83333   0.77225   0.20487   0.00000  Uiso   1.00
O472   O     0.83334   0.89442   0.12846   0.00000  Uiso   1.00
O473   O     0.83333   0.77226   0.12843   0.00000  Uiso   1.00
O474   O     0.83334   0.89441   0.20490   0.00000  Uiso   1.00
O475   O     0.75725   0.83333   0.19595   0.00000  Uiso   1.00
O476   O     0.90942   0.83334   0.13739   0.00000  Uiso   1.00
O477   O     0.75725   0.83334   0.11950   0.00000  Uiso   1.00
O478   O     0.90942   0.83333   0.21383   0.00000  Uiso   1.00
Zn479  Zn    0.83333   0.83333   0.21771   0.00000  Uiso   1.00
Zn480  Zn    0.83333   0.83334   0.11563   0.00000  Uiso   1.00
C481   C     0.98876   0.78978   0.11858   0.00000  Uiso   1.00
H482   H     0.68587   0.77063   0.10810   0.00000  Uiso   1.00
H483   H     0.96189   0.76796   0.13461   0.00000  Uiso   1.00
H484   H     0.96758   0.80332   0.08783   0.00000  Uiso   1.00
C485   C     0.67791   0.87689   0.21475   0.00000  Uiso   1.00
H486   H     0.98080   0.89603   0.22524   0.00000  Uiso   1.00
H487   H     0.69908   0.86335   0.24550   0.00000  Uiso   1.00
H488   H     0.70477   0.89871   0.19872   0.00000  Uiso   1.00
C489   C     0.90599   0.89010   0.05613   0.00000  Uiso   1.00
H490   H     0.94658   0.88300   0.05233   0.00000  Uiso   1.00
H491   H     0.89938   0.92264   0.04571   0.00000  Uiso   1.00
H492   H     0.90367   0.88936   0.09189   0.00000  Uiso   1.00
C493   C     0.76067   0.77656   0.27720   0.00000  Uiso   1.00
H494   H     0.76729   0.74402   0.28762   0.00000  Uiso   1.00
H495   H     0.72009   0.78367   0.28101   0.00000  Uiso   1.00
H496   H     0.76300   0.77730   0.24144   0.00000  Uiso   1.00
C497   C     0.90516   0.89062   0.29448   0.00000  Uiso   1.00
H498   H     0.90301   0.88921   0.25828   0.00000  Uiso   1.00
H499   H     0.89729   0.92305   0.30264   0.00000  Uiso   1.00
H500   H     0.94599   0.88448   0.30829   0.00000  Uiso   1.00
C501   C     0.76151   0.77605   0.03885   0.00000  Uiso   1.00
H502   H     0.76366   0.77746   0.07506   0.00000  Uiso   1.00
H503   H     0.72068   0.78218   0.02504   0.00000  Uiso   1.00
H504   H     0.76938   0.74361   0.03069   0.00000  Uiso   1.00
C505   C     0.16650   0.08679   0.49997   0.00000  Uiso   1.00
C506   C     0.16683   0.24654   0.50003   0.00000  Uiso   1.00
C507   C     0.06743   0.16544   0.48858   0.00000  Uiso   1.00
C508   C     0.26590   0.16789   0.51142   0.00000  Uiso   1.00
C509   C     0.01269   0.15768   0.48457   0.00000  Uiso   1.00
C510   C     0.32064   0.17565   0.51543   0.00000  Uiso   1.00
C511   C     0.17228   0.02162   0.46034   0.00000  Uiso   1.00
C512   C     0.16105   0.31171   0.53966   0.00000  Uiso   1.00
C513   C     0.17242   0.31235   0.46038   0.00000  Uiso   1.00
C514   C     0.16091   0.02098   0.53962   0.00000  Uiso   1.00
C515   C     0.16680   0.29079   0.50003   0.00000  Uiso   1.00
C516   C     0.16653   0.04254   0.49997   0.00000  Uiso   1.00
C517   C     0.20061   0.19340   0.36128   0.00000  Uiso   1.00
C518   C     0.13272   0.13993   0.63872   0.00000  Uiso   1.00
C519   C     0.20049   0.19346   0.64685   0.00000  Uiso   1.00
C520   C     0.13284   0.13988   0.35315   0.00000  Uiso   1.00
H521   H     0.17687   0.03801   0.42945   0.00000  Uiso   1.00
H522   H     0.15647   0.29532   0.57055   0.00000  Uiso   1.00
H523   H     0.17704   0.29649   0.42950   0.00000  Uiso   1.00
H524   H     0.15629   0.03684   0.57050   0.00000  Uiso   1.00
N525   N     0.16665   0.16666   0.61907   0.00000  Uiso   1.00
N526   N     0.16668   0.16668   0.38093   0.00000  Uiso   1.00
O527   O     0.16666   0.10558   0.53821   0.00000  Uiso   1.00
O528   O     0.16667   0.22775   0.46179   0.00000  Uiso   1.00
O529   O     0.16666   0.10559   0.46176   0.00000  Uiso   1.00
O530   O     0.16667   0.22774   0.53824   0.00000  Uiso   1.00
O531   O     0.09058   0.16666   0.52928   0.00000  Uiso   1.00
O532   O     0.24275   0.16667   0.47072   0.00000  Uiso   1.00
O533   O     0.09058   0.16667   0.45284   0.00000  Uiso   1.00
O534   O     0.24275   0.16666   0.54716   0.00000  Uiso   1.00
Zn535  Zn    0.16667   0.16666   0.55104   0.00000  Uiso   1.00
Zn536  Zn    0.16667   0.16667   0.44896   0.00000  Uiso   1.00
C537   C     0.32209   0.12311   0.45191   0.00000  Uiso   1.00
H538   H     0.01920   0.10396   0.44143   0.00000  Uiso   1.00
H539   H     0.29522   0.10129   0.46794   0.00000  Uiso   1.00
H540   H     0.30092   0.13665   0.42117   0.00000  Uiso   1.00
C541   C     0.01124   0.21022   0.54809   0.00000  Uiso   1.00
H542   H     0.31413   0.22937   0.55857   0.00000  Uiso   1.00
H543   H     0.03242   0.19668   0.57883   0.00000  Uiso   1.00
H544   H     0.03811   0.23204   0.53206   0.00000  Uiso   1.00
C545   C     0.23933   0.22344   0.38947   0.00000  Uiso   1.00
H546   H     0.27991   0.21633   0.38566   0.00000  Uiso   1.00
H547   H     0.23271   0.25597   0.37904   0.00000  Uiso   1.00
H548   H     0.23700   0.22270   0.42522   0.00000  Uiso   1.00
C549   C     0.09401   0.10990   0.61053   0.00000  Uiso   1.00
H550   H     0.10062   0.07736   0.62096   0.00000  Uiso   1.00
H551   H     0.05342   0.11700   0.61434   0.00000  Uiso   1.00
H552   H     0.09633   0.11064   0.57478   0.00000  Uiso   1.00
C553   C     0.23849   0.22395   0.62781   0.00000  Uiso   1.00
H554   H     0.23634   0.22254   0.59161   0.00000  Uiso   1.00
H555   H     0.23063   0.25639   0.63597   0.00000  Uiso   1.00
H556   H     0.27932   0.21782   0.64163   0.00000  Uiso   1.00
C557   C     0.09484   0.10938   0.37219   0.00000  Uiso   1.00
H558   H     0.09699   0.11079   0.40839   0.00000  Uiso   1.00
H559   H     0.05401   0.11551   0.35837   0.00000  Uiso   1.00
H560   H     0.10271   0.07694   0.36403   0.00000  Uiso   1.00
C561   C     0.49984   0.08679   0.49997   0.00000  Uiso   1.00
C562   C     0.50016   0.24654   0.50003   0.00000  Uiso   1.00
C563   C     0.40077   0.16544   0.48858   0.00000  Uiso   1.00
C564   C     0.59923   0.16789   0.51142   0.00000  Uiso   1.00
C565   C     0.34603   0.15768   0.48457   0.00000  Uiso   1.00
C566   C     0.65397   0.17565   0.51543   0.00000  Uiso   1.00
C567   C     0.50561   0.02162   0.46034   0.00000  Uiso   1.00
C568   C     0.49439   0.31171   0.53966   0.00000  Uiso   1.00
C569   C     0.50575   0.31235   0.46038   0.00000  Uiso   1.00
C570   C     0.49425   0.02098   0.53962   0.00000  Uiso   1.00
C571   C     0.50014   0.29079   0.50003   0.00000  Uiso   1.00
C572   C     0.49986   0.04254   0.49997   0.00000  Uiso   1.00
C573   C     0.53394   0.19340   0.36128   0.00000  Uiso   1.00
C574   C     0.46606   0.13993   0.63872   0.00000  Uiso   1.00
C575   C     0.53383   0.19346   0.64685   0.00000  Uiso   1.00
C576   C     0.46617   0.13988   0.35315   0.00000  Uiso   1.00
H577   H     0.51020   0.03801   0.42945   0.00000  Uiso   1.00
H578   H     0.48980   0.29532   0.57055   0.00000  Uiso   1.00
H579   H     0.51038   0.29649   0.42950   0.00000  Uiso   1.00
H580   H     0.48962   0.03684   0.57050   0.00000  Uiso   1.00
N581   N     0.49999   0.16666   0.61907   0.00000  Uiso   1.00
N582   N     0.50001   0.16668   0.38093   0.00000  Uiso   1.00
O583   O     0.50000   0.10558   0.53821   0.00000  Uiso   1.00
O584   O     0.50000   0.22775   0.46179   0.00000  Uiso   1.00
O585   O     0.50000   0.10559   0.46176   0.00000  Uiso   1.00
O586   O     0.50000   0.22774   0.53824   0.00000  Uiso   1.00
O587   O     0.42392   0.16666   0.52928   0.00000  Uiso   1.00
O588   O     0.57608   0.16667   0.47072   0.00000  Uiso   1.00
O589   O     0.42392   0.16667   0.45284   0.00000  Uiso   1.00
O590   O     0.57608   0.16666   0.54716   0.00000  Uiso   1.00
Zn591  Zn    0.50000   0.16666   0.55104   0.00000  Uiso   1.00
Zn592  Zn    0.50000   0.16667   0.44896   0.00000  Uiso   1.00
C593   C     0.65543   0.12311   0.45191   0.00000  Uiso   1.00
H594   H     0.35253   0.10396   0.44143   0.00000  Uiso   1.00
H595   H     0.62856   0.10129   0.46794   0.00000  Uiso   1.00
H596   H     0.63425   0.13665   0.42117   0.00000  Uiso   1.00
C597   C     0.34457   0.21022   0.54809   0.00000  Uiso   1.00
H598   H     0.64747   0.22937   0.55857   0.00000  Uiso   1.00
H599   H     0.36575   0.19668   0.57883   0.00000  Uiso   1.00
H600   H     0.37144   0.23204   0.53206   0.00000  Uiso   1.00
C601   C     0.57266   0.22344   0.38947   0.00000  Uiso   1.00
H602   H     0.61325   0.21633   0.38566   0.00000  Uiso   1.00
H603   H     0.56605   0.25597   0.37904   0.00000  Uiso   1.00
H604   H     0.57033   0.22270   0.42522   0.00000  Uiso   1.00
C605   C     0.42734   0.10990   0.61053   0.00000  Uiso   1.00
H606   H     0.43395   0.07736   0.62096   0.00000  Uiso   1.00
H607   H     0.38675   0.11700   0.61434   0.00000  Uiso   1.00
H608   H     0.42967   0.11064   0.57478   0.00000  Uiso   1.00
C609   C     0.57183   0.22395   0.62781   0.00000  Uiso   1.00
H610   H     0.56967   0.22254   0.59161   0.00000  Uiso   1.00
H611   H     0.56396   0.25639   0.63597   0.00000  Uiso   1.00
H612   H     0.61265   0.21782   0.64163   0.00000  Uiso   1.00
C613   C     0.42817   0.10938   0.37219   0.00000  Uiso   1.00
H614   H     0.43033   0.11079   0.40839   0.00000  Uiso   1.00
H615   H     0.38735   0.11551   0.35837   0.00000  Uiso   1.00
H616   H     0.43604   0.07694   0.36403   0.00000  Uiso   1.00
C617   C     0.83317   0.08679   0.49997   0.00000  Uiso   1.00
C618   C     0.83350   0.24654   0.50003   0.00000  Uiso   1.00
C619   C     0.73410   0.16544   0.48858   0.00000  Uiso   1.00
C620   C     0.93257   0.16789   0.51142   0.00000  Uiso   1.00
C621   C     0.67936   0.15768   0.48457   0.00000  Uiso   1.00
C622   C     0.98731   0.17565   0.51543   0.00000  Uiso   1.00
C623   C     0.83895   0.02162   0.46034   0.00000  Uiso   1.00
C624   C     0.82772   0.31171   0.53966   0.00000  Uiso   1.00
C625   C     0.83909   0.31235   0.46038   0.00000  Uiso   1.00
C626   C     0.82758   0.02098   0.53962   0.00000  Uiso   1.00
C627   C     0.83347   0.29079   0.50003   0.00000  Uiso   1.00
C628   C     0.83320   0.04254   0.49997   0.00000  Uiso   1.00
C629   C     0.86728   0.19340   0.36128   0.00000  Uiso   1.00
C630   C     0.79939   0.13993   0.63872   0.00000  Uiso   1.00
C631   C     0.86716   0.19346   0.64685   0.00000  Uiso   1.00
C632   C     0.79951   0.13988   0.35315   0.00000  Uiso   1.00
H633   H     0.84353   0.03801   0.42945   0.00000  Uiso   1.00
H634   H     0.82313   0.29532   0.57055   0.00000  Uiso   1.00
H635   H     0.84371   0.29649   0.42950   0.00000  Uiso   1.00
H636   H     0.82296   0.03684   0.57050   0.00000  Uiso   1.00
N637   N     0.83332   0.16666   0.61907   0.00000  Uiso   1.00
N638   N     0.83335   0.16668   0.38093   0.00000  Uiso   1.00
O639   O     0.83333   0.10558   0.53821   0.00000  Uiso   1.00
O640   O     0.83334   0.22775   0.46179   0.00000  Uiso   1.00
O641   O     0.83333   0.10559   0.46176   0.00000  Uiso   1.00
O642   O     0.83334   0.22774   0.53824   0.00000  Uiso   1.00
O643   O     0.75725   0.16666   0.52928   0.00000  Uiso   1.00
O644   O     0.90942   0.16667   0.47072   0.00000  Uiso   1.00
O645   O     0.75725   0.16667   0.45284   0.00000  Uiso   1.00
O646   O     0.90942   0.16666   0.54716   0.00000  Uiso   1.00
Zn647  Zn    0.83333   0.16666   0.55104   0.00000  Uiso   1.00
Zn648  Zn    0.83333   0.16667   0.44896   0.00000  Uiso   1.00
C649   C     0.98876   0.12311   0.45191   0.00000  Uiso   1.00
H650   H     0.68587   0.10396   0.44143   0.00000  Uiso   1.00
H651   H     0.96189   0.10129   0.46794   0.00000  Uiso   1.00
H652   H     0.96758   0.13665   0.42117   0.00000  Uiso   1.00
C653   C     0.67791   0.21022   0.54809   0.00000  Uiso   1.00
H654   H     0.98080   0.22937   0.55857   0.00000  Uiso   1.00
H655   H     0.69908   0.19668   0.57883   0.00000  Uiso   1.00
H656   H     0.70477   0.23204   0.53206   0.00000  Uiso   1.00
C657   C     0.90599   0.22344   0.38947   0.00000  Uiso   1.00
H658   H     0.94658   0.21633   0.38566   0.00000  Uiso   1.00
H659   H     0.89938   0.25597   0.37904   0.00000  Uiso   1.00
H660   H     0.90367   0.22270   0.42522   0.00000  Uiso   1.00
C661   C     0.76067   0.10990   0.61053   0.00000  Uiso   1.00
H662   H     0.76729   0.07736   0.62096   0.00000  Uiso   1.00
H663   H     0.72009   0.11700   0.61434   0.00000  Uiso   1.00
H664   H     0.76300   0.11064   0.57478   0.00000  Uiso   1.00
C665   C     0.90516   0.22395   0.62781   0.00000  Uiso   1.00
H666   H     0.90301   0.22254   0.59161   0.00000  Uiso   1.00
H667   H     0.89729   0.25639   0.63597   0.00000  Uiso   1.00
H668   H     0.94599   0.21782   0.64163   0.00000  Uiso   1.00
C669   C     0.76151   0.10938   0.37219   0.00000  Uiso   1.00
H670   H     0.76366   0.11079   0.40839   0.00000  Uiso   1.00
H671   H     0.72068   0.11551   0.35837   0.00000  Uiso   1.00
H672   H     0.76938   0.07694   0.36403   0.00000  Uiso   1.00
C673   C     0.16650   0.42012   0.49997   0.00000  Uiso   1.00
C674   C     0.16683   0.57988   0.50003   0.00000  Uiso   1.00
C675   C     0.06743   0.49877   0.48858   0.00000  Uiso   1.00
C676   C     0.26590   0.50123   0.51142   0.00000  Uiso   1.00
C677   C     0.01269   0.49101   0.48457   0.00000  Uiso   1.00
C678   C     0.32064   0.50899   0.51543   0.00000  Uiso   1.00
C679   C     0.17228   0.35496   0.46034   0.00000  Uiso   1.00
C680   C     0.16105   0.64504   0.53966   0.00000  Uiso   1.00
C681   C     0.17242   0.64569   0.46038   0.00000  Uiso   1.00
C682   C     0.16091   0.35431   0.53962   0.00000  Uiso   1.00
C683   C     0.16680   0.62412   0.50003   0.00000  Uiso   1.00
C684   C     0.16653   0.37587   0.49997   0.00000  Uiso   1.00
C685   C     0.20061   0.52674   0.36128   0.00000  Uiso   1.00
C686   C     0.13272   0.47326   0.63872   0.00000  Uiso   1.00
C687   C     0.20049   0.52679   0.64685   0.00000  Uiso   1.00
C688   C     0.13284   0.47321   0.35315   0.00000  Uiso   1.00
H689   H     0.17687   0.37135   0.42945   0.00000  Uiso   1.00
H690   H     0.15647   0.62865   0.57055   0.00000  Uiso   1.00
H691   H     0.17704   0.62982   0.42950   0.00000  Uiso   1.00
H692   H     0.15629   0.37018   0.57050   0.00000  Uiso   1.00
N693   N     0.16665   0.49999   0.61907   0.00000  Uiso   1.00
N694   N     0.16668   0.50001   0.38093   0.00000  Uiso   1.00
O695   O     0.16666   0.43892   0.53821   0.00000  Uiso   1.00
O696   O     0.16667   0.56108   0.46179   0.00000  Uiso   1.00
O697   O     0.16666   0.43893   0.46176   0.00000  Uiso   1.00
O698   O     0.16667   0.56107   0.53824   0.00000  Uiso   1.00
O699   O     0.09058   0.50000   0.52928   0.00000  Uiso   1.00
O700   O     0.24275   0.50000   0.47072   0.00000  Uiso   1.00
O701   O     0.09058   0.50000   0.45284   0.00000  Uiso   1.00
O702   O     0.24275   0.50000   0.54716   0.00000  Uiso   1.00
Zn703  Zn    0.16667   0.49999   0.55104   0.00000  Uiso   1.00
Zn704  Zn    0.16667   0.50001   0.44896   0.00000  Uiso   1.00
C705   C     0.32209   0.45644   0.45191   0.00000  Uiso   1.00
H706   H     0.01920   0.43730   0.44143   0.00000  Uiso   1.00
H707   H     0.29522   0.43463   0.46794   0.00000  Uiso   1.00
H708   H     0.30092   0.46999   0.42117   0.00000  Uiso   1.00
C709   C     0.01124   0.54356   0.54809   0.00000  Uiso   1.00
H710   H     0.31413   0.56270   0.55857   0.00000  Uiso   1.00
H711   H     0.03242   0.53001   0.57883   0.00000  Uiso   1.00
H712   H     0.03811   0.56537   0.53206   0.00000  Uiso   1.00
C713   C     0.23933   0.55677   0.38947   0.00000  Uiso   1.00
H714   H     0.27991   0.54966   0.38566   0.00000  Uiso   1.00
H715   H     0.23271   0.58931   0.37904   0.00000  Uiso   1.00
H716   H     0.23700   0.55603   0.42522   0.00000  Uiso   1.00
C717   C     0.09401   0.44323   0.61053   0.00000  Uiso   1.00
H718   H     0.10062   0.41069   0.62096   0.00000  Uiso   1.00
H719   H     0.05342   0.45033   0.61434   0.00000  Uiso   1.00
H720   H     0.09633   0.44397   0.57478   0.00000  Uiso   1.00
C721   C     0.23849   0.55729   0.62781   0.00000  Uiso   1.00
H722   H     0.23634   0.55588   0.59161   0.00000  Uiso   1.00
H723   H     0.23063   0.58972   0.63597   0.00000  Uiso   1.00
H724   H     0.27932   0.55115   0.64163   0.00000  Uiso   1.00
C725   C     0.09484   0.44271   0.37219   0.00000  Uiso   1.00
H726   H     0.09699   0.44412   0.40839   0.00000  Uiso   1.00
H727   H     0.05401   0.44885   0.35837   0.00000  Uiso   1.00
H728   H     0.10271   0.41028   0.36403   0.00000  Uiso   1.00
C729   C     0.49984   0.42012   0.49997   0.00000  Uiso   1.00
C730   C     0.50016   0.57988   0.50003   0.00000  Uiso   1.00
C731   C     0.40077   0.49877   0.48858   0.00000  Uiso   1.00
C732   C     0.59923   0.50123   0.51142   0.00000  Uiso   1.00
C733   C     0.34603   0.49101   0.48457   0.00000  Uiso   1.00
C734   C     0.65397   0.50899   0.51543   0.00000  Uiso   1.00
C735   C     0.50561   0.35496   0.46034   0.00000  Uiso   1.00
C736   C     0.49439   0.64504   0.53966   0.00000  Uiso   1.00
C737   C     0.50575   0.64569   0.46038   0.00000  Uiso   1.00
C738   C     0.49425   0.35431   0.53962   0.00000  Uiso   1.00
C739   C     0.50014   0.62412   0.50003   0.00000  Uiso   1.00
C740   C     0.49986   0.37587   0.49997   0.00000  Uiso   1.00
C741   C     0.53394   0.52674   0.36128   0.00000  Uiso   1.00
C742   C     0.46606   0.47326   0.63872   0.00000  Uiso   1.00
C743   C     0.53383   0.52679   0.64685   0.00000  Uiso   1.00
C744   C     0.46617   0.47321   0.35315   0.00000  Uiso   1.00
H745   H     0.51020   0.37135   0.42945   0.00000  Uiso   1.00
H746   H     0.48980   0.62865   0.57055   0.00000  Uiso   1.00
H747   H     0.51038   0.62982   0.42950   0.00000  Uiso   1.00
H748   H     0.48962   0.37018   0.57050   0.00000  Uiso   1.00
N749   N     0.49999   0.49999   0.61907   0.00000  Uiso   1.00
N750   N     0.50001   0.50001   0.38093   0.00000  Uiso   1.00
O751   O     0.50000   0.43892   0.53821   0.00000  Uiso   1.00
O752   O     0.50000   0.56108   0.46179   0.00000  Uiso   1.00
O753   O     0.50000   0.43893   0.46176   0.00000  Uiso   1.00
O754   O     0.50000   0.56107   0.53824   0.00000  Uiso   1.00
O755   O     0.42392   0.50000   0.52928   0.00000  Uiso   1.00
O756   O     0.57608   0.50000   0.47072   0.00000  Uiso   1.00
O757   O     0.42392   0.50000   0.45284   0.00000  Uiso   1.00
O758   O     0.57608   0.50000   0.54716   0.00000  Uiso   1.00
Zn759  Zn    0.50000   0.49999   0.55104   0.00000  Uiso   1.00
Zn760  Zn    0.50000   0.50001   0.44896   0.00000  Uiso   1.00
C761   C     0.65543   0.45644   0.45191   0.00000  Uiso   1.00
H762   H     0.35253   0.43730   0.44143   0.00000  Uiso   1.00
H763   H     0.62856   0.43463   0.46794   0.00000  Uiso   1.00
H764   H     0.63425   0.46999   0.42117   0.00000  Uiso   1.00
C765   C     0.34457   0.54356   0.54809   0.00000  Uiso   1.00
H766   H     0.64747   0.56270   0.55857   0.00000  Uiso   1.00
H767   H     0.36575   0.53001   0.57883   0.00000  Uiso   1.00
H768   H     0.37144   0.56537   0.53206   0.00000  Uiso   1.00
C769   C     0.57266   0.55677   0.38947   0.00000  Uiso   1.00
H770   H     0.61325   0.54966   0.38566   0.00000  Uiso   1.00
H771   H     0.56605   0.58931   0.37904   0.00000  Uiso   1.00
H772   H     0.57033   0.55603   0.42522   0.00000  Uiso   1.00
C773   C     0.42734   0.44323   0.61053   0.00000  Uiso   1.00
H774   H     0.43395   0.41069   0.62096   0.00000  Uiso   1.00
H775   H     0.38675   0.45033   0.61434   0.00000  Uiso   1.00
H776   H     0.42967   0.44397   0.57478   0.00000  Uiso   1.00
C777   C     0.57183   0.55729   0.62781   0.00000  Uiso   1.00
H778   H     0.56967   0.55588   0.59161   0.00000  Uiso   1.00
H779   H     0.56396   0.58972   0.63597   0.00000  Uiso   1.00
H780   H     0.61265   0.55115   0.64163   0.00000  Uiso   1.00
C781   C     0.42817   0.44271   0.37219   0.00000  Uiso   1.00
H782   H     0.43033   0.44412   0.40839   0.00000  Uiso   1.00
H783   H     0.38735   0.44885   0.35837   0.00000  Uiso   1.00
H784   H     0.43604   0.41028   0.36403   0.00000  Uiso   1.00
C785   C     0.83317   0.42012   0.49997   0.00000  Uiso   1.00
C786   C     0.83350   0.57988   0.50003   0.00000  Uiso   1.00
C787   C     0.73410   0.49877   0.48858   0.00000  Uiso   1.00
C788   C     0.93257   0.50123   0.51142   0.00000  Uiso   1.00
C789   C     0.67936   0.49101   0.48457   0.00000  Uiso   1.00
C790   C     0.98731   0.50899   0.51543   0.00000  Uiso   1.00
C791   C     0.83895   0.35496   0.46034   0.00000  Uiso   1.00
C792   C     0.82772   0.64504   0.53966   0.00000  Uiso   1.00
C793   C     0.83909   0.64569   0.46038   0.00000  Uiso   1.00
C794   C     0.82758   0.35431   0.53962   0.00000  Uiso   1.00
C795   C     0.83347   0.62412   0.50003   0.00000  Uiso   1.00
C796   C     0.83320   0.37587   0.49997   0.00000  Uiso   1.00
C797   C     0.86728   0.52674   0.36128   0.00000  Uiso   1.00
C798   C     0.79939   0.47326   0.63872   0.00000  Uiso   1.00
C799   C     0.86716   0.52679   0.64685   0.00000  Uiso   1.00
C800   C     0.79951   0.47321   0.35315   0.00000  Uiso   1.00
H801   H     0.84353   0.37135   0.42945   0.00000  Uiso   1.00
H802   H     0.82313   0.62865   0.57055   0.00000  Uiso   1.00
H803   H     0.84371   0.62982   0.42950   0.00000  Uiso   1.00
H804   H     0.82296   0.37018   0.57050   0.00000  Uiso   1.00
N805   N     0.83332   0.49999   0.61907   0.00000  Uiso   1.00
N806   N     0.83335   0.50001   0.38093   0.00000  Uiso   1.00
O807   O     0.83333   0.43892   0.53821   0.00000  Uiso   1.00
O808   O     0.83334   0.56108   0.46179   0.00000  Uiso   1.00
O809   O     0.83333   0.43893   0.46176   0.00000  Uiso   1.00
O810   O     0.83334   0.56107   0.53824   0.00000  Uiso   1.00
O811   O     0.75725   0.50000   0.52928   0.00000  Uiso   1.00
O812   O     0.90942   0.50000   0.47072   0.00000  Uiso   1.00
O813   O     0.75725   0.50000   0.45284   0.00000  Uiso   1.00
O814   O     0.90942   0.50000   0.54716   0.00000  Uiso   1.00
Zn815  Zn    0.83333   0.49999   0.55104   0.00000  Uiso   1.00
Zn816  Zn    0.83333   0.50001   0.44896   0.00000  Uiso   1.00
C817   C     0.98876   0.45644   0.45191   0.00000  Uiso   1.00
H818   H     0.68587   0.43730   0.44143   0.00000  Uiso   1.00
H819   H     0.96189   0.43463   0.46794   0.00000  Uiso   1.00
H820   H     0.96758   0.46999   0.42117   0.00000  Uiso   1.00
C821   C     0.67791   0.54356   0.54809   0.00000  Uiso   1.00
H822   H     0.98080   0.56270   0.55857   0.00000  Uiso   1.00
H823   H     0.69908   0.53001   0.57883   0.00000  Uiso   1.00
H824   H     0.70477   0.56537   0.53206   0.00000  Uiso   1.00
C825   C     0.90599   0.55677   0.38947   0.00000  Uiso   1.00
H826   H     0.94658   0.54966   0.38566   0.00000  Uiso   1.00
H827   H     0.89938   0.58931   0.37904   0.00000  Uiso   1.00
H828   H     0.90367   0.55603   0.42522   0.00000  Uiso   1.00
C829   C     0.76067   0.44323   0.61053   0.00000  Uiso   1.00
H830   H     0.76729   0.41069   0.62096   0.00000  Uiso   1.00
H831   H     0.72009   0.45033   0.61434   0.00000  Uiso   1.00
H832   H     0.76300   0.44397   0.57478   0.00000  Uiso   1.00
C833   C     0.90516   0.55729   0.62781   0.00000  Uiso   1.00
H834   H     0.90301   0.55588   0.59161   0.00000  Uiso   1.00
H835   H     0.89729   0.58972   0.63597   0.00000  Uiso   1.00
H836   H     0.94599   0.55115   0.64163   0.00000  Uiso   1.00
C837   C     0.76151   0.44271   0.37219   0.00000  Uiso   1.00
H838   H     0.76366   0.44412   0.40839   0.00000  Uiso   1.00
H839   H     0.72068   0.44885   0.35837   0.00000  Uiso   1.00
H840   H     0.76938   0.41028   0.36403   0.00000  Uiso   1.00
C841   C     0.16650   0.75346   0.49997   0.00000  Uiso   1.00
C842   C     0.16683   0.91321   0.50003   0.00000  Uiso   1.00
C843   C     0.06743   0.83211   0.48858   0.00000  Uiso   1.00
C844   C     0.26590   0.83456   0.51142   0.00000  Uiso   1.00
C845   C     0.01269   0.82435   0.48457   0.00000  Uiso   1.00
C846   C     0.32064   0.84232   0.51543   0.00000  Uiso   1.00
C847   C     0.17228   0.68829   0.46034   0.00000  Uiso   1.00
C848   C     0.16105   0.97838   0.53966   0.00000  Uiso   1.00
C849   C     0.17242   0.97902   0.46038   0.00000  Uiso   1.00
C850   C     0.16091   0.68765   0.53962   0.00000  Uiso   1.00
C851   C     0.16680   0.95746   0.50003   0.00000  Uiso   1.00
C852   C     0.16653   0.70921   0.49997   0.00000  Uiso   1.00
C853   C     0.20061   0.86007   0.36128   0.00000  Uiso   1.00
C854   C     0.13272   0.80659   0.63872   0.00000  Uiso   1.00
C855   C     0.20049   0.86012   0.64685   0.00000  Uiso   1.00
C856   C     0.13284   0.80654   0.35315   0.00000  Uiso   1.00
H857   H     0.17687   0.70468   0.42945   0.00000  Uiso   1.00
H858   H     0.15647   0.96199   0.57055   0.00000  Uiso   1.00
H859   H     0.17704   0.96316   0.42950   0.00000  Uiso   1.00
H860   H     0.15629   0.70351   0.57050   0.00000  Uiso   1.00
N861   N     0.16665   0.83332   0.61907   0.00000  Uiso   1.00
N862   N     0.16668   0.83334   0.38093   0.00000  Uiso   1.00
O863   O     0.16666   0.77225   0.53821   0.00000  Uiso   1.00
O864   O     0.16667   0.89442   0.46179   0.00000  Uiso   1.00
O865   O     0.16666   0.77226   0.46176   0.00000  Uiso   1.00
O866   O     0.16667   0.89441   0.53824   0.00000  Uiso   1.00
O867   O     0.09058   0.83333   0.52928   0.00000  Uiso   1.00
O868   O     0.24275   0.83334   0.47072   0.00000  Uiso   1.00
O869   O     0.09058   0.83334   0.45284   0.00000  Uiso   1.00
O870   O     0.24275   0.83333   0.54716   0.00000  Uiso   1.00
Zn871  Zn    0.16667   0.83333   0.55104   0.00000  Uiso   1.00
Zn872  Zn    0.16667   0.83334   0.44896   0.00000  Uiso   1.00
C873   C     0.32209   0.78978   0.45191   0.00000  Uiso   1.00
H874   H     0.01920   0.77063   0.44143   0.00000  Uiso   1.00
H875   H     0.29522   0.76796   0.46794   0.00000  Uiso   1.00
H876   H     0.30092   0.80332   0.42117   0.00000  Uiso   1.00
C877   C     0.01124   0.87689   0.54809   0.00000  Uiso   1.00
H878   H     0.31413   0.89603   0.55857   0.00000  Uiso   1.00
H879   H     0.03242   0.86335   0.57883   0.00000  Uiso   1.00
H880   H     0.03811   0.89871   0.53206   0.00000  Uiso   1.00
C881   C     0.23933   0.89010   0.38947   0.00000  Uiso   1.00
H882   H     0.27991   0.88300   0.38566   0.00000  Uiso   1.00
H883   H     0.23271   0.92264   0.37904   0.00000  Uiso   1.00
H884   H     0.23700   0.88936   0.42522   0.00000  Uiso   1.00
C885   C     0.09401   0.77656   0.61053   0.00000  Uiso   1.00
H886   H     0.10062   0.74402   0.62096   0.00000  Uiso   1.00
H887   H     0.05342   0.78367   0.61434   0.00000  Uiso   1.00
H888   H     0.09633   0.77730   0.57478   0.00000  Uiso   1.00
C889   C     0.23849   0.89062   0.62781   0.00000  Uiso   1.00
H890   H     0.23634   0.88921   0.59161   0.00000  Uiso   1.00
H891   H     0.23063   0.92305   0.63597   0.00000  Uiso   1.00
H892   H     0.27932   0.88448   0.64163   0.00000  Uiso   1.00
C893   C     0.09484   0.77605   0.37219   0.00000  Uiso   1.00
H894   H     0.09699   0.77746   0.40839   0.00000  Uiso   1.00
H895   H     0.05401   0.78218   0.35837   0.00000  Uiso   1.00
H896   H     0.10271   0.74361   0.36403   0.00000  Uiso   1.00
C897   C     0.49984   0.75346   0.49997   0.00000  Uiso   1.00
C898   C     0.50016   0.91321   0.50003   0.00000  Uiso   1.00
C899   C     0.40077   0.83211   0.48858   0.00000  Uiso   1.00
C900   C     0.59923   0.83456   0.51142   0.00000  Uiso   1.00
C901   C     0.34603   0.82435   0.48457   0.00000  Uiso   1.00
C902   C     0.65397   0.84232   0.51543   0.00000  Uiso   1.00
C903   C     0.50561   0.68829   0.46034   0.00000  Uiso   1.00
C904   C     0.49439   0.97838   0.53966   0.00000  Uiso   1.00
C905   C     0.50575   0.97902   0.46038   0.00000  Uiso   1.00
C906   C     0.49425   0.68765   0.53962   0.00000  Uiso   1.00
C907   C     0.50014   0.95746   0.50003   0.00000  Uiso   1.00
C908   C     0.49986   0.70921   0.49997   0.00000  Uiso   1.00
C909   C     0.53394   0.86007   0.36128   0.00000  Uiso   1.00
C910   C     0.46606   0.80659   0.63872   0.00000  Uiso   1.00
C911   C     0.53383   0.86012   0.64685   0.00000  Uiso   1.00
C912   C     0.46617   0.80654   0.35315   0.00000  Uiso   1.00
H913   H     0.51020   0.70468   0.42945   0.00000  Uiso   1.00
H914   H     0.48980   0.96199   0.57055   0.00000  Uiso   1.00
H915   H     0.51038   0.96316   0.42950   0.00000  Uiso   1.00
H916   H     0.48962   0.70351   0.57050   0.00000  Uiso   1.00
N917   N     0.49999   0.83332   0.61907   0.00000  Uiso   1.00
N918   N     0.50001   0.83334   0.38093   0.00000  Uiso   1.00
O919   O     0.50000   0.77225   0.53821   0.00000  Uiso   1.00
O920   O     0.50000   0.89442   0.46179   0.00000  Uiso   1.00
O921   O     0.50000   0.77226   0.46176   0.00000  Uiso   1.00
O922   O     0.50000   0.89441   0.53824   0.00000  Uiso   1.00
O923   O     0.42392   0.83333   0.52928   0.00000  Uiso   1.00
O924   O     0.57608   0.83334   0.47072   0.00000  Uiso   1.00
O925   O     0.42392   0.83334   0.45284   0.00000  Uiso   1.00
O926   O     0.57608   0.83333   0.54716   0.00000  Uiso   1.00
Zn927  Zn    0.50000   0.83333   0.55104   0.00000  Uiso   1.00
Zn928  Zn    0.50000   0.83334   0.44896   0.00000  Uiso   1.00
C929   C     0.65543   0.78978   0.45191   0.00000  Uiso   1.00
H930   H     0.35253   0.77063   0.44143   0.00000  Uiso   1.00
H931   H     0.62856   0.76796   0.46794   0.00000  Uiso   1.00
H932   H     0.63425   0.80332   0.42117   0.00000  Uiso   1.00
C933   C     0.34457   0.87689   0.54809   0.00000  Uiso   1.00
H934   H     0.64747   0.89603   0.55857   0.00000  Uiso   1.00
H935   H     0.36575   0.86335   0.57883   0.00000  Uiso   1.00
H936   H     0.37144   0.89871   0.53206   0.00000  Uiso   1.00
C937   C     0.57266   0.89010   0.38947   0.00000  Uiso   1.00
H938   H     0.61325   0.88300   0.38566   0.00000  Uiso   1.00
H939   H     0.56605   0.92264   0.37904   0.00000  Uiso   1.00
H940   H     0.57033   0.88936   0.42522   0.00000  Uiso   1.00
C941   C     0.42734   0.77656   0.61053   0.00000  Uiso   1.00
H942   H     0.43395   0.74402   0.62096   0.00000  Uiso   1.00
H943   H     0.38675   0.78367   0.61434   0.00000  Uiso   1.00
H944   H     0.42967   0.77730   0.57478   0.00000  Uiso   1.00
C945   C     0.57183   0.89062   0.62781   0.00000  Uiso   1.00
H946   H     0.56967   0.88921   0.59161   0.00000  Uiso   1.00
H947   H     0.56396   0.92305   0.63597   0.00000  Uiso   1.00
H948   H     0.61265   0.88448   0.64163   0.00000  Uiso   1.00
C949   C     0.42817   0.77605   0.37219   0.00000  Uiso   1.00
H950   H     0.43033   0.77746   0.40839   0.00000  Uiso   1.00
H951   H     0.38735   0.78218   0.35837   0.00000  Uiso   1.00
H952   H     0.43604   0.74361   0.36403   0.00000  Uiso   1.00
C953   C     0.83317   0.75346   0.49997   0.00000  Uiso   1.00
C954   C     0.83350   0.91321   0.50003   0.00000  Uiso   1.00
C955   C     0.73410   0.83211   0.48858   0.00000  Uiso   1.00
C956   C     0.93257   0.83456   0.51142   0.00000  Uiso   1.00
C957   C     0.67936   0.82435   0.48457   0.00000  Uiso   1.00
C958   C     0.98731   0.84232   0.51543   0.00000  Uiso   1.00
C959   C     0.83895   0.68829   0.46034   0.00000  Uiso   1.00
C960   C     0.82772   0.97838   0.53966   0.00000  Uiso   1.00
C961   C     0.83909   0.97902   0.46038   0.00000  Uiso   1.00
C962   C     0.82758   0.68765   0.53962   0.00000  Uiso   1.00
C963   C     0.83347   0.95746   0.50003   0.00000  Uiso   1.00
C964   C     0.83320   0.70921   0.49997   0.00000  Uiso   1.00
C965   C     0.86728   0.86007   0.36128   0.00000  Uiso   1.00
C966   C     0.79939   0.80659   0.63872   0.00000  Uiso   1.00
C967   C     0.86716   0.86012   0.64685   0.00000  Uiso   1.00
C968   C     0.79951   0.80654   0.35315   0.00000  Uiso   1.00
H969   H     0.84353   0.70468   0.42945   0.00000  Uiso   1.00
H970   H     0.82313   0.96199   0.57055   0.00000  Uiso   1.00
H971   H     0.84371   0.96316   0.42950   0.00000  Uiso   1.00
H972   H     0.82296   0.70351   0.57050   0.00000  Uiso   1.00
N973   N     0.83332   0.83332   0.61907   0.00000  Uiso   1.00
N974   N     0.83335   0.83334   0.38093   0.00000  Uiso   1.00
O975   O     0.83333   0.77225   0.53821   0.00000  Uiso   1.00
O976   O     0.83334   0.89442   0.46179   0.00000  Uiso   1.00
O977   O     0.83333   0.77226   0.46176   0.00000  Uiso   1.00
O978   O     0.83334   0.89441   0.53824   0.00000  Uiso   1.00
O979   O     0.75725   0.83333   0.52928   0.00000  Uiso   1.00
O980   O     0.90942   0.83334   0.47072   0.00000  Uiso   1.00
O981   O     0.75725   0.83334   0.45284   0.00000  Uiso   1.00
O982   O     0.90942   0.83333   0.54716   0.00000  Uiso   1.00
Zn983  Zn    0.83333   0.83333   0.55104   0.00000  Uiso   1.00
Zn984  Zn    0.83333   0.83334   0.44896   0.00000  Uiso   1.00
C985   C     0.98876   0.78978   0.45191   0.00000  Uiso   1.00
H986   H     0.68587   0.77063   0.44143   0.00000  Uiso   1.00
H987   H     0.96189   0.76796   0.46794   0.00000  Uiso   1.00
H988   H     0.96758   0.80332   0.42117   0.00000  Uiso   1.00
C989   C     0.67791   0.87689   0.54809   0.00000  Uiso   1.00
H990   H     0.98080   0.89603   0.55857   0.00000  Uiso   1.00
H991   H     0.69908   0.86335   0.57883   0.00000  Uiso   1.00
H992   H     0.70477   0.89871   0.53206   0.00000  Uiso   1.00
C993   C     0.90599   0.89010   0.38947   0.00000  Uiso   1.00
H994   H     0.94658   0.88300   0.38566   0.00000  Uiso   1.00
H995   H     0.89938   0.92264   0.37904   0.00000  Uiso   1.00
H996   H     0.90367   0.88936   0.42522   0.00000  Uiso   1.00
C997   C     0.76067   0.77656   0.61053   0.00000  Uiso   1.00
H998   H     0.76729   0.74402   0.62096   0.00000  Uiso   1.00
H999   H     0.72009   0.78367   0.61434   0.00000  Uiso   1.00
H1000  H     0.76300   0.77730   0.57478   0.00000  Uiso   1.00
C1001  C     0.90516   0.89062   0.62781   0.00000  Uiso   1.00
H1002  H     0.90301   0.88921   0.59161   0.00000  Uiso   1.00
H1003  H     0.89729   0.92305   0.63597   0.00000  Uiso   1.00
H1004  H     0.94599   0.88448   0.64163   0.00000  Uiso   1.00
C1005  C     0.76151   0.77605   0.37219   0.00000  Uiso   1.00
H1006  H     0.76366   0.77746   0.40839   0.00000  Uiso   1.00
H1007  H     0.72068   0.78218   0.35837   0.00000  Uiso   1.00
H1008  H     0.76938   0.74361   0.36403   0.00000  Uiso   1.00
C1009  C     0.16650   0.08679   0.83330   0.00000  Uiso   1.00
C1010  C     0.16683   0.24654   0.83337   0.00000  Uiso   1.00
C1011  C     0.06743   0.16544   0.82191   0.00000  Uiso   1.00
C1012  C     0.26590   0.16789   0.84476   0.00000  Uiso   1.00
C1013  C     0.01269   0.15768   0.81791   0.00000  Uiso   1.00
C1014  C     0.32064   0.17565   0.84876   0.00000  Uiso   1.00
C1015  C     0.17228   0.02162   0.79368   0.00000  Uiso   1.00
C1016  C     0.16105   0.31171   0.87299   0.00000  Uiso   1.00
C1017  C     0.17242   0.31235   0.79371   0.00000  Uiso   1.00
C1018  C     0.16091   0.02098   0.87296   0.00000  Uiso   1.00
C1019  C     0.16680   0.29079   0.83336   0.00000  Uiso   1.00
C1020  C     0.16653   0.04254   0.83331   0.00000  Uiso   1.00
C1021  C     0.20061   0.19340   0.69461   0.00000  Uiso   1.00
C1022  C     0.13272   0.13993   0.97205   0.00000  Uiso   1.00
C1023  C     0.20049   0.19346   0.98018   0.00000  Uiso   1.00
C1024  C     0.13284   0.13988   0.68649   0.00000  Uiso   1.00
H1025  H     0.17687   0.03801   0.76279   0.00000  Uiso   1.00
H1026  H     0.15647   0.29532   0.90388   0.00000  Uiso   1.00
H1027  H     0.17704   0.29649   0.76283   0.00000  Uiso   1.00
H1028  H     0.15629   0.03684   0.90384   0.00000  Uiso   1.00
N1029  N     0.16665   0.16666   0.95240   0.00000  Uiso   1.00
N1030  N     0.16668   0.16668   0.71427   0.00000  Uiso   1.00
O1031  O     0.16666   0.10558   0.87154   0.00000  Uiso   1.00
O1032  O     0.16667   0.22775   0.79513   0.00000  Uiso   1.00
O1033  O     0.16666   0.10559   0.79510   0.00000  Uiso   1.00
O1034  O     0.16667   0.22774   0.87157   0.00000  Uiso   1.00
O1035  O     0.09058   0.16666   0.86261   0.00000  Uiso   1.00
O1036  O     0.24275   0.16667   0.80405   0.00000  Uiso   1.00
O1037  O     0.09058   0.16667   0.78617   0.00000  Uiso   1.00
O1038  O     0.24275   0.16666   0.88050   0.00000  Uiso   1.00
Zn1039 Zn    0.16667   0.16666   0.88437   0.00000  Uiso   1.00
Zn1040 Zn    0.16667   0.16667   0.78229   0.00000  Uiso   1.00
C1041  C     0.32209   0.12311   0.78525   0.00000  Uiso   1.00
H1042  H     0.01920   0.10396   0.77476   0.00000  Uiso   1.00
H1043  H     0.29522   0.10129   0.80127   0.00000  Uiso   1.00
H1044  H     0.30092   0.13665   0.75450   0.00000  Uiso   1.00
C1045  C     0.01124   0.21022   0.88142   0.00000  Uiso   1.00
H1046  H     0.31413   0.22937   0.89190   0.00000  Uiso   1.00
H1047  H     0.03242   0.19668   0.91216   0.00000  Uiso   1.00
H1048  H     0.03811   0.23204   0.86539   0.00000  Uiso   1.00
C1049  C     0.23933   0.22344   0.72280   0.00000  Uiso   1.00
H1050  H     0.27991   0.21633   0.71899   0.00000  Uiso   1.00
H1051  H     0.23271   0.25597   0.71238   0.00000  Uiso   1.00
H1052  H     0.23700   0.22270   0.75856   0.00000  Uiso   1.00
C1053  C     0.09401   0.10990   0.94387   0.00000  Uiso   1.00
H1054  H     0.10062   0.07736   0.95429   0.00000  Uiso   1.00
H1055  H     0.05342   0.11700   0.94767   0.00000  Uiso   1.00
H1056  H     0.09633   0.11064   0.90811   0.00000  Uiso   1.00
C1057  C     0.23849   0.22395   0.96115   0.00000  Uiso   1.00
H1058  H     0.23634   0.22254   0.92494   0.00000  Uiso   1.00
H1059  H     0.23063   0.25639   0.96931   0.00000  Uiso   1.00
H1060  H     0.27932   0.21782   0.97496   0.00000  Uiso   1.00
C1061  C     0.09484   0.10938   0.70552   0.00000  Uiso   1.00
H1062  H     0.09699   0.11079   0.74173   0.00000  Uiso   1.00
H1063  H     0.05401   0.11551   0.69171   0.00000  Uiso   1.00
H1064  H     0.10271   0.07694   0.69736   0.00000  Uiso   1.00
C1065  C     0.49984   0.08679   0.83330   0.00000  Uiso   1.00
C1066  C     0.50016   0.24654   0.83337   0.00000  Uiso   1.00
C1067  C     0.40077   0.16544   0.82191   0.00000  Uiso   1.00
C1068  C     0.59923   0.16789   0.84476   0.00000  Uiso   1.00
C1069  C     0.34603   0.15768   0.81791   0.00000  Uiso   1.00
C1070  C     0.65397   0.17565   0.84876   0.00000  Uiso   1.00
C1071  C     0.50561   0.02162   0.79368   0.00000  Uiso   1.00
C1072  C     0.49439   0.31171   0.87299   0.00000  Uiso   1.00
C1073  C     0.50575   0.31235   0.79371   0.00000  Uiso   1.00
C1074  C     0.49425   0.02098   0.87296   0.00000  Uiso   1.00
C1075  C     0.50014   0.29079   0.83336   0.00000  Uiso   1.00
C1076  C     0.49986   0.04254   0.83331   0.00000  Uiso   1.00
C1077  C     0.53394   0.19340   0.69461   0.00000  Uiso   1.00
C1078  C     0.46606   0.13993   0.97205   0.00000  Uiso   1.00
C1079  C     0.53383   0.19346   0.98018   0.00000  Uiso   1.00
C1080  C     0.46617   0.13988   0.68649   0.00000  Uiso   1.00
H1081  H     0.51020   0.03801   0.76279   0.00000  Uiso   1.00
H1082  H     0.48980   0.29532   0.90388   0.00000  Uiso   1.00
H1083  H     0.51038   0.29649   0.76283   0.00000  Uiso   1.00
H1084  H     0.48962   0.03684   0.90384   0.00000  Uiso   1.00
N1085  N     0.49999   0.16666   0.95240   0.00000  Uiso   1.00
N1086  N     0.50001   0.16668   0.71427   0.00000  Uiso   1.00
O1087  O     0.50000   0.10558   0.87154   0.00000  Uiso   1.00
O1088  O     0.50000   0.22775   0.79513   0.00000  Uiso   1.00
O1089  O     0.50000   0.10559   0.79510   0.00000  Uiso   1.00
O1090  O     0.50000   0.22774   0.87157   0.00000  Uiso   1.00
O1091  O     0.42392   0.16666   0.86261   0.00000  Uiso   1.00
O1092  O     0.57608   0.16667   0.80405   0.00000  Uiso   1.00
O1093  O     0.42392   0.16667   0.78617   0.00000  Uiso   1.00
O1094  O     0.57608   0.16666   0.88050   0.00000  Uiso   1.00
Zn1095 Zn    0.50000   0.16666   0.88437   0.00000  Uiso   1.00
Zn1096 Zn    0.50000   0.16667   0.78229   0.00000  Uiso   1.00
C1097  C     0.65543   0.12311   0.78525   0.00000  Uiso   1.00
H1098  H     0.35253   0.10396   0.77476   0.00000  Uiso   1.00
H1099  H     0.62856   0.10129   0.80127   0.00000  Uiso   1.00
H1100  H     0.63425   0.13665   0.75450   0.00000  Uiso   1.00
C1101  C     0.34457   0.21022   0.88142   0.00000  Uiso   1.00
H1102  H     0.64747   0.22937   0.89190   0.00000  Uiso   1.00
H1103  H     0.36575   0.19668   0.91216   0.00000  Uiso   1.00
H1104  H     0.37144   0.23204   0.86539   0.00000  Uiso   1.00
C1105  C     0.57266   0.22344   0.72280   0.00000  Uiso   1.00
H1106  H     0.61325   0.21633   0.71899   0.00000  Uiso   1.00
H1107  H     0.56605   0.25597   0.71238   0.00000  Uiso   1.00
H1108  H     0.57033   0.22270   0.75856   0.00000  Uiso   1.00
C1109  C     0.42734   0.10990   0.94387   0.00000  Uiso   1.00
H1110  H     0.43395   0.07736   0.95429   0.00000  Uiso   1.00
H1111  H     0.38675   0.11700   0.94767   0.00000  Uiso   1.00
H1112  H     0.42967   0.11064   0.90811   0.00000  Uiso   1.00
C1113  C     0.57183   0.22395   0.96115   0.00000  Uiso   1.00
H1114  H     0.56967   0.22254   0.92494   0.00000  Uiso   1.00
H1115  H     0.56396   0.25639   0.96931   0.00000  Uiso   1.00
H1116  H     0.61265   0.21782   0.97496   0.00000  Uiso   1.00
C1117  C     0.42817   0.10938   0.70552   0.00000  Uiso   1.00
H1118  H     0.43033   0.11079   0.74173   0.00000  Uiso   1.00
H1119  H     0.38735   0.11551   0.69171   0.00000  Uiso   1.00
H1120  H     0.43604   0.07694   0.69736   0.00000  Uiso   1.00
C1121  C     0.83317   0.08679   0.83330   0.00000  Uiso   1.00
C1122  C     0.83350   0.24654   0.83337   0.00000  Uiso   1.00
C1123  C     0.73410   0.16544   0.82191   0.00000  Uiso   1.00
C1124  C     0.93257   0.16789   0.84476   0.00000  Uiso   1.00
C1125  C     0.67936   0.15768   0.81791   0.00000  Uiso   1.00
C1126  C     0.98731   0.17565   0.84876   0.00000  Uiso   1.00
C1127  C     0.83895   0.02162   0.79368   0.00000  Uiso   1.00
C1128  C     0.82772   0.31171   0.87299   0.00000  Uiso   1.00
C1129  C     0.83909   0.31235   0.79371   0.00000  Uiso   1.00
C1130  C     0.82758   0.02098   0.87296   0.00000  Uiso   1.00
C1131  C     0.83347   0.29079   0.83336   0.00000  Uiso   1.00
C1132  C     0.83320   0.04254   0.83331   0.00000  Uiso   1.00
C1133  C     0.86728   0.19340   0.69461   0.00000  Uiso   1.00
C1134  C     0.79939   0.13993   0.97205   0.00000  Uiso   1.00
C1135  C     0.86716   0.19346   0.98018   0.00000  Uiso   1.00
C1136  C     0.79951   0.13988   0.68649   0.00000  Uiso   1.00
H1137  H     0.84353   0.03801   0.76279   0.00000  Uiso   1.00
H1138  H     0.82313   0.29532   0.90388   0.00000  Uiso   1.00
H1139  H     0.84371   0.29649   0.76283   0.00000  Uiso   1.00
H1140  H     0.82296   0.03684   0.90384   0.00000  Uiso   1.00
N1141  N     0.83332   0.16666   0.95240   0.00000  Uiso   1.00
N1142  N     0.83335   0.16668   0.71427   0.00000  Uiso   1.00
O1143  O     0.83333   0.10558   0.87154   0.00000  Uiso   1.00
O1144  O     0.83334   0.22775   0.79513   0.00000  Uiso   1.00
O1145  O     0.83333   0.10559   0.79510   0.00000  Uiso   1.00
O1146  O     0.83334   0.22774   0.87157   0.00000  Uiso   1.00
O1147  O     0.75725   0.16666   0.86261   0.00000  Uiso   1.00
O1148  O     0.90942   0.16667   0.80405   0.00000  Uiso   1.00
O1149  O     0.75725   0.16667   0.78617   0.00000  Uiso   1.00
O1150  O     0.90942   0.16666   0.88050   0.00000  Uiso   1.00
Zn1151 Zn    0.83333   0.16666   0.88437   0.00000  Uiso   1.00
Zn1152 Zn    0.83333   0.16667   0.78229   0.00000  Uiso   1.00
C1153  C     0.98876   0.12311   0.78525   0.00000  Uiso   1.00
H1154  H     0.68587   0.10396   0.77476   0.00000  Uiso   1.00
H1155  H     0.96189   0.10129   0.80127   0.00000  Uiso   1.00
H1156  H     0.96758   0.13665   0.75450   0.00000  Uiso   1.00
C1157  C     0.67791   0.21022   0.88142   0.00000  Uiso   1.00
H1158  H     0.98080   0.22937   0.89190   0.00000  Uiso   1.00
H1159  H     0.69908   0.19668   0.91216   0.00000  Uiso   1.00
H1160  H     0.70477   0.23204   0.86539   0.00000  Uiso   1.00
C1161  C     0.90599   0.22344   0.72280   0.00000  Uiso   1.00
H1162  H     0.94658   0.21633   0.71899   0.00000  Uiso   1.00
H1163  H     0.89938   0.25597   0.71238   0.00000  Uiso   1.00
H1164  H     0.90367   0.22270   0.75856   0.00000  Uiso   1.00
C1165  C     0.76067   0.10990   0.94387   0.00000  Uiso   1.00
H1166  H     0.76729   0.07736   0.95429   0.00000  Uiso   1.00
H1167  H     0.72009   0.11700   0.94767   0.00000  Uiso   1.00
H1168  H     0.76300   0.11064   0.90811   0.00000  Uiso   1.00
C1169  C     0.90516   0.22395   0.96115   0.00000  Uiso   1.00
H1170  H     0.90301   0.22254   0.92494   0.00000  Uiso   1.00
H1171  H     0.89729   0.25639   0.96931   0.00000  Uiso   1.00
H1172  H     0.94599   0.21782   0.97496   0.00000  Uiso   1.00
C1173  C     0.76151   0.10938   0.70552   0.00000  Uiso   1.00
H1174  H     0.76366   0.11079   0.74173   0.00000  Uiso   1.00
H1175  H     0.72068   0.11551   0.69171   0.00000  Uiso   1.00
H1176  H     0.76938   0.07694   0.69736   0.00000  Uiso   1.00
C1177  C     0.16650   0.42012   0.83330   0.00000  Uiso   1.00
C1178  C     0.16683   0.57988   0.83337   0.00000  Uiso   1.00
C1179  C     0.06743   0.49877   0.82191   0.00000  Uiso   1.00
C1180  C     0.26590   0.50123   0.84476   0.00000  Uiso   1.00
C1181  C     0.01269   0.49101   0.81791   0.00000  Uiso   1.00
C1182  C     0.32064   0.50899   0.84876   0.00000  Uiso   1.00
C1183  C     0.17228   0.35496   0.79368   0.00000  Uiso   1.00
C1184  C     0.16105   0.64504   0.87299   0.00000  Uiso   1.00
C1185  C     0.17242   0.64569   0.79371   0.00000  Uiso   1.00
C1186  C     0.16091   0.35431   0.87296   0.00000  Uiso   1.00
C1187  C     0.16680   0.62412   0.83336   0.00000  Uiso   1.00
C1188  C     0.16653   0.37587   0.83331   0.00000  Uiso   1.00
C1189  C     0.20061   0.52674   0.69461   0.00000  Uiso   1.00
C1190  C     0.13272   0.47326   0.97205   0.00000  Uiso   1.00
C1191  C     0.20049   0.52679   0.98018   0.00000  Uiso   1.00
C1192  C     0.13284   0.47321   0.68649   0.00000  Uiso   1.00
H1193  H     0.17687   0.37135   0.76279   0.00000  Uiso   1.00
H1194  H     0.15647   0.62865   0.90388   0.00000  Uiso   1.00
H1195  H     0.17704   0.62982   0.76283   0.00000  Uiso   1.00
H1196  H     0.15629   0.37018   0.90384   0.00000  Uiso   1.00
N1197  N     0.16665   0.49999   0.95240   0.00000  Uiso   1.00
N1198  N     0.16668   0.50001   0.71427   0.00000  Uiso   1.00
O1199  O     0.16666   0.43892   0.87154   0.00000  Uiso   1.00
O1200  O     0.16667   0.56108   0.79513   0.00000  Uiso   1.00
O1201  O     0.16666   0.43893   0.79510   0.00000  Uiso   1.00
O1202  O     0.16667   0.56107   0.87157   0.00000  Uiso   1.00
O1203  O     0.09058   0.50000   0.86261   0.00000  Uiso   1.00
O1204  O     0.24275   0.50000   0.80405   0.00000  Uiso   1.00
O1205  O     0.09058   0.50000   0.78617   0.00000  Uiso   1.00
O1206  O     0.24275   0.50000   0.88050   0.00000  Uiso   1.00
Zn1207 Zn    0.16667   0.49999   0.88437   0.00000  Uiso   1.00
Zn1208 Zn    0.16667   0.50001   0.78229   0.00000  Uiso   1.00
C1209  C     0.32209   0.45644   0.78525   0.00000  Uiso   1.00
H1210  H     0.01920   0.43730   0.77476   0.00000  Uiso   1.00
H1211  H     0.29522   0.43463   0.80127   0.00000  Uiso   1.00
H1212  H     0.30092   0.46999   0.75450   0.00000  Uiso   1.00
C1213  C     0.01124   0.54356   0.88142   0.00000  Uiso   1.00
H1214  H     0.31413   0.56270   0.89190   0.00000  Uiso   1.00
H1215  H     0.03242   0.53001   0.91216   0.00000  Uiso   1.00
H1216  H     0.03811   0.56537   0.86539   0.00000  Uiso   1.00
C1217  C     0.23933   0.55677   0.72280   0.00000  Uiso   1.00
H1218  H     0.27991   0.54966   0.71899   0.00000  Uiso   1.00
H1219  H     0.23271   0.58931   0.71238   0.00000  Uiso   1.00
H1220  H     0.23700   0.55603   0.75856   0.00000  Uiso   1.00
C1221  C     0.09401   0.44323   0.94387   0.00000  Uiso   1.00
H1222  H     0.10062   0.41069   0.95429   0.00000  Uiso   1.00
H1223  H     0.05342   0.45033   0.94767   0.00000  Uiso   1.00
H1224  H     0.09633   0.44397   0.90811   0.00000  Uiso   1.00
C1225  C     0.23849   0.55729   0.96115   0.00000  Uiso   1.00
H1226  H     0.23634   0.55588   0.92494   0.00000  Uiso   1.00
H1227  H     0.23063   0.58972   0.96931   0.00000  Uiso   1.00
H1228  H     0.27932   0.55115   0.97496   0.00000  Uiso   1.00
C1229  C     0.09484   0.44271   0.70552   0.00000  Uiso   1.00
H1230  H     0.09699   0.44412   0.74173   0.00000  Uiso   1.00
H1231  H     0.05401   0.44885   0.69171   0.00000  Uiso   1.00
H1232  H     0.10271   0.41028   0.69736   0.00000  Uiso   1.00
C1233  C     0.49984   0.42012   0.83330   0.00000  Uiso   1.00
C1234  C     0.50016   0.57988   0.83337   0.00000  Uiso   1.00
C1235  C     0.40077   0.49877   0.82191   0.00000  Uiso   1.00
C1236  C     0.59923   0.50123   0.84476   0.00000  Uiso   1.00
C1237  C     0.34603   0.49101   0.81791   0.00000  Uiso   1.00
C1238  C     0.65397   0.50899   0.84876   0.00000  Uiso   1.00
C1239  C     0.50561   0.35496   0.79368   0.00000  Uiso   1.00
C1240  C     0.49439   0.64504   0.87299   0.00000  Uiso   1.00
C1241  C     0.50575   0.64569   0.79371   0.00000  Uiso   1.00
C1242  C     0.49425   0.35431   0.87296   0.00000  Uiso   1.00
C1243  C     0.50014   0.62412   0.83336   0.00000  Uiso   1.00
C1244  C     0.49986   0.37587   0.83331   0.00000  Uiso   1.00
C1245  C     0.53394   0.52674   0.69461   0.00000  Uiso   1.00
C1246  C     0.46606   0.47326   0.97205   0.00000  Uiso   1.00
C1247  C     0.53383   0.52679   0.98018   0.00000  Uiso   1.00
C1248  C     0.46617   0.47321   0.68649   0.00000  Uiso   1.00
H1249  H     0.51020   0.37135   0.76279   0.00000  Uiso   1.00
H1250  H     0.48980   0.62865   0.90388   0.00000  Uiso   1.00
H1251  H     0.51038   0.62982   0.76283   0.00000  Uiso   1.00
H1252  H     0.48962   0.37018   0.90384   0.00000  Uiso   1.00
N1253  N     0.49999   0.49999   0.95240   0.00000  Uiso   1.00
N1254  N     0.50001   0.50001   0.71427   0.00000  Uiso   1.00
O1255  O     0.50000   0.43892   0.87154   0.00000  Uiso   1.00
O1256  O     0.50000   0.56108   0.79513   0.00000  Uiso   1.00
O1257  O     0.50000   0.43893   0.79510   0.00000  Uiso   1.00
O1258  O     0.50000   0.56107   0.87157   0.00000  Uiso   1.00
O1259  O     0.42392   0.50000   0.86261   0.00000  Uiso   1.00
O1260  O     0.57608   0.50000   0.80405   0.00000  Uiso   1.00
O1261  O     0.42392   0.50000   0.78617   0.00000  Uiso   1.00
O1262  O     0.57608   0.50000   0.88050   0.00000  Uiso   1.00
Zn1263 Zn    0.50000   0.49999   0.88437   0.00000  Uiso   1.00
Zn1264 Zn    0.50000   0.50001   0.78229   0.00000  Uiso   1.00
C1265  C     0.65543   0.45644   0.78525   0.00000  Uiso   1.00
H1266  H     0.35253   0.43730   0.77476   0.00000  Uiso   1.00
H1267  H     0.62856   0.43463   0.80127   0.00000  Uiso   1.00
H1268  H     0.63425   0.46999   0.75450   0.00000  Uiso   1.00
C1269  C     0.34457   0.54356   0.88142   0.00000  Uiso   1.00
H1270  H     0.64747   0.56270   0.89190   0.00000  Uiso   1.00
H1271  H     0.36575   0.53001   0.91216   0.00000  Uiso   1.00
H1272  H     0.37144   0.56537   0.86539   0.00000  Uiso   1.00
C1273  C     0.57266   0.55677   0.72280   0.00000  Uiso   1.00
H1274  H     0.61325   0.54966   0.71899   0.00000  Uiso   1.00
H1275  H     0.56605   0.58931   0.71238   0.00000  Uiso   1.00
H1276  H     0.57033   0.55603   0.75856   0.00000  Uiso   1.00
C1277  C     0.42734   0.44323   0.94387   0.00000  Uiso   1.00
H1278  H     0.43395   0.41069   0.95429   0.00000  Uiso   1.00
H1279  H     0.38675   0.45033   0.94767   0.00000  Uiso   1.00
H1280  H     0.42967   0.44397   0.90811   0.00000  Uiso   1.00
C1281  C     0.57183   0.55729   0.96115   0.00000  Uiso   1.00
H1282  H     0.56967   0.55588   0.92494   0.00000  Uiso   1.00
H1283  H     0.56396   0.58972   0.96931   0.00000  Uiso   1.00
H1284  H     0.61265   0.55115   0.97496   0.00000  Uiso   1.00
C1285  C     0.42817   0.44271   0.70552   0.00000  Uiso   1.00
H1286  H     0.43033   0.44412   0.74173   0.00000  Uiso   1.00
H1287  H     0.38735   0.44885   0.69171   0.00000  Uiso   1.00
H1288  H     0.43604   0.41028   0.69736   0.00000  Uiso   1.00
C1289  C     0.83317   0.42012   0.83330   0.00000  Uiso   1.00
C1290  C     0.83350   0.57988   0.83337   0.00000  Uiso   1.00
C1291  C     0.73410   0.49877   0.82191   0.00000  Uiso   1.00
C1292  C     0.93257   0.50123   0.84476   0.00000  Uiso   1.00
C1293  C     0.67936   0.49101   0.81791   0.00000  Uiso   1.00
C1294  C     0.98731   0.50899   0.84876   0.00000  Uiso   1.00
C1295  C     0.83895   0.35496   0.79368   0.00000  Uiso   1.00
C1296  C     0.82772   0.64504   0.87299   0.00000  Uiso   1.00
C1297  C     0.83909   0.64569   0.79371   0.00000  Uiso   1.00
C1298  C     0.82758   0.35431   0.87296   0.00000  Uiso   1.00
C1299  C     0.83347   0.62412   0.83336   0.00000  Uiso   1.00
C1300  C     0.83320   0.37587   0.83331   0.00000  Uiso   1.00
C1301  C     0.86728   0.52674   0.69461   0.00000  Uiso   1.00
C1302  C     0.79939   0.47326   0.97205   0.00000  Uiso   1.00
C1303  C     0.86716   0.52679   0.98018   0.00000  Uiso   1.00
C1304  C     0.79951   0.47321   0.68649   0.00000  Uiso   1.00
H1305  H     0.84353   0.37135   0.76279   0.00000  Uiso   1.00
H1306  H     0.82313   0.62865   0.90388   0.00000  Uiso   1.00
H1307  H     0.84371   0.62982   0.76283   0.00000  Uiso   1.00
H1308  H     0.82296   0.37018   0.90384   0.00000  Uiso   1.00
N1309  N     0.83332   0.49999   0.95240   0.00000  Uiso   1.00
N1310  N     0.83335   0.50001   0.71427   0.00000  Uiso   1.00
O1311  O     0.83333   0.43892   0.87154   0.00000  Uiso   1.00
O1312  O     0.83334   0.56108   0.79513   0.00000  Uiso   1.00
O1313  O     0.83333   0.43893   0.79510   0.00000  Uiso   1.00
O1314  O     0.83334   0.56107   0.87157   0.00000  Uiso   1.00
O1315  O     0.75725   0.50000   0.86261   0.00000  Uiso   1.00
O1316  O     0.90942   0.50000   0.80405   0.00000  Uiso   1.00
O1317  O     0.75725   0.50000   0.78617   0.00000  Uiso   1.00
O1318  O     0.90942   0.50000   0.88050   0.00000  Uiso   1.00
Zn1319 Zn    0.83333   0.49999   0.88437   0.00000  Uiso   1.00
Zn1320 Zn    0.83333   0.50001   0.78229   0.00000  Uiso   1.00
C1321  C     0.98876   0.45644   0.78525   0.00000  Uiso   1.00
H1322  H     0.68587   0.43730   0.77476   0.00000  Uiso   1.00
H1323  H     0.96189   0.43463   0.80127   0.00000  Uiso   1.00
H1324  H     0.96758   0.46999   0.75450   0.00000  Uiso   1.00
C1325  C     0.67791   0.54356   0.88142   0.00000  Uiso   1.00
H1326  H     0.98080   0.56270   0.89190   0.00000  Uiso   1.00
H1327  H     0.69908   0.53001   0.91216   0.00000  Uiso   1.00
H1328  H     0.70477   0.56537   0.86539   0.00000  Uiso   1.00
C1329  C     0.90599   0.55677   0.72280   0.00000  Uiso   1.00
H1330  H     0.94658   0.54966   0.71899   0.00000  Uiso   1.00
H1331  H     0.89938   0.58931   0.71238   0.00000  Uiso   1.00
H1332  H     0.90367   0.55603   0.75856   0.00000  Uiso   1.00
C1333  C     0.76067   0.44323   0.94387   0.00000  Uiso   1.00
H1334  H     0.76729   0.41069   0.95429   0.00000  Uiso   1.00
H1335  H     0.72009   0.45033   0.94767   0.00000  Uiso   1.00
H1336  H     0.76300   0.44397   0.90811   0.00000  Uiso   1.00
C1337  C     0.90516   0.55729   0.96115   0.00000  Uiso   1.00
H1338  H     0.90301   0.55588   0.92494   0.00000  Uiso   1.00
H1339  H     0.89729   0.58972   0.96931   0.00000  Uiso   1.00
H1340  H     0.94599   0.55115   0.97496   0.00000  Uiso   1.00
C1341  C     0.76151   0.44271   0.70552   0.00000  Uiso   1.00
H1342  H     0.76366   0.44412   0.74173   0.00000  Uiso   1.00
H1343  H     0.72068   0.44885   0.69171   0.00000  Uiso   1.00
H1344  H     0.76938   0.41028   0.69736   0.00000  Uiso   1.00
C1345  C     0.16650   0.75346   0.83330   0.00000  Uiso   1.00
C1346  C     0.16683   0.91321   0.83337   0.00000  Uiso   1.00
C1347  C     0.06743   0.83211   0.82191   0.00000  Uiso   1.00
C1348  C     0.26590   0.83456   0.84476   0.00000  Uiso   1.00
C1349  C     0.01269   0.82435   0.81791   0.00000  Uiso   1.00
C1350  C     0.32064   0.84232   0.84876   0.00000  Uiso   1.00
C1351  C     0.17228   0.68829   0.79368   0.00000  Uiso   1.00
C1352  C     0.16105   0.97838   0.87299   0.00000  Uiso   1.00
C1353  C     0.17242   0.97902   0.79371   0.00000  Uiso   1.00
C1354  C     0.16091   0.68765   0.87296   0.00000  Uiso   1.00
C1355  C     0.16680   0.95746   0.83336   0.00000  Uiso   1.00
C1356  C     0.16653   0.70921   0.83331   0.00000  Uiso   1.00
C1357  C     0.20061   0.86007   0.69461   0.00000  Uiso   1.00
C1358  C     0.13272   0.80659   0.97205   0.00000  Uiso   1.00
C1359  C     0.20049   0.86012   0.98018   0.00000  Uiso   1.00
C1360  C     0.13284   0.80654   0.68649   0.00000  Uiso   1.00
H1361  H     0.17687   0.70468   0.76279   0.00000  Uiso   1.00
H1362  H     0.15647   0.96199   0.90388   0.00000  Uiso   1.00
H1363  H     0.17704   0.96316   0.76283   0.00000  Uiso   1.00
H1364  H     0.15629   0.70351   0.90384   0.00000  Uiso   1.00
N1365  N     0.16665   0.83332   0.95240   0.00000  Uiso   1.00
N1366  N     0.16668   0.83334   0.71427   0.00000  Uiso   1.00
O1367  O     0.16666   0.77225   0.87154   0.00000  Uiso   1.00
O1368  O     0.16667   0.89442   0.79513   0.00000  Uiso   1.00
O1369  O     0.16666   0.77226   0.79510   0.00000  Uiso   1.00
O1370  O     0.16667   0.89441   0.87157   0.00000  Uiso   1.00
O1371  O     0.09058   0.83333   0.86261   0.00000  Uiso   1.00
O1372  O     0.24275   0.83334   0.80405   0.00000  Uiso   1.00
O1373  O     0.09058   0.83334   0.78617   0.00000  Uiso   1.00
O1374  O     0.24275   0.83333   0.88050   0.00000  Uiso   1.00
Zn1375 Zn    0.16667   0.83333   0.88437   0.00000  Uiso   1.00
Zn1376 Zn    0.16667   0.83334   0.78229   0.00000  Uiso   1.00
C1377  C     0.32209   0.78978   0.78525   0.00000  Uiso   1.00
H1378  H     0.01920   0.77063   0.77476   0.00000  Uiso   1.00
H1379  H     0.29522   0.76796   0.80127   0.00000  Uiso   1.00
H1380  H     0.30092   0.80332   0.75450   0.00000  Uiso   1.00
C1381  C     0.01124   0.87689   0.88142   0.00000  Uiso   1.00
H1382  H     0.31413   0.89603   0.89190   0.00000  Uiso   1.00
H1383  H     0.03242   0.86335   0.91216   0.00000  Uiso   1.00
H1384  H     0.03811   0.89871   0.86539   0.00000  Uiso   1.00
C1385  C     0.23933   0.89010   0.72280   0.00000  Uiso   1.00
H1386  H     0.27991   0.88300   0.71899   0.00000  Uiso   1.00
H1387  H     0.23271   0.92264   0.71238   0.00000  Uiso   1.00
H1388  H     0.23700   0.88936   0.75856   0.00000  Uiso   1.00
C1389  C     0.09401   0.77656   0.94387   0.00000  Uiso   1.00
H1390  H     0.10062   0.74402   0.95429   0.00000  Uiso   1.00
H1391  H     0.05342   0.78367   0.94767   0.00000  Uiso   1.00
H1392  H     0.09633   0.77730   0.90811   0.00000  Uiso   1.00
C1393  C     0.23849   0.89062   0.96115   0.00000  Uiso   1.00
H1394  H     0.23634   0.88921   0.92494   0.00000  Uiso   1.00
H1395  H     0.23063   0.92305   0.96931   0.00000  Uiso   1.00
H1396  H     0.27932   0.88448   0.97496   0.00000  Uiso   1.00
C1397  C     0.09484   0.77605   0.70552   0.00000  Uiso   1.00
H1398  H     0.09699   0.77746   0.74173   0.00000  Uiso   1.00
H1399  H     0.05401   0.78218   0.69171   0.00000  Uiso   1.00
H1400  H     0.10271   0.74361   0.69736   0.00000  Uiso   1.00
C1401  C     0.49984   0.75346   0.83330   0.00000  Uiso   1.00
C1402  C     0.50016   0.91321   0.83337   0.00000  Uiso   1.00
C1403  C     0.40077   0.83211   0.82191   0.00000  Uiso   1.00
C1404  C     0.59923   0.83456   0.84476   0.00000  Uiso   1.00
C1405  C     0.34603   0.82435   0.81791   0.00000  Uiso   1.00
C1406  C     0.65397   0.84232   0.84876   0.00000  Uiso   1.00
C1407  C     0.50561   0.68829   0.79368   0.00000  Uiso   1.00
C1408  C     0.49439   0.97838   0.87299   0.00000  Uiso   1.00
C1409  C     0.50575   0.97902   0.79371   0.00000  Uiso   1.00
C1410  C     0.49425   0.68765   0.87296   0.00000  Uiso   1.00
C1411  C     0.50014   0.95746   0.83336   0.00000  Uiso   1.00
C1412  C     0.49986   0.70921   0.83331   0.00000  Uiso   1.00
C1413  C     0.53394   0.86007   0.69461   0.00000  Uiso   1.00
C1414  C     0.46606   0.80659   0.97205   0.00000  Uiso   1.00
C1415  C     0.53383   0.86012   0.98018   0.00000  Uiso   1.00
C1416  C     0.46617   0.80654   0.68649   0.00000  Uiso   1.00
H1417  H     0.51020   0.70468   0.76279   0.00000  Uiso   1.00
H1418  H     0.48980   0.96199   0.90388   0.00000  Uiso   1.00
H1419  H     0.51038   0.96316   0.76283   0.00000  Uiso   1.00
H1420  H     0.48962   0.70351   0.90384   0.00000  Uiso   1.00
N1421  N     0.49999   0.83332   0.95240   0.00000  Uiso   1.00
N1422  N     0.50001   0.83334   0.71427   0.00000  Uiso   1.00
O1423  O     0.50000   0.77225   0.87154   0.00000  Uiso   1.00
O1424  O     0.50000   0.89442   0.79513   0.00000  Uiso   1.00
O1425  O     0.50000   0.77226   0.79510   0.00000  Uiso   1.00
O1426  O     0.50000   0.89441   0.87157   0.00000  Uiso   1.00
O1427  O     0.42392   0.83333   0.86261   0.00000  Uiso   1.00
O1428  O     0.57608   0.83334   0.80405   0.00000  Uiso   1.00
O1429  O     0.42392   0.83334   0.78617   0.00000  Uiso   1.00
O1430  O     0.57608   0.83333   0.88050   0.00000  Uiso   1.00
Zn1431 Zn    0.50000   0.83333   0.88437   0.00000  Uiso   1.00
Zn1432 Zn    0.50000   0.83334   0.78229   0.00000  Uiso   1.00
C1433  C     0.65543   0.78978   0.78525   0.00000  Uiso   1.00
H1434  H     0.35253   0.77063   0.77476   0.00000  Uiso   1.00
H1435  H     0.62856   0.76796   0.80127   0.00000  Uiso   1.00
H1436  H     0.63425   0.80332   0.75450   0.00000  Uiso   1.00
C1437  C     0.34457   0.87689   0.88142   0.00000  Uiso   1.00
H1438  H     0.64747   0.89603   0.89190   0.00000  Uiso   1.00
H1439  H     0.36575   0.86335   0.91216   0.00000  Uiso   1.00
H1440  H     0.37144   0.89871   0.86539   0.00000  Uiso   1.00
C1441  C     0.57266   0.89010   0.72280   0.00000  Uiso   1.00
H1442  H     0.61325   0.88300   0.71899   0.00000  Uiso   1.00
H1443  H     0.56605   0.92264   0.71238   0.00000  Uiso   1.00
H1444  H     0.57033   0.88936   0.75856   0.00000  Uiso   1.00
C1445  C     0.42734   0.77656   0.94387   0.00000  Uiso   1.00
H1446  H     0.43395   0.74402   0.95429   0.00000  Uiso   1.00
H1447  H     0.38675   0.78367   0.94767   0.00000  Uiso   1.00
H1448  H     0.42967   0.77730   0.90811   0.00000  Uiso   1.00
C1449  C     0.57183   0.89062   0.96115   0.00000  Uiso   1.00
H1450  H     0.56967   0.88921   0.92494   0.00000  Uiso   1.00
H1451  H     0.56396   0.92305   0.96931   0.00000  Uiso   1.00
H1452  H     0.61265   0.88448   0.97496   0.00000  Uiso   1.00
C1453  C     0.42817   0.77605   0.70552   0.00000  Uiso   1.00
H1454  H     0.43033   0.77746   0.74173   0.00000  Uiso   1.00
H1455  H     0.38735   0.78218   0.69171   0.00000  Uiso   1.00
H1456  H     0.43604   0.74361   0.69736   0.00000  Uiso   1.00
C1457  C     0.83317   0.75346   0.83330   0.00000  Uiso   1.00
C1458  C     0.83350   0.91321   0.83337   0.00000  Uiso   1.00
C1459  C     0.73410   0.83211   0.82191   0.00000  Uiso   1.00
C1460  C     0.93257   0.83456   0.84476   0.00000  Uiso   1.00
C1461  C     0.67936   0.82435   0.81791   0.00000  Uiso   1.00
C1462  C     0.98731   0.84232   0.84876   0.00000  Uiso   1.00
C1463  C     0.83895   0.68829   0.79368   0.00000  Uiso   1.00
C1464  C     0.82772   0.97838   0.87299   0.00000  Uiso   1.00
C1465  C     0.83909   0.97902   0.79371   0.00000  Uiso   1.00
C1466  C     0.82758   0.68765   0.87296   0.00000  Uiso   1.00
C1467  C     0.83347   0.95746   0.83336   0.00000  Uiso   1.00
C1468  C     0.83320   0.70921   0.83331   0.00000  Uiso   1.00
C1469  C     0.86728   0.86007   0.69461   0.00000  Uiso   1.00
C1470  C     0.79939   0.80659   0.97205   0.00000  Uiso   1.00
C1471  C     0.86716   0.86012   0.98018   0.00000  Uiso   1.00
C1472  C     0.79951   0.80654   0.68649   0.00000  Uiso   1.00
H1473  H     0.84353   0.70468   0.76279   0.00000  Uiso   1.00
H1474  H     0.82313   0.96199   0.90388   0.00000  Uiso   1.00
H1475  H     0.84371   0.96316   0.76283   0.00000  Uiso   1.00
H1476  H     0.82296   0.70351   0.90384   0.00000  Uiso   1.00
N1477  N     0.83332   0.83332   0.95240   0.00000  Uiso   1.00
N1478  N     0.83335   0.83334   0.71427   0.00000  Uiso   1.00
O1479  O     0.83333   0.77225   0.87154   0.00000  Uiso   1.00
O1480  O     0.83334   0.89442   0.79513   0.00000  Uiso   1.00
O1481  O     0.83333   0.77226   0.79510   0.00000  Uiso   1.00
O1482  O     0.83334   0.89441   0.87157   0.00000  Uiso   1.00
O1483  O     0.75725   0.83333   0.86261   0.00000  Uiso   1.00
O1484  O     0.90942   0.83334   0.80405   0.00000  Uiso   1.00
O1485  O     0.75725   0.83334   0.78617   0.00000  Uiso   1.00
O1486  O     0.90942   0.83333   0.88050   0.00000  Uiso   1.00
Zn1487 Zn    0.83333   0.83333   0.88437   0.00000  Uiso   1.00
Zn1488 Zn    0.83333   0.83334   0.78229   0.00000  Uiso   1.00
C1489  C     0.98876   0.78978   0.78525   0.00000  Uiso   1.00
H1490  H     0.68587   0.77063   0.77476   0.00000  Uiso   1.00
H1491  H     0.96189   0.76796   0.80127   0.00000  Uiso   1.00
H1492  H     0.96758   0.80332   0.75450   0.00000  Uiso   1.00
C1493  C     0.67791   0.87689   0.88142   0.00000  Uiso   1.00
H1494  H     0.98080   0.89603   0.89190   0.00000  Uiso   1.00
H1495  H     0.69908   0.86335   0.91216   0.00000  Uiso   1.00
H1496  H     0.70477   0.89871   0.86539   0.00000  Uiso   1.00
C1497  C     0.90599   0.89010   0.72280   0.00000  Uiso   1.00
H1498  H     0.94658   0.88300   0.71899   0.00000  Uiso   1.00
H1499  H     0.89938   0.92264   0.71238   0.00000  Uiso   1.00
H1500  H     0.90367   0.88936   0.75856   0.00000  Uiso   1.00
C1501  C     0.76067   0.77656   0.94387   0.00000  Uiso   1.00
H1502  H     0.76729   0.74402   0.95429   0.00000  Uiso   1.00
H1503  H     0.72009   0.78367   0.94767   0.00000  Uiso   1.00
H1504  H     0.76300   0.77730   0.90811   0.00000  Uiso   1.00
C1505  C     0.90516   0.89062   0.96115   0.00000  Uiso   1.00
H1506  H     0.90301   0.88921   0.92494   0.00000  Uiso   1.00
H1507  H     0.89729   0.92305   0.96931   0.00000  Uiso   1.00
H1508  H     0.94599   0.88448   0.97496   0.00000  Uiso   1.00
C1509  C     0.76151   0.77605   0.70552   0.00000  Uiso   1.00
H1510  H     0.76366   0.77746   0.74173   0.00000  Uiso   1.00
H1511  H     0.72068   0.78218   0.69171   0.00000  Uiso   1.00
H1512  H     0.76938   0.74361   0.69736   0.00000  Uiso   1.00
loop_
_geom_bond_atom_site_label_1
_geom_bond_atom_site_label_2
_geom_bond_distance
_geom_bond_site_symmetry_2
_ccdc_geom_bond_type
C1     O25     1.297   .     A
C1     C12     1.423   .     S
C1     O23     1.297   .     A
C2     C11     1.423   .     S
C2     O24     1.297   .     A
C2     O26     1.297   .     A
C3     O29     1.299   .     A
C3     O27     1.284   .     A
C3     C5      1.409   .     S
C4     O30     1.299   .     A
C4     C6      1.409   .     S
C4     O28     1.284   .     A
C5     C118    1.357   1_455 S
C5     C145    1.524   1_455 S
C6     C61     1.357   .     S
C6     C93     1.524   .     S
C7     C12     1.398   .     A
C7     H17     1.084   .     S
C7     C345    1.370   1_545 S
C8     C11     1.398   .     A
C8     H18     1.084   .     S
C8     C178    1.370   .     S
C9     C11     1.398   .     A
C9     H19     1.083   .     S
C9     C175    1.370   .     S
C10    C12     1.398   .     A
C10    H20     1.083   .     S
C10    C344    1.370   1_545 S
C13    C41     1.513   .     S
C13    N22     1.379   .     A
C13    C1023   1.434   1_554 S
C14    C45     1.513   .     S
C14    N21     1.379   .     A
C14    C520    1.434   .     S
C15    N21     1.379   .     A
C15    C49     1.511   .     S
C15    C517    1.434   .     S
C16    C53     1.511   .     S
C16    N22     1.379   .     A
C16    C1022   1.434   1_554 S
N21    Zn31    2.043   .     S
N22    Zn32    2.043   .     S
O23    Zn31    2.001   .     S
O24    Zn32    2.001   .     S
O25    Zn32    2.001   .     S
O26    Zn31    2.001   .     S
O27    Zn31    1.985   .     S
O28    Zn32    1.985   .     S
O29    Zn32    1.987   .     S
O30    Zn31    1.987   .     S
C33    H35     1.111   .     S
C33    H36     1.110   .     S
C33    C61     1.524   .     S
C33    H90     1.109   .     S
H34    C145    1.109   1_455 S
C37    H39     1.110   .     S
C37    H40     1.111   .     S
C37    C118    1.524   1_455 S
C37    H150    1.109   1_455 S
H38    C93     1.109   .     S
C41    H42     1.110   .     S
C41    H43     1.109   .     S
C41    H44     1.084   .     S
C45    H48     1.084   .     S
C45    H47     1.110   .     S
C45    H46     1.109   .     S
C49    H52     1.110   .     S
C49    H50     1.082   .     S
C49    H51     1.109   .     S
C53    H55     1.110   .     S
C53    H54     1.082   .     S
C53    H56     1.109   .     S
C57    O81     1.297   .     A
C57    C68     1.423   .     S
C57    O79     1.297   .     A
C58    C67     1.423   .     S
C58    O80     1.297   .     A
C58    O82     1.297   .     A
C59    O85     1.299   .     A
C59    O83     1.284   .     A
C59    C61     1.409   .     S
C60    O86     1.299   .     A
C60    C62     1.409   .     S
C60    O84     1.284   .     A
C62    C117    1.357   .     S
C62    C149    1.524   .     S
C63    C68     1.398   .     A
C63    H73     1.084   .     S
C63    C401    1.370   1_545 S
C64    C67     1.398   .     A
C64    H74     1.084   .     S
C64    C234    1.370   .     S
C65    C67     1.398   .     A
C65    H75     1.083   .     S
C65    C231    1.370   .     S
C66    C68     1.398   .     A
C66    H76     1.083   .     S
C66    C400    1.370   1_545 S
C69    C97     1.513   .     S
C69    N78     1.379   .     A
C69    C1079   1.434   1_554 S
C70    C101    1.513   .     S
C70    N77     1.379   .     A
C70    C576    1.434   .     S
C71    N77     1.379   .     A
C71    C105    1.511   .     S
C71    C573    1.434   .     S
C72    C109    1.511   .     S
C72    N78     1.379   .     A
C72    C1078   1.434   1_554 S
N77    Zn87    2.043   .     S
N78    Zn88    2.043   .     S
O79    Zn87    2.001   .     S
O80    Zn88    2.001   .     S
O81    Zn88    2.001   .     S
O82    Zn87    2.001   .     S
O83    Zn87    1.985   .     S
O84    Zn88    1.985   .     S
O85    Zn88    1.987   .     S
O86    Zn87    1.987   .     S
C89    H91     1.111   .     S
C89    H92     1.110   .     S
C89    C117    1.524   .     S
C89    H146    1.109   .     S
C93    H95     1.110   .     S
C93    H96     1.111   .     S
H94    C149    1.109   .     S
C97    H98     1.110   .     S
C97    H99     1.109   .     S
C97    H100    1.084   .     S
C101   H104    1.084   .     S
C101   H103    1.110   .     S
C101   H102    1.109   .     S
C105   H108    1.110   .     S
C105   H106    1.082   .     S
C105   H107    1.109   .     S
C109   H111    1.110   .     S
C109   H110    1.082   .     S
C109   H112    1.109   .     S
C113   O137    1.297   .     A
C113   C124    1.423   .     S
C113   O135    1.297   .     A
C114   C123    1.423   .     S
C114   O136    1.297   .     A
C114   O138    1.297   .     A
C115   O141    1.299   .     A
C115   O139    1.284   .     A
C115   C117    1.409   .     S
C116   O142    1.299   .     A
C116   C118    1.409   .     S
C116   O140    1.284   .     A
C118   C5      1.357   1_655 S
C118   C37     1.524   1_655 S
C119   C124    1.398   .     A
C119   H129    1.084   .     S
C119   C457    1.370   1_545 S
C120   C123    1.398   .     A
C120   H130    1.084   .     S
C120   C290    1.370   .     S
C121   C123    1.398   .     A
C121   H131    1.083   .     S
C121   C287    1.370   .     S
C122   C124    1.398   .     A
C122   H132    1.083   .     S
C122   C456    1.370   1_545 S
C125   C153    1.513   .     S
C125   N134    1.379   .     A
C125   C1135   1.434   1_554 S
C126   C157    1.513   .     S
C126   N133    1.379   .     A
C126   C632    1.434   .     S
C127   N133    1.379   .     A
C127   C161    1.511   .     S
C127   C629    1.434   .     S
C128   C165    1.511   .     S
C128   N134    1.379   .     A
C128   C1134   1.434   1_554 S
N133   Zn143   2.043   .     S
N134   Zn144   2.043   .     S
O135   Zn143   2.001   .     S
O136   Zn144   2.001   .     S
O137   Zn144   2.001   .     S
O138   Zn143   2.001   .     S
O139   Zn143   1.985   .     S
O140   Zn144   1.985   .     S
O141   Zn144   1.987   .     S
O142   Zn143   1.987   .     S
C145   H147    1.111   .     S
C145   H148    1.110   .     S
C145   C5      1.524   1_655 S
C145   H34     1.109   1_655 S
C149   H151    1.110   .     S
C149   H152    1.111   .     S
H150   C37     1.109   1_655 S
C153   H154    1.110   .     S
C153   H155    1.109   .     S
C153   H156    1.084   .     S
C157   H160    1.084   .     S
C157   H159    1.110   .     S
C157   H158    1.109   .     S
C161   H164    1.110   .     S
C161   H162    1.082   .     S
C161   H163    1.109   .     S
C165   H167    1.110   .     S
C165   H166    1.082   .     S
C165   H168    1.109   .     S
C169   O193    1.297   .     A
C169   C180    1.423   .     S
C169   O191    1.297   .     A
C170   C179    1.423   .     S
C170   O192    1.297   .     A
C170   O194    1.297   .     A
C171   O197    1.299   .     A
C171   O195    1.284   .     A
C171   C173    1.409   .     S
C172   O198    1.299   .     A
C172   C174    1.409   .     S
C172   O196    1.284   .     A
C173   C286    1.357   1_455 S
C173   C313    1.524   1_455 S
C174   C229    1.357   .     S
C174   C261    1.524   .     S
C175   C180    1.398   .     A
C175   H185    1.084   .     S
C176   C179    1.398   .     A
C176   H186    1.084   .     S
C176   C346    1.370   .     S
C177   C179    1.398   .     A
C177   H187    1.083   .     S
C177   C343    1.370   .     S
C178   C180    1.398   .     A
C178   H188    1.083   .     S
C181   C209    1.513   .     S
C181   N190    1.379   .     A
C181   C1191   1.434   1_554 S
C182   C213    1.513   .     S
C182   N189    1.379   .     A
C182   C688    1.434   .     S
C183   N189    1.379   .     A
C183   C217    1.511   .     S
C183   C685    1.434   .     S
C184   C221    1.511   .     S
C184   N190    1.379   .     A
C184   C1190   1.434   1_554 S
N189   Zn199   2.043   .     S
N190   Zn200   2.043   .     S
O191   Zn199   2.001   .     S
O192   Zn200   2.001   .     S
O193   Zn200   2.001   .     S
O194   Zn199   2.001   .     S
O195   Zn199   1.985   .     S
O196   Zn200   1.985   .     S
O197   Zn200   1.987   .     S
O198   Zn199   1.987   .     S
C201   H203    1.111   .     S
C201   H204    1.110   .     S
C201   C229    1.524   .     S
C201   H258    1.109   .     S
H202   C313    1.109   1_455 S
C205   H207    1.110   .     S
C205   H208    1.111   .     S
C205   C286    1.524   1_455 S
C205   H318    1.109   1_455 S
H206   C261    1.109   .     S
C209   H210    1.110   .     S
C209   H211    1.109   .     S
C209   H212    1.084   .     S
C213   H216    1.084   .     S
C213   H215    1.110   .     S
C213   H214    1.109   .     S
C217   H220    1.110   .     S
C217   H218    1.082   .     S
C217   H219    1.109   .     S
C221   H223    1.110   .     S
C221   H222    1.082   .     S
C221   H224    1.109   .     S
C225   O249    1.297   .     A
C225   C236    1.423   .     S
C225   O247    1.297   .     A
C226   C235    1.423   .     S
C226   O248    1.297   .     A
C226   O250    1.297   .     A
C227   O253    1.299   .     A
C227   O251    1.284   .     A
C227   C229    1.409   .     S
C228   O254    1.299   .     A
C228   C230    1.409   .     S
C228   O252    1.284   .     A
C230   C285    1.357   .     S
C230   C317    1.524   .     S
C231   C236    1.398   .     A
C231   H241    1.084   .     S
C232   C235    1.398   .     A
C232   H242    1.084   .     S
C232   C402    1.370   .     S
C233   C235    1.398   .     A
C233   H243    1.083   .     S
C233   C399    1.370   .     S
C234   C236    1.398   .     A
C234   H244    1.083   .     S
C237   C265    1.513   .     S
C237   N246    1.379   .     A
C237   C1247   1.434   1_554 S
C238   C269    1.513   .     S
C238   N245    1.379   .     A
C238   C744    1.434   .     S
C239   N245    1.379   .     A
C239   C273    1.511   .     S
C239   C741    1.434   .     S
C240   C277    1.511   .     S
C240   N246    1.379   .     A
C240   C1246   1.434   1_554 S
N245   Zn255   2.043   .     S
N246   Zn256   2.043   .     S
O247   Zn255   2.001   .     S
O248   Zn256   2.001   .     S
O249   Zn256   2.001   .     S
O250   Zn255   2.001   .     S
O251   Zn255   1.985   .     S
O252   Zn256   1.985   .     S
O253   Zn256   1.987   .     S
O254   Zn255   1.987   .     S
C257   H259    1.111   .     S
C257   H260    1.110   .     S
C257   C285    1.524   .     S
C257   H314    1.109   .     S
C261   H263    1.110   .     S
C261   H264    1.111   .     S
H262   C317    1.109   .     S
C265   H266    1.110   .     S
C265   H267    1.109   .     S
C265   H268    1.084   .     S
C269   H272    1.084   .     S
C269   H271    1.110   .     S
C269   H270    1.109   .     S
C273   H276    1.110   .     S
C273   H274    1.082   .     S
C273   H275    1.109   .     S
C277   H279    1.110   .     S
C277   H278    1.082   .     S
C277   H280    1.109   .     S
C281   O305    1.297   .     A
C281   C292    1.423   .     S
C281   O303    1.297   .     A
C282   C291    1.423   .     S
C282   O304    1.297   .     A
C282   O306    1.297   .     A
C283   O309    1.299   .     A
C283   O307    1.284   .     A
C283   C285    1.409   .     S
C284   O310    1.299   .     A
C284   C286    1.409   .     S
C284   O308    1.284   .     A
C286   C173    1.357   1_655 S
C286   C205    1.524   1_655 S
C287   C292    1.398   .     A
C287   H297    1.084   .     S
C288   C291    1.398   .     A
C288   H298    1.084   .     S
C288   C458    1.370   .     S
C289   C291    1.398   .     A
C289   H299    1.083   .     S
C289   C455    1.370   .     S
C290   C292    1.398   .     A
C290   H300    1.083   .     S
C293   C321    1.513   .     S
C293   N302    1.379   .     A
C293   C1303   1.434   1_554 S
C294   C325    1.513   .     S
C294   N301    1.379   .     A
C294   C800    1.434   .     S
C295   N301    1.379   .     A
C295   C329    1.511   .     S
C295   C797    1.434   .     S
C296   C333    1.511   .     S
C296   N302    1.379   .     A
C296   C1302   1.434   1_554 S
N301   Zn311   2.043   .     S
N302   Zn312   2.043   .     S
O303   Zn311   2.001   .     S
O304   Zn312   2.001   .     S
O305   Zn312   2.001   .     S
O306   Zn311   2.001   .     S
O307   Zn311   1.985   .     S
O308   Zn312   1.985   .     S
O309   Zn312   1.987   .     S
O310   Zn311   1.987   .     S
C313   H315    1.111   .     S
C313   H316    1.110   .     S
C313   C173    1.524   1_655 S
C313   H202    1.109   1_655 S
C317   H319    1.110   .     S
C317   H320    1.111   .     S
H318   C205    1.109   1_655 S
C321   H322    1.110   .     S
C321   H323    1.109   .     S
C321   H324    1.084   .     S
C325   H328    1.084   .     S
C325   H327    1.110   .     S
C325   H326    1.109   .     S
C329   H332    1.110   .     S
C329   H330    1.082   .     S
C329   H331    1.109   .     S
C333   H335    1.110   .     S
C333   H334    1.082   .     S
C333   H336    1.109   .     S
C337   O361    1.297   .     A
C337   C348    1.423   .     S
C337   O359    1.297   .     A
C338   C347    1.423   .     S
C338   O360    1.297   .     A
C338   O362    1.297   .     A
C339   O365    1.299   .     A
C339   O363    1.284   .     A
C339   C341    1.409   .     S
C340   O366    1.299   .     A
C340   C342    1.409   .     S
C340   O364    1.284   .     A
C341   C454    1.357   1_455 S
C341   C481    1.524   1_455 S
C342   C397    1.357   .     S
C342   C429    1.524   .     S
C343   C348    1.398   .     A
C343   H353    1.084   .     S
C344   C347    1.398   .     A
C344   H354    1.084   .     S
C344   C10     1.370   1_565 S
C345   C347    1.398   .     A
C345   H355    1.083   .     S
C345   C7      1.370   1_565 S
C346   C348    1.398   .     A
C346   H356    1.083   .     S
C349   C377    1.513   .     S
C349   N358    1.379   .     A
C349   C1359   1.434   1_554 S
C350   C381    1.513   .     S
C350   N357    1.379   .     A
C350   C856    1.434   .     S
C351   N357    1.379   .     A
C351   C385    1.511   .     S
C351   C853    1.434   .     S
C352   C389    1.511   .     S
C352   N358    1.379   .     A
C352   C1358   1.434   1_554 S
N357   Zn367   2.043   .     S
N358   Zn368   2.043   .     S
O359   Zn367   2.001   .     S
O360   Zn368   2.001   .     S
O361   Zn368   2.001   .     S
O362   Zn367   2.001   .     S
O363   Zn367   1.985   .     S
O364   Zn368   1.985   .     S
O365   Zn368   1.987   .     S
O366   Zn367   1.987   .     S
C369   H371    1.111   .     S
C369   H372    1.110   .     S
C369   C397    1.524   .     S
C369   H426    1.109   .     S
H370   C481    1.109   1_455 S
C373   H375    1.110   .     S
C373   H376    1.111   .     S
C373   C454    1.524   1_455 S
C373   H486    1.109   1_455 S
H374   C429    1.109   .     S
C377   H378    1.110   .     S
C377   H379    1.109   .     S
C377   H380    1.084   .     S
C381   H384    1.084   .     S
C381   H383    1.110   .     S
C381   H382    1.109   .     S
C385   H388    1.110   .     S
C385   H386    1.082   .     S
C385   H387    1.109   .     S
C389   H391    1.110   .     S
C389   H390    1.082   .     S
C389   H392    1.109   .     S
C393   O417    1.297   .     A
C393   C404    1.423   .     S
C393   O415    1.297   .     A
C394   C403    1.423   .     S
C394   O416    1.297   .     A
C394   O418    1.297   .     A
C395   O421    1.299   .     A
C395   O419    1.284   .     A
C395   C397    1.409   .     S
C396   O422    1.299   .     A
C396   C398    1.409   .     S
C396   O420    1.284   .     A
C398   C453    1.357   .     S
C398   C485    1.524   .     S
C399   C404    1.398   .     A
C399   H409    1.084   .     S
C400   C403    1.398   .     A
C400   H410    1.084   .     S
C400   C66     1.370   1_565 S
C401   C403    1.398   .     A
C401   H411    1.083   .     S
C401   C63     1.370   1_565 S
C402   C404    1.398   .     A
C402   H412    1.083   .     S
C405   C433    1.513   .     S
C405   N414    1.379   .     A
C405   C1415   1.434   1_554 S
C406   C437    1.513   .     S
C406   N413    1.379   .     A
C406   C912    1.434   .     S
C407   N413    1.379   .     A
C407   C441    1.511   .     S
C407   C909    1.434   .     S
C408   C445    1.511   .     S
C408   N414    1.379   .     A
C408   C1414   1.434   1_554 S
N413   Zn423   2.043   .     S
N414   Zn424   2.043   .     S
O415   Zn423   2.001   .     S
O416   Zn424   2.001   .     S
O417   Zn424   2.001   .     S
O418   Zn423   2.001   .     S
O419   Zn423   1.985   .     S
O420   Zn424   1.985   .     S
O421   Zn424   1.987   .     S
O422   Zn423   1.987   .     S
C425   H427    1.111   .     S
C425   H428    1.110   .     S
C425   C453    1.524   .     S
C425   H482    1.109   .     S
C429   H431    1.110   .     S
C429   H432    1.111   .     S
H430   C485    1.109   .     S
C433   H434    1.110   .     S
C433   H435    1.109   .     S
C433   H436    1.084   .     S
C437   H440    1.084   .     S
C437   H439    1.110   .     S
C437   H438    1.109   .     S
C441   H444    1.110   .     S
C441   H442    1.082   .     S
C441   H443    1.109   .     S
C445   H447    1.110   .     S
C445   H446    1.082   .     S
C445   H448    1.109   .     S
C449   O473    1.297   .     A
C449   C460    1.423   .     S
C449   O471    1.297   .     A
C450   C459    1.423   .     S
C450   O472    1.297   .     A
C450   O474    1.297   .     A
C451   O477    1.299   .     A
C451   O475    1.284   .     A
C451   C453    1.409   .     S
C452   O478    1.299   .     A
C452   C454    1.409   .     S
C452   O476    1.284   .     A
C454   C341    1.357   1_655 S
C454   C373    1.524   1_655 S
C455   C460    1.398   .     A
C455   H465    1.084   .     S
C456   C459    1.398   .     A
C456   H466    1.084   .     S
C456   C122    1.370   1_565 S
C457   C459    1.398   .     A
C457   H467    1.083   .     S
C457   C119    1.370   1_565 S
C458   C460    1.398   .     A
C458   H468    1.083   .     S
C461   C489    1.513   .     S
C461   N470    1.379   .     A
C461   C1471   1.434   1_554 S
C462   C493    1.513   .     S
C462   N469    1.379   .     A
C462   C968    1.434   .     S
C463   N469    1.379   .     A
C463   C497    1.511   .     S
C463   C965    1.434   .     S
C464   C501    1.511   .     S
C464   N470    1.379   .     A
C464   C1470   1.434   1_554 S
N469   Zn479   2.043   .     S
N470   Zn480   2.043   .     S
O471   Zn479   2.001   .     S
O472   Zn480   2.001   .     S
O473   Zn480   2.001   .     S
O474   Zn479   2.001   .     S
O475   Zn479   1.985   .     S
O476   Zn480   1.985   .     S
O477   Zn480   1.987   .     S
O478   Zn479   1.987   .     S
C481   H483    1.111   .     S
C481   H484    1.110   .     S
C481   C341    1.524   1_655 S
C481   H370    1.109   1_655 S
C485   H487    1.110   .     S
C485   H488    1.111   .     S
H486   C373    1.109   1_655 S
C489   H490    1.110   .     S
C489   H491    1.109   .     S
C489   H492    1.084   .     S
C493   H496    1.084   .     S
C493   H495    1.110   .     S
C493   H494    1.109   .     S
C497   H500    1.110   .     S
C497   H498    1.082   .     S
C497   H499    1.109   .     S
C501   H503    1.110   .     S
C501   H502    1.082   .     S
C501   H504    1.109   .     S
C505   O529    1.297   .     A
C505   C516    1.423   .     S
C505   O527    1.297   .     A
C506   C515    1.423   .     S
C506   O528    1.297   .     A
C506   O530    1.297   .     A
C507   O533    1.299   .     A
C507   O531    1.284   .     A
C507   C509    1.409   .     S
C508   O534    1.299   .     A
C508   C510    1.409   .     S
C508   O532    1.284   .     A
C509   C622    1.357   1_455 S
C509   C649    1.524   1_455 S
C510   C565    1.357   .     S
C510   C597    1.524   .     S
C511   C516    1.398   .     A
C511   H521    1.084   .     S
C511   C849    1.370   1_545 S
C512   C515    1.398   .     A
C512   H522    1.084   .     S
C512   C682    1.370   .     S
C513   C515    1.398   .     A
C513   H523    1.083   .     S
C513   C679    1.370   .     S
C514   C516    1.398   .     A
C514   H524    1.083   .     S
C514   C848    1.370   1_545 S
C517   C545    1.513   .     S
C517   N526    1.379   .     A
C518   C549    1.513   .     S
C518   N525    1.379   .     A
C518   C1024   1.434   .     S
C519   N525    1.379   .     A
C519   C553    1.511   .     S
C519   C1021   1.434   .     S
C520   C557    1.511   .     S
C520   N526    1.379   .     A
N525   Zn535   2.043   .     S
N526   Zn536   2.043   .     S
O527   Zn535   2.001   .     S
O528   Zn536   2.001   .     S
O529   Zn536   2.001   .     S
O530   Zn535   2.001   .     S
O531   Zn535   1.985   .     S
O532   Zn536   1.985   .     S
O533   Zn536   1.987   .     S
O534   Zn535   1.987   .     S
C537   H539    1.111   .     S
C537   H540    1.110   .     S
C537   C565    1.524   .     S
C537   H594    1.109   .     S
H538   C649    1.109   1_455 S
C541   H543    1.110   .     S
C541   H544    1.111   .     S
C541   C622    1.524   1_455 S
C541   H654    1.109   1_455 S
H542   C597    1.109   .     S
C545   H546    1.110   .     S
C545   H547    1.109   .     S
C545   H548    1.084   .     S
C549   H552    1.084   .     S
C549   H551    1.110   .     S
C549   H550    1.109   .     S
C553   H556    1.110   .     S
C553   H554    1.082   .     S
C553   H555    1.109   .     S
C557   H559    1.110   .     S
C557   H558    1.082   .     S
C557   H560    1.109   .     S
C561   O585    1.297   .     A
C561   C572    1.423   .     S
C561   O583    1.297   .     A
C562   C571    1.423   .     S
C562   O584    1.297   .     A
C562   O586    1.297   .     A
C563   O589    1.299   .     A
C563   O587    1.284   .     A
C563   C565    1.409   .     S
C564   O590    1.299   .     A
C564   C566    1.409   .     S
C564   O588    1.284   .     A
C566   C621    1.357   .     S
C566   C653    1.524   .     S
C567   C572    1.398   .     A
C567   H577    1.084   .     S
C567   C905    1.370   1_545 S
C568   C571    1.398   .     A
C568   H578    1.084   .     S
C568   C738    1.370   .     S
C569   C571    1.398   .     A
C569   H579    1.083   .     S
C569   C735    1.370   .     S
C570   C572    1.398   .     A
C570   H580    1.083   .     S
C570   C904    1.370   1_545 S
C573   C601    1.513   .     S
C573   N582    1.379   .     A
C574   C605    1.513   .     S
C574   N581    1.379   .     A
C574   C1080   1.434   .     S
C575   N581    1.379   .     A
C575   C609    1.511   .     S
C575   C1077   1.434   .     S
C576   C613    1.511   .     S
C576   N582    1.379   .     A
N581   Zn591   2.043   .     S
N582   Zn592   2.043   .     S
O583   Zn591   2.001   .     S
O584   Zn592   2.001   .     S
O585   Zn592   2.001   .     S
O586   Zn591   2.001   .     S
O587   Zn591   1.985   .     S
O588   Zn592   1.985   .     S
O589   Zn592   1.987   .     S
O590   Zn591   1.987   .     S
C593   H595    1.111   .     S
C593   H596    1.110   .     S
C593   C621    1.524   .     S
C593   H650    1.109   .     S
C597   H599    1.110   .     S
C597   H600    1.111   .     S
H598   C653    1.109   .     S
C601   H602    1.110   .     S
C601   H603    1.109   .     S
C601   H604    1.084   .     S
C605   H608    1.084   .     S
C605   H607    1.110   .     S
C605   H606    1.109   .     S
C609   H612    1.110   .     S
C609   H610    1.082   .     S
C609   H611    1.109   .     S
C613   H615    1.110   .     S
C613   H614    1.082   .     S
C613   H616    1.109   .     S
C617   O641    1.297   .     A
C617   C628    1.423   .     S
C617   O639    1.297   .     A
C618   C627    1.423   .     S
C618   O640    1.297   .     A
C618   O642    1.297   .     A
C619   O645    1.299   .     A
C619   O643    1.284   .     A
C619   C621    1.409   .     S
C620   O646    1.299   .     A
C620   C622    1.409   .     S
C620   O644    1.284   .     A
C622   C509    1.357   1_655 S
C622   C541    1.524   1_655 S
C623   C628    1.398   .     A
C623   H633    1.084   .     S
C623   C961    1.370   1_545 S
C624   C627    1.398   .     A
C624   H634    1.084   .     S
C624   C794    1.370   .     S
C625   C627    1.398   .     A
C625   H635    1.083   .     S
C625   C791    1.370   .     S
C626   C628    1.398   .     A
C626   H636    1.083   .     S
C626   C960    1.370   1_545 S
C629   C657    1.513   .     S
C629   N638    1.379   .     A
C630   C661    1.513   .     S
C630   N637    1.379   .     A
C630   C1136   1.434   .     S
C631   N637    1.379   .     A
C631   C665    1.511   .     S
C631   C1133   1.434   .     S
C632   C669    1.511   .     S
C632   N638    1.379   .     A
N637   Zn647   2.043   .     S
N638   Zn648   2.043   .     S
O639   Zn647   2.001   .     S
O640   Zn648   2.001   .     S
O641   Zn648   2.001   .     S
O642   Zn647   2.001   .     S
O643   Zn647   1.985   .     S
O644   Zn648   1.985   .     S
O645   Zn648   1.987   .     S
O646   Zn647   1.987   .     S
C649   H651    1.111   .     S
C649   H652    1.110   .     S
C649   C509    1.524   1_655 S
C649   H538    1.109   1_655 S
C653   H655    1.110   .     S
C653   H656    1.111   .     S
H654   C541    1.109   1_655 S
C657   H658    1.110   .     S
C657   H659    1.109   .     S
C657   H660    1.084   .     S
C661   H664    1.084   .     S
C661   H663    1.110   .     S
C661   H662    1.109   .     S
C665   H668    1.110   .     S
C665   H666    1.082   .     S
C665   H667    1.109   .     S
C669   H671    1.110   .     S
C669   H670    1.082   .     S
C669   H672    1.109   .     S
C673   O697    1.297   .     A
C673   C684    1.423   .     S
C673   O695    1.297   .     A
C674   C683    1.423   .     S
C674   O696    1.297   .     A
C674   O698    1.297   .     A
C675   O701    1.299   .     A
C675   O699    1.284   .     A
C675   C677    1.409   .     S
C676   O702    1.299   .     A
C676   C678    1.409   .     S
C676   O700    1.284   .     A
C677   C790    1.357   1_455 S
C677   C817    1.524   1_455 S
C678   C733    1.357   .     S
C678   C765    1.524   .     S
C679   C684    1.398   .     A
C679   H689    1.084   .     S
C680   C683    1.398   .     A
C680   H690    1.084   .     S
C680   C850    1.370   .     S
C681   C683    1.398   .     A
C681   H691    1.083   .     S
C681   C847    1.370   .     S
C682   C684    1.398   .     A
C682   H692    1.083   .     S
C685   C713    1.513   .     S
C685   N694    1.379   .     A
C686   C717    1.513   .     S
C686   N693    1.379   .     A
C686   C1192   1.434   .     S
C687   N693    1.379   .     A
C687   C721    1.511   .     S
C687   C1189   1.434   .     S
C688   C725    1.511   .     S
C688   N694    1.379   .     A
N693   Zn703   2.043   .     S
N694   Zn704   2.043   .     S
O695   Zn703   2.001   .     S
O696   Zn704   2.001   .     S
O697   Zn704   2.001   .     S
O698   Zn703   2.001   .     S
O699   Zn703   1.985   .     S
O700   Zn704   1.985   .     S
O701   Zn704   1.987   .     S
O702   Zn703   1.987   .     S
C705   H707    1.111   .     S
C705   H708    1.110   .     S
C705   C733    1.524   .     S
C705   H762    1.109   .     S
H706   C817    1.109   1_455 S
C709   H711    1.110   .     S
C709   H712    1.111   .     S
C709   C790    1.524   1_455 S
C709   H822    1.109   1_455 S
H710   C765    1.109   .     S
C713   H714    1.110   .     S
C713   H715    1.109   .     S
C713   H716    1.084   .     S
C717   H720    1.084   .     S
C717   H719    1.110   .     S
C717   H718    1.109   .     S
C721   H724    1.110   .     S
C721   H722    1.082   .     S
C721   H723    1.109   .     S
C725   H727    1.110   .     S
C725   H726    1.082   .     S
C725   H728    1.109   .     S
C729   O753    1.297   .     A
C729   C740    1.423   .     S
C729   O751    1.297   .     A
C730   C739    1.423   .     S
C730   O752    1.297   .     A
C730   O754    1.297   .     A
C731   O757    1.299   .     A
C731   O755    1.284   .     A
C731   C733    1.409   .     S
C732   O758    1.299   .     A
C732   C734    1.409   .     S
C732   O756    1.284   .     A
C734   C789    1.357   .     S
C734   C821    1.524   .     S
C735   C740    1.398   .     A
C735   H745    1.084   .     S
C736   C739    1.398   .     A
C736   H746    1.084   .     S
C736   C906    1.370   .     S
C737   C739    1.398   .     A
C737   H747    1.083   .     S
C737   C903    1.370   .     S
C738   C740    1.398   .     A
C738   H748    1.083   .     S
C741   C769    1.513   .     S
C741   N750    1.379   .     A
C742   C773    1.513   .     S
C742   N749    1.379   .     A
C742   C1248   1.434   .     S
C743   N749    1.379   .     A
C743   C777    1.511   .     S
C743   C1245   1.434   .     S
C744   C781    1.511   .     S
C744   N750    1.379   .     A
N749   Zn759   2.043   .     S
N750   Zn760   2.043   .     S
O751   Zn759   2.001   .     S
O752   Zn760   2.001   .     S
O753   Zn760   2.001   .     S
O754   Zn759   2.001   .     S
O755   Zn759   1.985   .     S
O756   Zn760   1.985   .     S
O757   Zn760   1.987   .     S
O758   Zn759   1.987   .     S
C761   H763    1.111   .     S
C761   H764    1.110   .     S
C761   C789    1.524   .     S
C761   H818    1.109   .     S
C765   H767    1.110   .     S
C765   H768    1.111   .     S
H766   C821    1.109   .     S
C769   H770    1.110   .     S
C769   H771    1.109   .     S
C769   H772    1.084   .     S
C773   H776    1.084   .     S
C773   H775    1.110   .     S
C773   H774    1.109   .     S
C777   H780    1.110   .     S
C777   H778    1.082   .     S
C777   H779    1.109   .     S
C781   H783    1.110   .     S
C781   H782    1.082   .     S
C781   H784    1.109   .     S
C785   O809    1.297   .     A
C785   C796    1.423   .     S
C785   O807    1.297   .     A
C786   C795    1.423   .     S
C786   O808    1.297   .     A
C786   O810    1.297   .     A
C787   O813    1.299   .     A
C787   O811    1.284   .     A
C787   C789    1.409   .     S
C788   O814    1.299   .     A
C788   C790    1.409   .     S
C788   O812    1.284   .     A
C790   C677    1.357   1_655 S
C790   C709    1.524   1_655 S
C791   C796    1.398   .     A
C791   H801    1.084   .     S
C792   C795    1.398   .     A
C792   H802    1.084   .     S
C792   C962    1.370   .     S
C793   C795    1.398   .     A
C793   H803    1.083   .     S
C793   C959    1.370   .     S
C794   C796    1.398   .     A
C794   H804    1.083   .     S
C797   C825    1.513   .     S
C797   N806    1.379   .     A
C798   C829    1.513   .     S
C798   N805    1.379   .     A
C798   C1304   1.434   .     S
C799   N805    1.379   .     A
C799   C833    1.511   .     S
C799   C1301   1.434   .     S
C800   C837    1.511   .     S
C800   N806    1.379   .     A
N805   Zn815   2.043   .     S
N806   Zn816   2.043   .     S
O807   Zn815   2.001   .     S
O808   Zn816   2.001   .     S
O809   Zn816   2.001   .     S
O810   Zn815   2.001   .     S
O811   Zn815   1.985   .     S
O812   Zn816   1.985   .     S
O813   Zn816   1.987   .     S
O814   Zn815   1.987   .     S
C817   H819    1.111   .     S
C817   H820    1.110   .     S
C817   C677    1.524   1_655 S
C817   H706    1.109   1_655 S
C821   H823    1.110   .     S
C821   H824    1.111   .     S
H822   C709    1.109   1_655 S
C825   H826    1.110   .     S
C825   H827    1.109   .     S
C825   H828    1.084   .     S
C829   H832    1.084   .     S
C829   H831    1.110   .     S
C829   H830    1.109   .     S
C833   H836    1.110   .     S
C833   H834    1.082   .     S
C833   H835    1.109   .     S
C837   H839    1.110   .     S
C837   H838    1.082   .     S
C837   H840    1.109   .     S
C841   O865    1.297   .     A
C841   C852    1.423   .     S
C841   O863    1.297   .     A
C842   C851    1.423   .     S
C842   O864    1.297   .     A
C842   O866    1.297   .     A
C843   O869    1.299   .     A
C843   O867    1.284   .     A
C843   C845    1.409   .     S
C844   O870    1.299   .     A
C844   C846    1.409   .     S
C844   O868    1.284   .     A
C845   C958    1.357   1_455 S
C845   C985    1.524   1_455 S
C846   C901    1.357   .     S
C846   C933    1.524   .     S
C847   C852    1.398   .     A
C847   H857    1.084   .     S
C848   C851    1.398   .     A
C848   H858    1.084   .     S
C848   C514    1.370   1_565 S
C849   C851    1.398   .     A
C849   H859    1.083   .     S
C849   C511    1.370   1_565 S
C850   C852    1.398   .     A
C850   H860    1.083   .     S
C853   C881    1.513   .     S
C853   N862    1.379   .     A
C854   C885    1.513   .     S
C854   N861    1.379   .     A
C854   C1360   1.434   .     S
C855   N861    1.379   .     A
C855   C889    1.511   .     S
C855   C1357   1.434   .     S
C856   C893    1.511   .     S
C856   N862    1.379   .     A
N861   Zn871   2.043   .     S
N862   Zn872   2.043   .     S
O863   Zn871   2.001   .     S
O864   Zn872   2.001   .     S
O865   Zn872   2.001   .     S
O866   Zn871   2.001   .     S
O867   Zn871   1.985   .     S
O868   Zn872   1.985   .     S
O869   Zn872   1.987   .     S
O870   Zn871   1.987   .     S
C873   H875    1.111   .     S
C873   H876    1.110   .     S
C873   C901    1.524   .     S
C873   H930    1.109   .     S
H874   C985    1.109   1_455 S
C877   H879    1.110   .     S
C877   H880    1.111   .     S
C877   C958    1.524   1_455 S
C877   H990    1.109   1_455 S
H878   C933    1.109   .     S
C881   H882    1.110   .     S
C881   H883    1.109   .     S
C881   H884    1.084   .     S
C885   H888    1.084   .     S
C885   H887    1.110   .     S
C885   H886    1.109   .     S
C889   H892    1.110   .     S
C889   H890    1.082   .     S
C889   H891    1.109   .     S
C893   H895    1.110   .     S
C893   H894    1.082   .     S
C893   H896    1.109   .     S
C897   O921    1.297   .     A
C897   C908    1.423   .     S
C897   O919    1.297   .     A
C898   C907    1.423   .     S
C898   O920    1.297   .     A
C898   O922    1.297   .     A
C899   O925    1.299   .     A
C899   O923    1.284   .     A
C899   C901    1.409   .     S
C900   O926    1.299   .     A
C900   C902    1.409   .     S
C900   O924    1.284   .     A
C902   C957    1.357   .     S
C902   C989    1.524   .     S
C903   C908    1.398   .     A
C903   H913    1.084   .     S
C904   C907    1.398   .     A
C904   H914    1.084   .     S
C904   C570    1.370   1_565 S
C905   C907    1.398   .     A
C905   H915    1.083   .     S
C905   C567    1.370   1_565 S
C906   C908    1.398   .     A
C906   H916    1.083   .     S
C909   C937    1.513   .     S
C909   N918    1.379   .     A
C910   C941    1.513   .     S
C910   N917    1.379   .     A
C910   C1416   1.434   .     S
C911   N917    1.379   .     A
C911   C945    1.511   .     S
C911   C1413   1.434   .     S
C912   C949    1.511   .     S
C912   N918    1.379   .     A
N917   Zn927   2.043   .     S
N918   Zn928   2.043   .     S
O919   Zn927   2.001   .     S
O920   Zn928   2.001   .     S
O921   Zn928   2.001   .     S
O922   Zn927   2.001   .     S
O923   Zn927   1.985   .     S
O924   Zn928   1.985   .     S
O925   Zn928   1.987   .     S
O926   Zn927   1.987   .     S
C929   H931    1.111   .     S
C929   H932    1.110   .     S
C929   C957    1.524   .     S
C929   H986    1.109   .     S
C933   H935    1.110   .     S
C933   H936    1.111   .     S
H934   C989    1.109   .     S
C937   H938    1.110   .     S
C937   H939    1.109   .     S
C937   H940    1.084   .     S
C941   H944    1.084   .     S
C941   H943    1.110   .     S
C941   H942    1.109   .     S
C945   H948    1.110   .     S
C945   H946    1.082   .     S
C945   H947    1.109   .     S
C949   H951    1.110   .     S
C949   H950    1.082   .     S
C949   H952    1.109   .     S
C953   O977    1.297   .     A
C953   C964    1.423   .     S
C953   O975    1.297   .     A
C954   C963    1.423   .     S
C954   O976    1.297   .     A
C954   O978    1.297   .     A
C955   O981    1.299   .     A
C955   O979    1.284   .     A
C955   C957    1.409   .     S
C956   O982    1.299   .     A
C956   C958    1.409   .     S
C956   O980    1.284   .     A
C958   C845    1.357   1_655 S
C958   C877    1.524   1_655 S
C959   C964    1.398   .     A
C959   H969    1.084   .     S
C960   C963    1.398   .     A
C960   H970    1.084   .     S
C960   C626    1.370   1_565 S
C961   C963    1.398   .     A
C961   H971    1.083   .     S
C961   C623    1.370   1_565 S
C962   C964    1.398   .     A
C962   H972    1.083   .     S
C965   C993    1.513   .     S
C965   N974    1.379   .     A
C966   C997    1.513   .     S
C966   N973    1.379   .     A
C966   C1472   1.434   .     S
C967   N973    1.379   .     A
C967   C1001   1.511   .     S
C967   C1469   1.434   .     S
C968   C1005   1.511   .     S
C968   N974    1.379   .     A
N973   Zn983   2.043   .     S
N974   Zn984   2.043   .     S
O975   Zn983   2.001   .     S
O976   Zn984   2.001   .     S
O977   Zn984   2.001   .     S
O978   Zn983   2.001   .     S
O979   Zn983   1.985   .     S
O980   Zn984   1.985   .     S
O981   Zn984   1.987   .     S
O982   Zn983   1.987   .     S
C985   H987    1.111   .     S
C985   H988    1.110   .     S
C985   C845    1.524   1_655 S
C985   H874    1.109   1_655 S
C989   H991    1.110   .     S
C989   H992    1.111   .     S
H990   C877    1.109   1_655 S
C993   H994    1.110   .     S
C993   H995    1.109   .     S
C993   H996    1.084   .     S
C997   H1000   1.084   .     S
C997   H999    1.110   .     S
C997   H998    1.109   .     S
C1001  H1004   1.110   .     S
C1001  H1002   1.082   .     S
C1001  H1003   1.109   .     S
C1005  H1007   1.110   .     S
C1005  H1006   1.082   .     S
C1005  H1008   1.109   .     S
C1009  O1033   1.297   .     A
C1009  C1020   1.423   .     S
C1009  O1031   1.297   .     A
C1010  C1019   1.423   .     S
C1010  O1032   1.297   .     A
C1010  O1034   1.297   .     A
C1011  O1037   1.299   .     A
C1011  O1035   1.284   .     A
C1011  C1013   1.409   .     S
C1012  O1038   1.299   .     A
C1012  C1014   1.409   .     S
C1012  O1036   1.284   .     A
C1013  C1126   1.357   1_455 S
C1013  C1153   1.524   1_455 S
C1014  C1069   1.357   .     S
C1014  C1101   1.524   .     S
C1015  C1020   1.398   .     A
C1015  H1025   1.084   .     S
C1015  C1353   1.370   1_545 S
C1016  C1019   1.398   .     A
C1016  H1026   1.084   .     S
C1016  C1186   1.370   .     S
C1017  C1019   1.398   .     A
C1017  H1027   1.083   .     S
C1017  C1183   1.370   .     S
C1018  C1020   1.398   .     A
C1018  H1028   1.083   .     S
C1018  C1352   1.370   1_545 S
C1021  C1049   1.513   .     S
C1021  N1030   1.379   .     A
C1022  C1053   1.513   .     S
C1022  N1029   1.379   .     A
C1022  C16     1.434   1_556 S
C1023  N1029   1.379   .     A
C1023  C1057   1.511   .     S
C1023  C13     1.434   1_556 S
C1024  C1061   1.511   .     S
C1024  N1030   1.379   .     A
N1029  Zn1039  2.043   .     S
N1030  Zn1040  2.043   .     S
O1031  Zn1039  2.001   .     S
O1032  Zn1040  2.001   .     S
O1033  Zn1040  2.001   .     S
O1034  Zn1039  2.001   .     S
O1035  Zn1039  1.985   .     S
O1036  Zn1040  1.985   .     S
O1037  Zn1040  1.987   .     S
O1038  Zn1039  1.987   .     S
C1041  H1043   1.111   .     S
C1041  H1044   1.110   .     S
C1041  C1069   1.524   .     S
C1041  H1098   1.109   .     S
H1042  C1153   1.109   1_455 S
C1045  H1047   1.110   .     S
C1045  H1048   1.111   .     S
C1045  C1126   1.524   1_455 S
C1045  H1158   1.109   1_455 S
H1046  C1101   1.109   .     S
C1049  H1050   1.110   .     S
C1049  H1051   1.109   .     S
C1049  H1052   1.084   .     S
C1053  H1056   1.084   .     S
C1053  H1055   1.110   .     S
C1053  H1054   1.109   .     S
C1057  H1060   1.110   .     S
C1057  H1058   1.082   .     S
C1057  H1059   1.109   .     S
C1061  H1063   1.110   .     S
C1061  H1062   1.082   .     S
C1061  H1064   1.109   .     S
C1065  O1089   1.297   .     A
C1065  C1076   1.423   .     S
C1065  O1087   1.297   .     A
C1066  C1075   1.423   .     S
C1066  O1088   1.297   .     A
C1066  O1090   1.297   .     A
C1067  O1093   1.299   .     A
C1067  O1091   1.284   .     A
C1067  C1069   1.409   .     S
C1068  O1094   1.299   .     A
C1068  C1070   1.409   .     S
C1068  O1092   1.284   .     A
C1070  C1125   1.357   .     S
C1070  C1157   1.524   .     S
C1071  C1076   1.398   .     A
C1071  H1081   1.084   .     S
C1071  C1409   1.370   1_545 S
C1072  C1075   1.398   .     A
C1072  H1082   1.084   .     S
C1072  C1242   1.370   .     S
C1073  C1075   1.398   .     A
C1073  H1083   1.083   .     S
C1073  C1239   1.370   .     S
C1074  C1076   1.398   .     A
C1074  H1084   1.083   .     S
C1074  C1408   1.370   1_545 S
C1077  C1105   1.513   .     S
C1077  N1086   1.379   .     A
C1078  C1109   1.513   .     S
C1078  N1085   1.379   .     A
C1078  C72     1.434   1_556 S
C1079  N1085   1.379   .     A
C1079  C1113   1.511   .     S
C1079  C69     1.434   1_556 S
C1080  C1117   1.511   .     S
C1080  N1086   1.379   .     A
N1085  Zn1095  2.043   .     S
N1086  Zn1096  2.043   .     S
O1087  Zn1095  2.001   .     S
O1088  Zn1096  2.001   .     S
O1089  Zn1096  2.001   .     S
O1090  Zn1095  2.001   .     S
O1091  Zn1095  1.985   .     S
O1092  Zn1096  1.985   .     S
O1093  Zn1096  1.987   .     S
O1094  Zn1095  1.987   .     S
C1097  H1099   1.111   .     S
C1097  H1100   1.110   .     S
C1097  C1125   1.524   .     S
C1097  H1154   1.109   .     S
C1101  H1103   1.110   .     S
C1101  H1104   1.111   .     S
H1102  C1157   1.109   .     S
C1105  H1106   1.110   .     S
C1105  H1107   1.109   .     S
C1105  H1108   1.084   .     S
C1109  H1112   1.084   .     S
C1109  H1111   1.110   .     S
C1109  H1110   1.109   .     S
C1113  H1116   1.110   .     S
C1113  H1114   1.082   .     S
C1113  H1115   1.109   .     S
C1117  H1119   1.110   .     S
C1117  H1118   1.082   .     S
C1117  H1120   1.109   .     S
C1121  O1145   1.297   .     A
C1121  C1132   1.423   .     S
C1121  O1143   1.297   .     A
C1122  C1131   1.423   .     S
C1122  O1144   1.297   .     A
C1122  O1146   1.297   .     A
C1123  O1149   1.299   .     A
C1123  O1147   1.284   .     A
C1123  C1125   1.409   .     S
C1124  O1150   1.299   .     A
C1124  C1126   1.409   .     S
C1124  O1148   1.284   .     A
C1126  C1013   1.357   1_655 S
C1126  C1045   1.524   1_655 S
C1127  C1132   1.398   .     A
C1127  H1137   1.084   .     S
C1127  C1465   1.370   1_545 S
C1128  C1131   1.398   .     A
C1128  H1138   1.084   .     S
C1128  C1298   1.370   .     S
C1129  C1131   1.398   .     A
C1129  H1139   1.083   .     S
C1129  C1295   1.370   .     S
C1130  C1132   1.398   .     A
C1130  H1140   1.083   .     S
C1130  C1464   1.370   1_545 S
C1133  C1161   1.513   .     S
C1133  N1142   1.379   .     A
C1134  C1165   1.513   .     S
C1134  N1141   1.379   .     A
C1134  C128    1.434   1_556 S
C1135  N1141   1.379   .     A
C1135  C1169   1.511   .     S
C1135  C125    1.434   1_556 S
C1136  C1173   1.511   .     S
C1136  N1142   1.379   .     A
N1141  Zn1151  2.043   .     S
N1142  Zn1152  2.043   .     S
O1143  Zn1151  2.001   .     S
O1144  Zn1152  2.001   .     S
O1145  Zn1152  2.001   .     S
O1146  Zn1151  2.001   .     S
O1147  Zn1151  1.985   .     S
O1148  Zn1152  1.985   .     S
O1149  Zn1152  1.987   .     S
O1150  Zn1151  1.987   .     S
C1153  H1155   1.111   .     S
C1153  H1156   1.110   .     S
C1153  C1013   1.524   1_655 S
C1153  H1042   1.109   1_655 S
C1157  H1159   1.110   .     S
C1157  H1160   1.111   .     S
H1158  C1045   1.109   1_655 S
C1161  H1162   1.110   .     S
C1161  H1163   1.109   .     S
C1161  H1164   1.084   .     S
C1165  H1168   1.084   .     S
C1165  H1167   1.110   .     S
C1165  H1166   1.109   .     S
C1169  H1172   1.110   .     S
C1169  H1170   1.082   .     S
C1169  H1171   1.109   .     S
C1173  H1175   1.110   .     S
C1173  H1174   1.082   .     S
C1173  H1176   1.109   .     S
C1177  O1201   1.297   .     A
C1177  C1188   1.423   .     S
C1177  O1199   1.297   .     A
C1178  C1187   1.423   .     S
C1178  O1200   1.297   .     A
C1178  O1202   1.297   .     A
C1179  O1205   1.299   .     A
C1179  O1203   1.284   .     A
C1179  C1181   1.409   .     S
C1180  O1206   1.299   .     A
C1180  C1182   1.409   .     S
C1180  O1204   1.284   .     A
C1181  C1294   1.357   1_455 S
C1181  C1321   1.524   1_455 S
C1182  C1237   1.357   .     S
C1182  C1269   1.524   .     S
C1183  C1188   1.398   .     A
C1183  H1193   1.084   .     S
C1184  C1187   1.398   .     A
C1184  H1194   1.084   .     S
C1184  C1354   1.370   .     S
C1185  C1187   1.398   .     A
C1185  H1195   1.083   .     S
C1185  C1351   1.370   .     S
C1186  C1188   1.398   .     A
C1186  H1196   1.083   .     S
C1189  C1217   1.513   .     S
C1189  N1198   1.379   .     A
C1190  C1221   1.513   .     S
C1190  N1197   1.379   .     A
C1190  C184    1.434   1_556 S
C1191  N1197   1.379   .     A
C1191  C1225   1.511   .     S
C1191  C181    1.434   1_556 S
C1192  C1229   1.511   .     S
C1192  N1198   1.379   .     A
N1197  Zn1207  2.043   .     S
N1198  Zn1208  2.043   .     S
O1199  Zn1207  2.001   .     S
O1200  Zn1208  2.001   .     S
O1201  Zn1208  2.001   .     S
O1202  Zn1207  2.001   .     S
O1203  Zn1207  1.985   .     S
O1204  Zn1208  1.985   .     S
O1205  Zn1208  1.987   .     S
O1206  Zn1207  1.987   .     S
C1209  H1211   1.111   .     S
C1209  H1212   1.110   .     S
C1209  C1237   1.524   .     S
C1209  H1266   1.109   .     S
H1210  C1321   1.109   1_455 S
C1213  H1215   1.110   .     S
C1213  H1216   1.111   .     S
C1213  C1294   1.524   1_455 S
C1213  H1326   1.109   1_455 S
H1214  C1269   1.109   .     S
C1217  H1218   1.110   .     S
C1217  H1219   1.109   .     S
C1217  H1220   1.084   .     S
C1221  H1224   1.084   .     S
C1221  H1223   1.110   .     S
C1221  H1222   1.109   .     S
C1225  H1228   1.110   .     S
C1225  H1226   1.082   .     S
C1225  H1227   1.109   .     S
C1229  H1231   1.110   .     S
C1229  H1230   1.082   .     S
C1229  H1232   1.109   .     S
C1233  O1257   1.297   .     A
C1233  C1244   1.423   .     S
C1233  O1255   1.297   .     A
C1234  C1243   1.423   .     S
C1234  O1256   1.297   .     A
C1234  O1258   1.297   .     A
C1235  O1261   1.299   .     A
C1235  O1259   1.284   .     A
C1235  C1237   1.409   .     S
C1236  O1262   1.299   .     A
C1236  C1238   1.409   .     S
C1236  O1260   1.284   .     A
C1238  C1293   1.357   .     S
C1238  C1325   1.524   .     S
C1239  C1244   1.398   .     A
C1239  H1249   1.084   .     S
C1240  C1243   1.398   .     A
C1240  H1250   1.084   .     S
C1240  C1410   1.370   .     S
C1241  C1243   1.398   .     A
C1241  H1251   1.083   .     S
C1241  C1407   1.370   .     S
C1242  C1244   1.398   .     A
C1242  H1252   1.083   .     S
C1245  C1273   1.513   .     S
C1245  N1254   1.379   .     A
C1246  C1277   1.513   .     S
C1246  N1253   1.379   .     A
C1246  C240    1.434   1_556 S
C1247  N1253   1.379   .     A
C1247  C1281   1.511   .     S
C1247  C237    1.434   1_556 S
C1248  C1285   1.511   .     S
C1248  N1254   1.379   .     A
N1253  Zn1263  2.043   .     S
N1254  Zn1264  2.043   .     S
O1255  Zn1263  2.001   .     S
O1256  Zn1264  2.001   .     S
O1257  Zn1264  2.001   .     S
O1258  Zn1263  2.001   .     S
O1259  Zn1263  1.985   .     S
O1260  Zn1264  1.985   .     S
O1261  Zn1264  1.987   .     S
O1262  Zn1263  1.987   .     S
C1265  H1267   1.111   .     S
C1265  H1268   1.110   .     S
C1265  C1293   1.524   .     S
C1265  H1322   1.109   .     S
C1269  H1271   1.110   .     S
C1269  H1272   1.111   .     S
H1270  C1325   1.109   .     S
C1273  H1274   1.110   .     S
C1273  H1275   1.109   .     S
C1273  H1276   1.084   .     S
C1277  H1280   1.084   .     S
C1277  H1279   1.110   .     S
C1277  H1278   1.109   .     S
C1281  H1284   1.110   .     S
C1281  H1282   1.082   .     S
C1281  H1283   1.109   .     S
C1285  H1287   1.110   .     S
C1285  H1286   1.082   .     S
C1285  H1288   1.109   .     S
C1289  O1313   1.297   .     A
C1289  C1300   1.423   .     S
C1289  O1311   1.297   .     A
C1290  C1299   1.423   .     S
C1290  O1312   1.297   .     A
C1290  O1314   1.297   .     A
C1291  O1317   1.299   .     A
C1291  O1315   1.284   .     A
C1291  C1293   1.409   .     S
C1292  O1318   1.299   .     A
C1292  C1294   1.409   .     S
C1292  O1316   1.284   .     A
C1294  C1181   1.357   1_655 S
C1294  C1213   1.524   1_655 S
C1295  C1300   1.398   .     A
C1295  H1305   1.084   .     S
C1296  C1299   1.398   .     A
C1296  H1306   1.084   .     S
C1296  C1466   1.370   .     S
C1297  C1299   1.398   .     A
C1297  H1307   1.083   .     S
C1297  C1463   1.370   .     S
C1298  C1300   1.398   .     A
C1298  H1308   1.083   .     S
C1301  C1329   1.513   .     S
C1301  N1310   1.379   .     A
C1302  C1333   1.513   .     S
C1302  N1309   1.379   .     A
C1302  C296    1.434   1_556 S
C1303  N1309   1.379   .     A
C1303  C1337   1.511   .     S
C1303  C293    1.434   1_556 S
C1304  C1341   1.511   .     S
C1304  N1310   1.379   .     A
N1309  Zn1319  2.043   .     S
N1310  Zn1320  2.043   .     S
O1311  Zn1319  2.001   .     S
O1312  Zn1320  2.001   .     S
O1313  Zn1320  2.001   .     S
O1314  Zn1319  2.001   .     S
O1315  Zn1319  1.985   .     S
O1316  Zn1320  1.985   .     S
O1317  Zn1320  1.987   .     S
O1318  Zn1319  1.987   .     S
C1321  H1323   1.111   .     S
C1321  H1324   1.110   .     S
C1321  C1181   1.524   1_655 S
C1321  H1210   1.109   1_655 S
C1325  H1327   1.110   .     S
C1325  H1328   1.111   .     S
H1326  C1213   1.109   1_655 S
C1329  H1330   1.110   .     S
C1329  H1331   1.109   .     S
C1329  H1332   1.084   .     S
C1333  H1336   1.084   .     S
C1333  H1335   1.110   .     S
C1333  H1334   1.109   .     S
C1337  H1340   1.110   .     S
C1337  H1338   1.082   .     S
C1337  H1339   1.109   .     S
C1341  H1343   1.110   .     S
C1341  H1342   1.082   .     S
C1341  H1344   1.109   .     S
C1345  O1369   1.297   .     A
C1345  C1356   1.423   .     S
C1345  O1367   1.297   .     A
C1346  C1355   1.423   .     S
C1346  O1368   1.297   .     A
C1346  O1370   1.297   .     A
C1347  O1373   1.299   .     A
C1347  O1371   1.284   .     A
C1347  C1349   1.409   .     S
C1348  O1374   1.299   .     A
C1348  C1350   1.409   .     S
C1348  O1372   1.284   .     A
C1349  C1462   1.357   1_455 S
C1349  C1489   1.524   1_455 S
C1350  C1405   1.357   .     S
C1350  C1437   1.524   .     S
C1351  C1356   1.398   .     A
C1351  H1361   1.084   .     S
C1352  C1355   1.398   .     A
C1352  H1362   1.084   .     S
C1352  C1018   1.370   1_565 S
C1353  C1355   1.398   .     A
C1353  H1363   1.083   .     S
C1353  C1015   1.370   1_565 S
C1354  C1356   1.398   .     A
C1354  H1364   1.083   .     S
C1357  C1385   1.513   .     S
C1357  N1366   1.379   .     A
C1358  C1389   1.513   .     S
C1358  N1365   1.379   .     A
C1358  C352    1.434   1_556 S
C1359  N1365   1.379   .     A
C1359  C1393   1.511   .     S
C1359  C349    1.434   1_556 S
C1360  C1397   1.511   .     S
C1360  N1366   1.379   .     A
N1365  Zn1375  2.043   .     S
N1366  Zn1376  2.043   .     S
O1367  Zn1375  2.001   .     S
O1368  Zn1376  2.001   .     S
O1369  Zn1376  2.001   .     S
O1370  Zn1375  2.001   .     S
O1371  Zn1375  1.985   .     S
O1372  Zn1376  1.985   .     S
O1373  Zn1376  1.987   .     S
O1374  Zn1375  1.987   .     S
C1377  H1379   1.111   .     S
C1377  H1380   1.110   .     S
C1377  C1405   1.524   .     S
C1377  H1434   1.109   .     S
H1378  C1489   1.109   1_455 S
C1381  H1383   1.110   .     S
C1381  H1384   1.111   .     S
C1381  C1462   1.524   1_455 S
C1381  H1494   1.109   1_455 S
H1382  C1437   1.109   .     S
C1385  H1386   1.110   .     S
C1385  H1387   1.109   .     S
C1385  H1388   1.084   .     S
C1389  H1392   1.084   .     S
C1389  H1391   1.110   .     S
C1389  H1390   1.109   .     S
C1393  H1396   1.110   .     S
C1393  H1394   1.082   .     S
C1393  H1395   1.109   .     S
C1397  H1399   1.110   .     S
C1397  H1398   1.082   .     S
C1397  H1400   1.109   .     S
C1401  O1425   1.297   .     A
C1401  C1412   1.423   .     S
C1401  O1423   1.297   .     A
C1402  C1411   1.423   .     S
C1402  O1424   1.297   .     A
C1402  O1426   1.297   .     A
C1403  O1429   1.299   .     A
C1403  O1427   1.284   .     A
C1403  C1405   1.409   .     S
C1404  O1430   1.299   .     A
C1404  C1406   1.409   .     S
C1404  O1428   1.284   .     A
C1406  C1461   1.357   .     S
C1406  C1493   1.524   .     S
C1407  C1412   1.398   .     A
C1407  H1417   1.084   .     S
C1408  C1411   1.398   .     A
C1408  H1418   1.084   .     S
C1408  C1074   1.370   1_565 S
C1409  C1411   1.398   .     A
C1409  H1419   1.083   .     S
C1409  C1071   1.370   1_565 S
C1410  C1412   1.398   .     A
C1410  H1420   1.083   .     S
C1413  C1441   1.513   .     S
C1413  N1422   1.379   .     A
C1414  C1445   1.513   .     S
C1414  N1421   1.379   .     A
C1414  C408    1.434   1_556 S
C1415  N1421   1.379   .     A
C1415  C1449   1.511   .     S
C1415  C405    1.434   1_556 S
C1416  C1453   1.511   .     S
C1416  N1422   1.379   .     A
N1421  Zn1431  2.043   .     S
N1422  Zn1432  2.043   .     S
O1423  Zn1431  2.001   .     S
O1424  Zn1432  2.001   .     S
O1425  Zn1432  2.001   .     S
O1426  Zn1431  2.001   .     S
O1427  Zn1431  1.985   .     S
O1428  Zn1432  1.985   .     S
O1429  Zn1432  1.987   .     S
O1430  Zn1431  1.987   .     S
C1433  H1435   1.111   .     S
C1433  H1436   1.110   .     S
C1433  C1461   1.524   .     S
C1433  H1490   1.109   .     S
C1437  H1439   1.110   .     S
C1437  H1440   1.111   .     S
H1438  C1493   1.109   .     S
C1441  H1442   1.110   .     S
C1441  H1443   1.109   .     S
C1441  H1444   1.084   .     S
C1445  H1448   1.084   .     S
C1445  H1447   1.110   .     S
C1445  H1446   1.109   .     S
C1449  H1452   1.110   .     S
C1449  H1450   1.082   .     S
C1449  H1451   1.109   .     S
C1453  H1455   1.110   .     S
C1453  H1454   1.082   .     S
C1453  H1456   1.109   .     S
C1457  O1481   1.297   .     A
C1457  C1468   1.423   .     S
C1457  O1479   1.297   .     A
C1458  C1467   1.423   .     S
C1458  O1480   1.297   .     A
C1458  O1482   1.297   .     A
C1459  O1485   1.299   .     A
C1459  O1483   1.284   .     A
C1459  C1461   1.409   .     S
C1460  O1486   1.299   .     A
C1460  C1462   1.409   .     S
C1460  O1484   1.284   .     A
C1462  C1349   1.357   1_655 S
C1462  C1381   1.524   1_655 S
C1463  C1468   1.398   .     A
C1463  H1473   1.084   .     S
C1464  C1467   1.398   .     A
C1464  H1474   1.084   .     S
C1464  C1130   1.370   1_565 S
C1465  C1467   1.398   .     A
C1465  H1475   1.083   .     S
C1465  C1127   1.370   1_565 S
C1466  C1468   1.398   .     A
C1466  H1476   1.083   .     S
C1469  C1497   1.513   .     S
C1469  N1478   1.379   .     A
C1470  C1501   1.513   .     S
C1470  N1477   1.379   .     A
C1470  C464    1.434   1_556 S
C1471  N1477   1.379   .     A
C1471  C1505   1.511   .     S
C1471  C461    1.434   1_556 S
C1472  C1509   1.511   .     S
C1472  N1478   1.379   .     A
N1477  Zn1487  2.043   .     S
N1478  Zn1488  2.043   .     S
O1479  Zn1487  2.001   .     S
O1480  Zn1488  2.001   .     S
O1481  Zn1488  2.001   .     S
O1482  Zn1487  2.001   .     S
O1483  Zn1487  1.985   .     S
O1484  Zn1488  1.985   .     S
O1485  Zn1488  1.987   .     S
O1486  Zn1487  1.987   .     S
C1489  H1491   1.111   .     S
C1489  H1492   1.110   .     S
C1489  C1349   1.524   1_655 S
C1489  H1378   1.109   1_655 S
C1493  H1495   1.110   .     S
C1493  H1496   1.111   .     S
H1494  C1381   1.109   1_655 S
C1497  H1498   1.110   .     S
C1497  H1499   1.109   .     S
C1497  H1500   1.084   .     S
C1501  H1504   1.084   .     S
C1501  H1503   1.110   .     S
C1501  H1502   1.109   .     S
C1505  H1508   1.110   .     S
C1505  H1506   1.082   .     S
C1505  H1507   1.109   .     S
C1509  H1511   1.110   .     S
C1509  H1510   1.082   .     S
C1509  H1512   1.109   .     S
