data_str_m3_o1_o18_pcu_sym.191
_audit_creation_date              2020-01-03
_audit_creation_method            'Materials Studio'
_symmetry_space_group_name_H-M    'P1'
_symmetry_Int_Tables_number       1
_symmetry_cell_setting            triclinic
loop_
_symmetry_equiv_pos_as_xyz
  x,y,z
_cell_length_a                    29.8047
_cell_length_b                    31.9805
_cell_length_c                    31.2710
_cell_angle_alpha                 91.0227
_cell_angle_beta                  65.9172
_cell_angle_gamma                 89.1211
loop_
_atom_site_label
_atom_site_type_symbol
_atom_site_fract_x
_atom_site_fract_y
_atom_site_fract_z
_atom_site_U_iso_or_equiv
_atom_site_adp_type
_atom_site_occupancy
O1     O     0.12846   0.22775   0.25001   0.00000  Uiso   1.00
O2     O     0.20488   0.10558   0.25000   0.00000  Uiso   1.00
O3     O     0.20490   0.22774   0.25000   0.00000  Uiso   1.00
O4     O     0.12843   0.10559   0.25000   0.00000  Uiso   1.00
C5     C     0.16627   0.24649   0.25061   0.00000  Uiso   1.00
C6     C     0.16700   0.08694   0.24975   0.00000  Uiso   1.00
O7     O     0.10661   0.16667   0.31613   0.00000  Uiso   1.00
O8     O     0.22672   0.16666   0.18388   0.00000  Uiso   1.00
O9     O     0.18305   0.16666   0.31612   0.00000  Uiso   1.00
O10    O     0.15028   0.16667   0.18388   0.00000  Uiso   1.00
C11    C     0.13558   0.16369   0.33807   0.00000  Uiso   1.00
C12    C     0.19775   0.16891   0.16175   0.00000  Uiso   1.00
Zn13   Zn    0.11562   0.16667   0.25000   0.00000  Uiso   1.00
Zn14   Zn    0.21771   0.16666   0.25000   0.00000  Uiso   1.00
C15    C     0.11549   0.15947   0.38955   0.00000  Uiso   1.00
C16    C     0.21767   0.17169   0.11001   0.00000  Uiso   1.00
C17    C     0.06005   0.19161   0.46264   0.00000  Uiso   1.00
C18    C     0.27471   0.14005   0.03703   0.00000  Uiso   1.00
C19    C     0.06775   0.17436   0.41882   0.00000  Uiso   1.00
C20    C     0.26592   0.15752   0.08109   0.00000  Uiso   1.00
C21    C     0.14849   0.14831   0.40992   0.00000  Uiso   1.00
C22    C     0.18469   0.18152   0.08905   0.00000  Uiso   1.00
C23    C     0.13853   0.16259   0.45619   0.00000  Uiso   1.00
C24    C     0.19660   0.16838   0.04210   0.00000  Uiso   1.00
C25    C     0.09787   0.19078   0.47844   0.00000  Uiso   1.00
C26    C     0.23787   0.14100   0.01991   0.00000  Uiso   1.00
C27    C     0.16961   0.15301   0.47949   0.00000  Uiso   1.00
C28    C     0.16633   0.17825   0.01819   0.00000  Uiso   1.00
C29    C     0.13394   0.21329   0.03106   0.00000  Uiso   1.00
C30    C     0.20270   0.11836   0.46647   0.00000  Uiso   1.00
C31    C     0.09711   0.21788   0.01483   0.00000  Uiso   1.00
C32    C     0.23995   0.11450   0.48257   0.00000  Uiso   1.00
H33    H     0.02458   0.20580   0.48407   0.00000  Uiso   1.00
H34    H     0.31043   0.12595   0.01631   0.00000  Uiso   1.00
H35    H     0.13707   0.23772   0.05392   0.00000  Uiso   1.00
H36    H     0.19970   0.09360   0.44399   0.00000  Uiso   1.00
C37    C     0.19838   0.31059   0.20996   0.00000  Uiso   1.00
C38    C     0.13832   0.02324   0.29243   0.00000  Uiso   1.00
C39    C     0.19713   0.02063   0.20923   0.00000  Uiso   1.00
C40    C     0.13730   0.31303   0.29214   0.00000  Uiso   1.00
C41    C     0.16699   0.04282   0.25038   0.00000  Uiso   1.00
C42    C     0.16661   0.29078   0.25064   0.00000  Uiso   1.00
C43    C     0.31890   0.13422   0.22960   0.00000  Uiso   1.00
C44    C     0.01440   0.19908   0.27045   0.00000  Uiso   1.00
C45    C     0.03305   0.13392   0.23024   0.00000  Uiso   1.00
C46    C     0.30015   0.19928   0.27002   0.00000  Uiso   1.00
N47    N     0.04759   0.16668   0.25001   0.00000  Uiso   1.00
N48    N     0.28574   0.16666   0.24999   0.00000  Uiso   1.00
C49    C     0.06185   0.25380   0.03442   0.00000  Uiso   1.00
H50    H     0.05453   0.26620   0.06925   0.00000  Uiso   1.00
O51    O     0.04270   0.27130   0.01151   0.00000  Uiso   1.00
C52    C     0.27726   0.07990   0.46305   0.00000  Uiso   1.00
H53    H     0.29939   0.06959   0.48123   0.00000  Uiso   1.00
O54    O     0.28349   0.06202   0.42614   0.00000  Uiso   1.00
N55    N     0.13650   0.19891   0.11746   0.00000  Uiso   1.00
O56    O     0.13164   0.23457   0.13980   0.00000  Uiso   1.00
O57    O     0.09738   0.17828   0.12258   0.00000  Uiso   1.00
N58    N     0.19483   0.12816   0.38103   0.00000  Uiso   1.00
O59    O     0.23584   0.14705   0.37272   0.00000  Uiso   1.00
O60    O     0.19580   0.09315   0.35876   0.00000  Uiso   1.00
N61    N     0.30569   0.16015   0.09577   0.00000  Uiso   1.00
O62    O     0.30955   0.19342   0.11849   0.00000  Uiso   1.00
O63    O     0.00982   0.13414   0.07826   0.00000  Uiso   1.00
N64    N     0.02757   0.17294   0.40462   0.00000  Uiso   1.00
O65    O     0.32386   0.19928   0.42295   0.00000  Uiso   1.00
O66    O     0.02311   0.14056   0.38099   0.00000  Uiso   1.00
C67    C     0.23177   0.28626   0.16787   0.00000  Uiso   1.00
H68    H     0.27104   0.29119   0.15341   0.00000  Uiso   1.00
O69    O     0.21550   0.26098   0.14867   0.00000  Uiso   1.00
C70    C     0.11146   0.04852   0.33646   0.00000  Uiso   1.00
H71    H     0.09712   0.07958   0.33513   0.00000  Uiso   1.00
O72    O     0.10670   0.03559   0.37455   0.00000  Uiso   1.00
N73    N     0.22318   0.04214   0.16621   0.00000  Uiso   1.00
O74    O     0.26936   0.03357   0.14054   0.00000  Uiso   1.00
O75    O     0.19988   0.06878   0.15117   0.00000  Uiso   1.00
N76    N     0.10715   0.29138   0.33366   0.00000  Uiso   1.00
O77    O     0.06097   0.30204   0.35642   0.00000  Uiso   1.00
O78    O     0.12652   0.26291   0.35057   0.00000  Uiso   1.00
C79    C     0.30696   0.09978   0.20465   0.00000  Uiso   1.00
H80    H     0.31330   0.06753   0.21129   0.00000  Uiso   1.00
O81    O     0.29250   0.10715   0.17435   0.00000  Uiso   1.00
C82    C     0.02627   0.23335   0.29559   0.00000  Uiso   1.00
H83    H     0.02027   0.26565   0.28885   0.00000  Uiso   1.00
O84    O     0.04024   0.22577   0.32617   0.00000  Uiso   1.00
N85    N     0.06604   0.09918   0.20937   0.00000  Uiso   1.00
O86    O     0.05760   0.06338   0.23001   0.00000  Uiso   1.00
O87    O     0.09777   0.10071   0.16607   0.00000  Uiso   1.00
N88    N     0.26669   0.23353   0.29191   0.00000  Uiso   1.00
O89    O     0.27452   0.26981   0.27232   0.00000  Uiso   1.00
O90    O     0.23518   0.23097   0.33520   0.00000  Uiso   1.00
O91    O     0.46179   0.22775   0.25001   0.00000  Uiso   1.00
O92    O     0.53821   0.10558   0.25000   0.00000  Uiso   1.00
O93    O     0.53823   0.22774   0.25000   0.00000  Uiso   1.00
O94    O     0.46177   0.10559   0.25000   0.00000  Uiso   1.00
C95    C     0.49961   0.24649   0.25061   0.00000  Uiso   1.00
C96    C     0.50034   0.08694   0.24975   0.00000  Uiso   1.00
O97    O     0.43994   0.16667   0.31613   0.00000  Uiso   1.00
O98    O     0.56006   0.16666   0.18388   0.00000  Uiso   1.00
O99    O     0.51639   0.16666   0.31612   0.00000  Uiso   1.00
O100   O     0.48361   0.16667   0.18388   0.00000  Uiso   1.00
C101   C     0.46892   0.16369   0.33807   0.00000  Uiso   1.00
C102   C     0.53108   0.16891   0.16175   0.00000  Uiso   1.00
Zn103  Zn    0.44896   0.16667   0.25000   0.00000  Uiso   1.00
Zn104  Zn    0.55104   0.16666   0.25000   0.00000  Uiso   1.00
C105   C     0.44883   0.15947   0.38955   0.00000  Uiso   1.00
C106   C     0.55100   0.17169   0.11001   0.00000  Uiso   1.00
C107   C     0.39338   0.19161   0.46264   0.00000  Uiso   1.00
C108   C     0.60805   0.14005   0.03703   0.00000  Uiso   1.00
C109   C     0.40108   0.17436   0.41882   0.00000  Uiso   1.00
C110   C     0.59925   0.15752   0.08109   0.00000  Uiso   1.00
C111   C     0.48182   0.14831   0.40992   0.00000  Uiso   1.00
C112   C     0.51803   0.18152   0.08905   0.00000  Uiso   1.00
C113   C     0.47186   0.16259   0.45619   0.00000  Uiso   1.00
C114   C     0.52993   0.16838   0.04210   0.00000  Uiso   1.00
C115   C     0.43120   0.19078   0.47844   0.00000  Uiso   1.00
C116   C     0.57120   0.14100   0.01991   0.00000  Uiso   1.00
C117   C     0.50295   0.15301   0.47949   0.00000  Uiso   1.00
C118   C     0.49966   0.17825   0.01819   0.00000  Uiso   1.00
C119   C     0.46728   0.21329   0.03106   0.00000  Uiso   1.00
C120   C     0.53603   0.11836   0.46647   0.00000  Uiso   1.00
C121   C     0.43044   0.21788   0.01483   0.00000  Uiso   1.00
C122   C     0.57328   0.11450   0.48257   0.00000  Uiso   1.00
H123   H     0.35792   0.20580   0.48407   0.00000  Uiso   1.00
H124   H     0.64376   0.12595   0.01631   0.00000  Uiso   1.00
H125   H     0.47040   0.23772   0.05392   0.00000  Uiso   1.00
H126   H     0.53303   0.09360   0.44399   0.00000  Uiso   1.00
C127   C     0.53172   0.31059   0.20996   0.00000  Uiso   1.00
C128   C     0.47166   0.02324   0.29243   0.00000  Uiso   1.00
C129   C     0.53046   0.02063   0.20923   0.00000  Uiso   1.00
C130   C     0.47063   0.31303   0.29214   0.00000  Uiso   1.00
C131   C     0.50033   0.04282   0.25038   0.00000  Uiso   1.00
C132   C     0.49995   0.29078   0.25064   0.00000  Uiso   1.00
C133   C     0.65223   0.13422   0.22960   0.00000  Uiso   1.00
C134   C     0.34773   0.19908   0.27045   0.00000  Uiso   1.00
C135   C     0.36638   0.13392   0.23024   0.00000  Uiso   1.00
C136   C     0.63348   0.19928   0.27002   0.00000  Uiso   1.00
N137   N     0.38093   0.16668   0.25001   0.00000  Uiso   1.00
N138   N     0.61907   0.16666   0.24999   0.00000  Uiso   1.00
C139   C     0.39519   0.25380   0.03442   0.00000  Uiso   1.00
H140   H     0.38786   0.26620   0.06925   0.00000  Uiso   1.00
O141   O     0.37604   0.27130   0.01151   0.00000  Uiso   1.00
C142   C     0.61059   0.07990   0.46305   0.00000  Uiso   1.00
H143   H     0.63272   0.06959   0.48123   0.00000  Uiso   1.00
O144   O     0.61682   0.06202   0.42614   0.00000  Uiso   1.00
N145   N     0.46983   0.19891   0.11746   0.00000  Uiso   1.00
O146   O     0.46497   0.23457   0.13980   0.00000  Uiso   1.00
O147   O     0.43071   0.17828   0.12258   0.00000  Uiso   1.00
N148   N     0.52816   0.12816   0.38103   0.00000  Uiso   1.00
O149   O     0.56918   0.14705   0.37272   0.00000  Uiso   1.00
O150   O     0.52914   0.09315   0.35876   0.00000  Uiso   1.00
N151   N     0.63902   0.16015   0.09577   0.00000  Uiso   1.00
O152   O     0.64289   0.19342   0.11849   0.00000  Uiso   1.00
O153   O     0.34316   0.13414   0.07826   0.00000  Uiso   1.00
N154   N     0.36090   0.17294   0.40462   0.00000  Uiso   1.00
O155   O     0.65719   0.19928   0.42295   0.00000  Uiso   1.00
O156   O     0.35644   0.14056   0.38099   0.00000  Uiso   1.00
C157   C     0.56511   0.28626   0.16787   0.00000  Uiso   1.00
H158   H     0.60437   0.29119   0.15341   0.00000  Uiso   1.00
O159   O     0.54884   0.26098   0.14867   0.00000  Uiso   1.00
C160   C     0.44479   0.04852   0.33646   0.00000  Uiso   1.00
H161   H     0.43046   0.07958   0.33513   0.00000  Uiso   1.00
O162   O     0.44003   0.03559   0.37455   0.00000  Uiso   1.00
N163   N     0.55651   0.04214   0.16621   0.00000  Uiso   1.00
O164   O     0.60269   0.03357   0.14054   0.00000  Uiso   1.00
O165   O     0.53322   0.06878   0.15117   0.00000  Uiso   1.00
N166   N     0.44048   0.29138   0.33366   0.00000  Uiso   1.00
O167   O     0.39431   0.30204   0.35642   0.00000  Uiso   1.00
O168   O     0.45985   0.26291   0.35057   0.00000  Uiso   1.00
C169   C     0.64029   0.09978   0.20465   0.00000  Uiso   1.00
H170   H     0.64663   0.06753   0.21129   0.00000  Uiso   1.00
O171   O     0.62584   0.10715   0.17435   0.00000  Uiso   1.00
C172   C     0.35960   0.23335   0.29559   0.00000  Uiso   1.00
H173   H     0.35361   0.26565   0.28885   0.00000  Uiso   1.00
O174   O     0.37357   0.22577   0.32617   0.00000  Uiso   1.00
N175   N     0.39937   0.09918   0.20937   0.00000  Uiso   1.00
O176   O     0.39093   0.06338   0.23001   0.00000  Uiso   1.00
O177   O     0.43110   0.10071   0.16607   0.00000  Uiso   1.00
N178   N     0.60002   0.23353   0.29191   0.00000  Uiso   1.00
O179   O     0.60785   0.26981   0.27232   0.00000  Uiso   1.00
O180   O     0.56851   0.23097   0.33520   0.00000  Uiso   1.00
O181   O     0.79512   0.22775   0.25001   0.00000  Uiso   1.00
O182   O     0.87154   0.10558   0.25000   0.00000  Uiso   1.00
O183   O     0.87157   0.22774   0.25000   0.00000  Uiso   1.00
O184   O     0.79510   0.10559   0.25000   0.00000  Uiso   1.00
C185   C     0.83294   0.24649   0.25061   0.00000  Uiso   1.00
C186   C     0.83367   0.08694   0.24975   0.00000  Uiso   1.00
O187   O     0.77328   0.16667   0.31613   0.00000  Uiso   1.00
O188   O     0.89339   0.16666   0.18388   0.00000  Uiso   1.00
O189   O     0.84972   0.16666   0.31612   0.00000  Uiso   1.00
O190   O     0.81695   0.16667   0.18388   0.00000  Uiso   1.00
C191   C     0.80225   0.16369   0.33807   0.00000  Uiso   1.00
C192   C     0.86441   0.16891   0.16175   0.00000  Uiso   1.00
Zn193  Zn    0.78229   0.16667   0.25000   0.00000  Uiso   1.00
Zn194  Zn    0.88438   0.16666   0.25000   0.00000  Uiso   1.00
C195   C     0.78216   0.15947   0.38955   0.00000  Uiso   1.00
C196   C     0.88433   0.17169   0.11001   0.00000  Uiso   1.00
C197   C     0.72671   0.19161   0.46264   0.00000  Uiso   1.00
C198   C     0.94138   0.14005   0.03703   0.00000  Uiso   1.00
C199   C     0.73442   0.17436   0.41882   0.00000  Uiso   1.00
C200   C     0.93259   0.15752   0.08109   0.00000  Uiso   1.00
C201   C     0.81516   0.14831   0.40992   0.00000  Uiso   1.00
C202   C     0.85136   0.18152   0.08905   0.00000  Uiso   1.00
C203   C     0.80519   0.16259   0.45619   0.00000  Uiso   1.00
C204   C     0.86326   0.16838   0.04210   0.00000  Uiso   1.00
C205   C     0.76454   0.19078   0.47844   0.00000  Uiso   1.00
C206   C     0.90454   0.14100   0.01991   0.00000  Uiso   1.00
C207   C     0.83628   0.15301   0.47949   0.00000  Uiso   1.00
C208   C     0.83299   0.17825   0.01819   0.00000  Uiso   1.00
C209   C     0.80061   0.21329   0.03106   0.00000  Uiso   1.00
C210   C     0.86936   0.11836   0.46647   0.00000  Uiso   1.00
C211   C     0.76377   0.21788   0.01483   0.00000  Uiso   1.00
C212   C     0.90661   0.11450   0.48257   0.00000  Uiso   1.00
H213   H     0.69125   0.20580   0.48407   0.00000  Uiso   1.00
H214   H     0.97710   0.12595   0.01631   0.00000  Uiso   1.00
H215   H     0.80374   0.23772   0.05392   0.00000  Uiso   1.00
H216   H     0.86637   0.09360   0.44399   0.00000  Uiso   1.00
C217   C     0.86505   0.31059   0.20996   0.00000  Uiso   1.00
C218   C     0.80499   0.02324   0.29243   0.00000  Uiso   1.00
C219   C     0.86380   0.02063   0.20923   0.00000  Uiso   1.00
C220   C     0.80397   0.31303   0.29214   0.00000  Uiso   1.00
C221   C     0.83366   0.04282   0.25038   0.00000  Uiso   1.00
C222   C     0.83328   0.29078   0.25064   0.00000  Uiso   1.00
C223   C     0.98557   0.13422   0.22960   0.00000  Uiso   1.00
C224   C     0.68106   0.19908   0.27045   0.00000  Uiso   1.00
C225   C     0.69972   0.13392   0.23024   0.00000  Uiso   1.00
C226   C     0.96681   0.19928   0.27002   0.00000  Uiso   1.00
N227   N     0.71426   0.16668   0.25001   0.00000  Uiso   1.00
N228   N     0.95241   0.16666   0.24999   0.00000  Uiso   1.00
C229   C     0.72852   0.25380   0.03442   0.00000  Uiso   1.00
H230   H     0.72120   0.26620   0.06925   0.00000  Uiso   1.00
O231   O     0.70937   0.27130   0.01151   0.00000  Uiso   1.00
C232   C     0.94392   0.07990   0.46305   0.00000  Uiso   1.00
H233   H     0.96606   0.06959   0.48123   0.00000  Uiso   1.00
O234   O     0.95016   0.06202   0.42614   0.00000  Uiso   1.00
N235   N     0.80316   0.19891   0.11746   0.00000  Uiso   1.00
O236   O     0.79831   0.23457   0.13980   0.00000  Uiso   1.00
O237   O     0.76405   0.17828   0.12258   0.00000  Uiso   1.00
N238   N     0.86150   0.12816   0.38103   0.00000  Uiso   1.00
O239   O     0.90251   0.14705   0.37272   0.00000  Uiso   1.00
O240   O     0.86247   0.09315   0.35876   0.00000  Uiso   1.00
N241   N     0.97236   0.16015   0.09577   0.00000  Uiso   1.00
O242   O     0.97622   0.19342   0.11849   0.00000  Uiso   1.00
O243   O     0.67649   0.13414   0.07826   0.00000  Uiso   1.00
N244   N     0.69423   0.17294   0.40462   0.00000  Uiso   1.00
O245   O     0.99053   0.19928   0.42295   0.00000  Uiso   1.00
O246   O     0.68978   0.14056   0.38099   0.00000  Uiso   1.00
C247   C     0.89844   0.28626   0.16787   0.00000  Uiso   1.00
H248   H     0.93771   0.29119   0.15341   0.00000  Uiso   1.00
O249   O     0.88217   0.26098   0.14867   0.00000  Uiso   1.00
C250   C     0.77812   0.04852   0.33646   0.00000  Uiso   1.00
H251   H     0.76379   0.07958   0.33513   0.00000  Uiso   1.00
O252   O     0.77337   0.03559   0.37455   0.00000  Uiso   1.00
N253   N     0.88985   0.04214   0.16621   0.00000  Uiso   1.00
O254   O     0.93602   0.03357   0.14054   0.00000  Uiso   1.00
O255   O     0.86655   0.06878   0.15117   0.00000  Uiso   1.00
N256   N     0.77381   0.29138   0.33366   0.00000  Uiso   1.00
O257   O     0.72764   0.30204   0.35642   0.00000  Uiso   1.00
O258   O     0.79318   0.26291   0.35057   0.00000  Uiso   1.00
C259   C     0.97363   0.09978   0.20465   0.00000  Uiso   1.00
H260   H     0.97997   0.06753   0.21129   0.00000  Uiso   1.00
O261   O     0.95917   0.10715   0.17435   0.00000  Uiso   1.00
C262   C     0.69294   0.23335   0.29559   0.00000  Uiso   1.00
H263   H     0.68694   0.26565   0.28885   0.00000  Uiso   1.00
O264   O     0.70691   0.22577   0.32617   0.00000  Uiso   1.00
N265   N     0.73270   0.09918   0.20937   0.00000  Uiso   1.00
O266   O     0.72426   0.06338   0.23001   0.00000  Uiso   1.00
O267   O     0.76444   0.10071   0.16607   0.00000  Uiso   1.00
N268   N     0.93335   0.23353   0.29191   0.00000  Uiso   1.00
O269   O     0.94119   0.26981   0.27232   0.00000  Uiso   1.00
O270   O     0.90185   0.23097   0.33520   0.00000  Uiso   1.00
O271   O     0.12846   0.56108   0.25001   0.00000  Uiso   1.00
O272   O     0.20488   0.43892   0.25000   0.00000  Uiso   1.00
O273   O     0.20490   0.56107   0.25000   0.00000  Uiso   1.00
O274   O     0.12843   0.43893   0.25000   0.00000  Uiso   1.00
C275   C     0.16627   0.57982   0.25061   0.00000  Uiso   1.00
C276   C     0.16700   0.42027   0.24975   0.00000  Uiso   1.00
O277   O     0.10661   0.50001   0.31613   0.00000  Uiso   1.00
O278   O     0.22672   0.49999   0.18388   0.00000  Uiso   1.00
O279   O     0.18305   0.50000   0.31612   0.00000  Uiso   1.00
O280   O     0.15028   0.50000   0.18388   0.00000  Uiso   1.00
C281   C     0.13558   0.49702   0.33807   0.00000  Uiso   1.00
C282   C     0.19775   0.50224   0.16175   0.00000  Uiso   1.00
Zn283  Zn    0.11562   0.50001   0.25000   0.00000  Uiso   1.00
Zn284  Zn    0.21771   0.49999   0.25000   0.00000  Uiso   1.00
C285   C     0.11549   0.49280   0.38955   0.00000  Uiso   1.00
C286   C     0.21767   0.50502   0.11001   0.00000  Uiso   1.00
C287   C     0.06005   0.52494   0.46264   0.00000  Uiso   1.00
C288   C     0.27471   0.47339   0.03703   0.00000  Uiso   1.00
C289   C     0.06775   0.50769   0.41882   0.00000  Uiso   1.00
C290   C     0.26592   0.49085   0.08109   0.00000  Uiso   1.00
C291   C     0.14849   0.48165   0.40992   0.00000  Uiso   1.00
C292   C     0.18469   0.51485   0.08905   0.00000  Uiso   1.00
C293   C     0.13853   0.49592   0.45619   0.00000  Uiso   1.00
C294   C     0.19660   0.50172   0.04210   0.00000  Uiso   1.00
C295   C     0.09787   0.52412   0.47844   0.00000  Uiso   1.00
C296   C     0.23787   0.47433   0.01991   0.00000  Uiso   1.00
C297   C     0.16961   0.48635   0.47949   0.00000  Uiso   1.00
C298   C     0.16633   0.51158   0.01819   0.00000  Uiso   1.00
C299   C     0.13394   0.54662   0.03106   0.00000  Uiso   1.00
C300   C     0.20270   0.45169   0.46647   0.00000  Uiso   1.00
C301   C     0.09711   0.55121   0.01483   0.00000  Uiso   1.00
C302   C     0.23995   0.44784   0.48257   0.00000  Uiso   1.00
H303   H     0.02458   0.53913   0.48407   0.00000  Uiso   1.00
H304   H     0.31043   0.45929   0.01631   0.00000  Uiso   1.00
H305   H     0.13707   0.57105   0.05392   0.00000  Uiso   1.00
H306   H     0.19970   0.42693   0.44399   0.00000  Uiso   1.00
C307   C     0.19838   0.64392   0.20996   0.00000  Uiso   1.00
C308   C     0.13832   0.35657   0.29243   0.00000  Uiso   1.00
C309   C     0.19713   0.35396   0.20923   0.00000  Uiso   1.00
C310   C     0.13730   0.64636   0.29214   0.00000  Uiso   1.00
C311   C     0.16699   0.37615   0.25038   0.00000  Uiso   1.00
C312   C     0.16661   0.62411   0.25064   0.00000  Uiso   1.00
C313   C     0.31890   0.46755   0.22960   0.00000  Uiso   1.00
C314   C     0.01440   0.53242   0.27045   0.00000  Uiso   1.00
C315   C     0.03305   0.46726   0.23024   0.00000  Uiso   1.00
C316   C     0.30015   0.53262   0.27002   0.00000  Uiso   1.00
N317   N     0.04759   0.50001   0.25001   0.00000  Uiso   1.00
N318   N     0.28574   0.49999   0.24999   0.00000  Uiso   1.00
C319   C     0.06185   0.58713   0.03442   0.00000  Uiso   1.00
H320   H     0.05453   0.59953   0.06925   0.00000  Uiso   1.00
O321   O     0.04270   0.60463   0.01151   0.00000  Uiso   1.00
C322   C     0.27726   0.41323   0.46305   0.00000  Uiso   1.00
H323   H     0.29939   0.40293   0.48123   0.00000  Uiso   1.00
O324   O     0.28349   0.39535   0.42614   0.00000  Uiso   1.00
N325   N     0.13650   0.53225   0.11746   0.00000  Uiso   1.00
O326   O     0.13164   0.56790   0.13980   0.00000  Uiso   1.00
O327   O     0.09738   0.51162   0.12258   0.00000  Uiso   1.00
N328   N     0.19483   0.46149   0.38103   0.00000  Uiso   1.00
O329   O     0.23584   0.48038   0.37272   0.00000  Uiso   1.00
O330   O     0.19580   0.42649   0.35876   0.00000  Uiso   1.00
N331   N     0.30569   0.49348   0.09577   0.00000  Uiso   1.00
O332   O     0.30955   0.52675   0.11849   0.00000  Uiso   1.00
O333   O     0.00982   0.46747   0.07826   0.00000  Uiso   1.00
N334   N     0.02757   0.50627   0.40462   0.00000  Uiso   1.00
O335   O     0.32386   0.53262   0.42295   0.00000  Uiso   1.00
O336   O     0.02311   0.47389   0.38099   0.00000  Uiso   1.00
C337   C     0.23177   0.61959   0.16787   0.00000  Uiso   1.00
H338   H     0.27104   0.62452   0.15341   0.00000  Uiso   1.00
O339   O     0.21550   0.59431   0.14867   0.00000  Uiso   1.00
C340   C     0.11146   0.38186   0.33646   0.00000  Uiso   1.00
H341   H     0.09712   0.41291   0.33513   0.00000  Uiso   1.00
O342   O     0.10670   0.36892   0.37455   0.00000  Uiso   1.00
N343   N     0.22318   0.37547   0.16621   0.00000  Uiso   1.00
O344   O     0.26936   0.36691   0.14054   0.00000  Uiso   1.00
O345   O     0.19988   0.40212   0.15117   0.00000  Uiso   1.00
N346   N     0.10715   0.62471   0.33366   0.00000  Uiso   1.00
O347   O     0.06097   0.63538   0.35642   0.00000  Uiso   1.00
O348   O     0.12652   0.59624   0.35057   0.00000  Uiso   1.00
C349   C     0.30696   0.43311   0.20465   0.00000  Uiso   1.00
H350   H     0.31330   0.40087   0.21129   0.00000  Uiso   1.00
O351   O     0.29250   0.44048   0.17435   0.00000  Uiso   1.00
C352   C     0.02627   0.56669   0.29559   0.00000  Uiso   1.00
H353   H     0.02027   0.59898   0.28885   0.00000  Uiso   1.00
O354   O     0.04024   0.55910   0.32617   0.00000  Uiso   1.00
N355   N     0.06604   0.43251   0.20937   0.00000  Uiso   1.00
O356   O     0.05760   0.39671   0.23001   0.00000  Uiso   1.00
O357   O     0.09777   0.43405   0.16607   0.00000  Uiso   1.00
N358   N     0.26669   0.56686   0.29191   0.00000  Uiso   1.00
O359   O     0.27452   0.60314   0.27232   0.00000  Uiso   1.00
O360   O     0.23518   0.56431   0.33520   0.00000  Uiso   1.00
O361   O     0.46179   0.56108   0.25001   0.00000  Uiso   1.00
O362   O     0.53821   0.43892   0.25000   0.00000  Uiso   1.00
O363   O     0.53823   0.56107   0.25000   0.00000  Uiso   1.00
O364   O     0.46177   0.43893   0.25000   0.00000  Uiso   1.00
C365   C     0.49961   0.57982   0.25061   0.00000  Uiso   1.00
C366   C     0.50034   0.42027   0.24975   0.00000  Uiso   1.00
O367   O     0.43994   0.50001   0.31613   0.00000  Uiso   1.00
O368   O     0.56006   0.49999   0.18388   0.00000  Uiso   1.00
O369   O     0.51639   0.50000   0.31612   0.00000  Uiso   1.00
O370   O     0.48361   0.50000   0.18388   0.00000  Uiso   1.00
C371   C     0.46892   0.49702   0.33807   0.00000  Uiso   1.00
C372   C     0.53108   0.50224   0.16175   0.00000  Uiso   1.00
Zn373  Zn    0.44896   0.50001   0.25000   0.00000  Uiso   1.00
Zn374  Zn    0.55104   0.49999   0.25000   0.00000  Uiso   1.00
C375   C     0.44883   0.49280   0.38955   0.00000  Uiso   1.00
C376   C     0.55100   0.50502   0.11001   0.00000  Uiso   1.00
C377   C     0.39338   0.52494   0.46264   0.00000  Uiso   1.00
C378   C     0.60805   0.47339   0.03703   0.00000  Uiso   1.00
C379   C     0.40108   0.50769   0.41882   0.00000  Uiso   1.00
C380   C     0.59925   0.49085   0.08109   0.00000  Uiso   1.00
C381   C     0.48182   0.48165   0.40992   0.00000  Uiso   1.00
C382   C     0.51803   0.51485   0.08905   0.00000  Uiso   1.00
C383   C     0.47186   0.49592   0.45619   0.00000  Uiso   1.00
C384   C     0.52993   0.50172   0.04210   0.00000  Uiso   1.00
C385   C     0.43120   0.52412   0.47844   0.00000  Uiso   1.00
C386   C     0.57120   0.47433   0.01991   0.00000  Uiso   1.00
C387   C     0.50295   0.48635   0.47949   0.00000  Uiso   1.00
C388   C     0.49966   0.51158   0.01819   0.00000  Uiso   1.00
C389   C     0.46728   0.54662   0.03106   0.00000  Uiso   1.00
C390   C     0.53603   0.45169   0.46647   0.00000  Uiso   1.00
C391   C     0.43044   0.55121   0.01483   0.00000  Uiso   1.00
C392   C     0.57328   0.44784   0.48257   0.00000  Uiso   1.00
H393   H     0.35792   0.53913   0.48407   0.00000  Uiso   1.00
H394   H     0.64376   0.45929   0.01631   0.00000  Uiso   1.00
H395   H     0.47040   0.57105   0.05392   0.00000  Uiso   1.00
H396   H     0.53303   0.42693   0.44399   0.00000  Uiso   1.00
C397   C     0.53172   0.64392   0.20996   0.00000  Uiso   1.00
C398   C     0.47166   0.35657   0.29243   0.00000  Uiso   1.00
C399   C     0.53046   0.35396   0.20923   0.00000  Uiso   1.00
C400   C     0.47063   0.64636   0.29214   0.00000  Uiso   1.00
C401   C     0.50033   0.37615   0.25038   0.00000  Uiso   1.00
C402   C     0.49995   0.62411   0.25064   0.00000  Uiso   1.00
C403   C     0.65223   0.46755   0.22960   0.00000  Uiso   1.00
C404   C     0.34773   0.53242   0.27045   0.00000  Uiso   1.00
C405   C     0.36638   0.46726   0.23024   0.00000  Uiso   1.00
C406   C     0.63348   0.53262   0.27002   0.00000  Uiso   1.00
N407   N     0.38093   0.50001   0.25001   0.00000  Uiso   1.00
N408   N     0.61907   0.49999   0.24999   0.00000  Uiso   1.00
C409   C     0.39519   0.58713   0.03442   0.00000  Uiso   1.00
H410   H     0.38786   0.59953   0.06925   0.00000  Uiso   1.00
O411   O     0.37604   0.60463   0.01151   0.00000  Uiso   1.00
C412   C     0.61059   0.41323   0.46305   0.00000  Uiso   1.00
H413   H     0.63272   0.40293   0.48123   0.00000  Uiso   1.00
O414   O     0.61682   0.39535   0.42614   0.00000  Uiso   1.00
N415   N     0.46983   0.53225   0.11746   0.00000  Uiso   1.00
O416   O     0.46497   0.56790   0.13980   0.00000  Uiso   1.00
O417   O     0.43071   0.51162   0.12258   0.00000  Uiso   1.00
N418   N     0.52816   0.46149   0.38103   0.00000  Uiso   1.00
O419   O     0.56918   0.48038   0.37272   0.00000  Uiso   1.00
O420   O     0.52914   0.42649   0.35876   0.00000  Uiso   1.00
N421   N     0.63902   0.49348   0.09577   0.00000  Uiso   1.00
O422   O     0.64289   0.52675   0.11849   0.00000  Uiso   1.00
O423   O     0.34316   0.46747   0.07826   0.00000  Uiso   1.00
N424   N     0.36090   0.50627   0.40462   0.00000  Uiso   1.00
O425   O     0.65719   0.53262   0.42295   0.00000  Uiso   1.00
O426   O     0.35644   0.47389   0.38099   0.00000  Uiso   1.00
C427   C     0.56511   0.61959   0.16787   0.00000  Uiso   1.00
H428   H     0.60437   0.62452   0.15341   0.00000  Uiso   1.00
O429   O     0.54884   0.59431   0.14867   0.00000  Uiso   1.00
C430   C     0.44479   0.38186   0.33646   0.00000  Uiso   1.00
H431   H     0.43046   0.41291   0.33513   0.00000  Uiso   1.00
O432   O     0.44003   0.36892   0.37455   0.00000  Uiso   1.00
N433   N     0.55651   0.37547   0.16621   0.00000  Uiso   1.00
O434   O     0.60269   0.36691   0.14054   0.00000  Uiso   1.00
O435   O     0.53322   0.40212   0.15117   0.00000  Uiso   1.00
N436   N     0.44048   0.62471   0.33366   0.00000  Uiso   1.00
O437   O     0.39431   0.63538   0.35642   0.00000  Uiso   1.00
O438   O     0.45985   0.59624   0.35057   0.00000  Uiso   1.00
C439   C     0.64029   0.43311   0.20465   0.00000  Uiso   1.00
H440   H     0.64663   0.40087   0.21129   0.00000  Uiso   1.00
O441   O     0.62584   0.44048   0.17435   0.00000  Uiso   1.00
C442   C     0.35960   0.56669   0.29559   0.00000  Uiso   1.00
H443   H     0.35361   0.59898   0.28885   0.00000  Uiso   1.00
O444   O     0.37357   0.55910   0.32617   0.00000  Uiso   1.00
N445   N     0.39937   0.43251   0.20937   0.00000  Uiso   1.00
O446   O     0.39093   0.39671   0.23001   0.00000  Uiso   1.00
O447   O     0.43110   0.43405   0.16607   0.00000  Uiso   1.00
N448   N     0.60002   0.56686   0.29191   0.00000  Uiso   1.00
O449   O     0.60785   0.60314   0.27232   0.00000  Uiso   1.00
O450   O     0.56851   0.56431   0.33520   0.00000  Uiso   1.00
O451   O     0.79512   0.56108   0.25001   0.00000  Uiso   1.00
O452   O     0.87154   0.43892   0.25000   0.00000  Uiso   1.00
O453   O     0.87157   0.56107   0.25000   0.00000  Uiso   1.00
O454   O     0.79510   0.43893   0.25000   0.00000  Uiso   1.00
C455   C     0.83294   0.57982   0.25061   0.00000  Uiso   1.00
C456   C     0.83367   0.42027   0.24975   0.00000  Uiso   1.00
O457   O     0.77328   0.50001   0.31613   0.00000  Uiso   1.00
O458   O     0.89339   0.49999   0.18388   0.00000  Uiso   1.00
O459   O     0.84972   0.50000   0.31612   0.00000  Uiso   1.00
O460   O     0.81695   0.50000   0.18388   0.00000  Uiso   1.00
C461   C     0.80225   0.49702   0.33807   0.00000  Uiso   1.00
C462   C     0.86441   0.50224   0.16175   0.00000  Uiso   1.00
Zn463  Zn    0.78229   0.50001   0.25000   0.00000  Uiso   1.00
Zn464  Zn    0.88438   0.49999   0.25000   0.00000  Uiso   1.00
C465   C     0.78216   0.49280   0.38955   0.00000  Uiso   1.00
C466   C     0.88433   0.50502   0.11001   0.00000  Uiso   1.00
C467   C     0.72671   0.52494   0.46264   0.00000  Uiso   1.00
C468   C     0.94138   0.47339   0.03703   0.00000  Uiso   1.00
C469   C     0.73442   0.50769   0.41882   0.00000  Uiso   1.00
C470   C     0.93259   0.49085   0.08109   0.00000  Uiso   1.00
C471   C     0.81516   0.48165   0.40992   0.00000  Uiso   1.00
C472   C     0.85136   0.51485   0.08905   0.00000  Uiso   1.00
C473   C     0.80519   0.49592   0.45619   0.00000  Uiso   1.00
C474   C     0.86326   0.50172   0.04210   0.00000  Uiso   1.00
C475   C     0.76454   0.52412   0.47844   0.00000  Uiso   1.00
C476   C     0.90454   0.47433   0.01991   0.00000  Uiso   1.00
C477   C     0.83628   0.48635   0.47949   0.00000  Uiso   1.00
C478   C     0.83299   0.51158   0.01819   0.00000  Uiso   1.00
C479   C     0.80061   0.54662   0.03106   0.00000  Uiso   1.00
C480   C     0.86936   0.45169   0.46647   0.00000  Uiso   1.00
C481   C     0.76377   0.55121   0.01483   0.00000  Uiso   1.00
C482   C     0.90661   0.44784   0.48257   0.00000  Uiso   1.00
H483   H     0.69125   0.53913   0.48407   0.00000  Uiso   1.00
H484   H     0.97710   0.45929   0.01631   0.00000  Uiso   1.00
H485   H     0.80374   0.57105   0.05392   0.00000  Uiso   1.00
H486   H     0.86637   0.42693   0.44399   0.00000  Uiso   1.00
C487   C     0.86505   0.64392   0.20996   0.00000  Uiso   1.00
C488   C     0.80499   0.35657   0.29243   0.00000  Uiso   1.00
C489   C     0.86380   0.35396   0.20923   0.00000  Uiso   1.00
C490   C     0.80397   0.64636   0.29214   0.00000  Uiso   1.00
C491   C     0.83366   0.37615   0.25038   0.00000  Uiso   1.00
C492   C     0.83328   0.62411   0.25064   0.00000  Uiso   1.00
C493   C     0.98557   0.46755   0.22960   0.00000  Uiso   1.00
C494   C     0.68106   0.53242   0.27045   0.00000  Uiso   1.00
C495   C     0.69972   0.46726   0.23024   0.00000  Uiso   1.00
C496   C     0.96681   0.53262   0.27002   0.00000  Uiso   1.00
N497   N     0.71426   0.50001   0.25001   0.00000  Uiso   1.00
N498   N     0.95241   0.49999   0.24999   0.00000  Uiso   1.00
C499   C     0.72852   0.58713   0.03442   0.00000  Uiso   1.00
H500   H     0.72120   0.59953   0.06925   0.00000  Uiso   1.00
O501   O     0.70937   0.60463   0.01151   0.00000  Uiso   1.00
C502   C     0.94392   0.41323   0.46305   0.00000  Uiso   1.00
H503   H     0.96606   0.40293   0.48123   0.00000  Uiso   1.00
O504   O     0.95016   0.39535   0.42614   0.00000  Uiso   1.00
N505   N     0.80316   0.53225   0.11746   0.00000  Uiso   1.00
O506   O     0.79831   0.56790   0.13980   0.00000  Uiso   1.00
O507   O     0.76405   0.51162   0.12258   0.00000  Uiso   1.00
N508   N     0.86150   0.46149   0.38103   0.00000  Uiso   1.00
O509   O     0.90251   0.48038   0.37272   0.00000  Uiso   1.00
O510   O     0.86247   0.42649   0.35876   0.00000  Uiso   1.00
N511   N     0.97236   0.49348   0.09577   0.00000  Uiso   1.00
O512   O     0.97622   0.52675   0.11849   0.00000  Uiso   1.00
O513   O     0.67649   0.46747   0.07826   0.00000  Uiso   1.00
N514   N     0.69423   0.50627   0.40462   0.00000  Uiso   1.00
O515   O     0.99053   0.53262   0.42295   0.00000  Uiso   1.00
O516   O     0.68978   0.47389   0.38099   0.00000  Uiso   1.00
C517   C     0.89844   0.61959   0.16787   0.00000  Uiso   1.00
H518   H     0.93771   0.62452   0.15341   0.00000  Uiso   1.00
O519   O     0.88217   0.59431   0.14867   0.00000  Uiso   1.00
C520   C     0.77812   0.38186   0.33646   0.00000  Uiso   1.00
H521   H     0.76379   0.41291   0.33513   0.00000  Uiso   1.00
O522   O     0.77337   0.36892   0.37455   0.00000  Uiso   1.00
N523   N     0.88985   0.37547   0.16621   0.00000  Uiso   1.00
O524   O     0.93602   0.36691   0.14054   0.00000  Uiso   1.00
O525   O     0.86655   0.40212   0.15117   0.00000  Uiso   1.00
N526   N     0.77381   0.62471   0.33366   0.00000  Uiso   1.00
O527   O     0.72764   0.63538   0.35642   0.00000  Uiso   1.00
O528   O     0.79318   0.59624   0.35057   0.00000  Uiso   1.00
C529   C     0.97363   0.43311   0.20465   0.00000  Uiso   1.00
H530   H     0.97997   0.40087   0.21129   0.00000  Uiso   1.00
O531   O     0.95917   0.44048   0.17435   0.00000  Uiso   1.00
C532   C     0.69294   0.56669   0.29559   0.00000  Uiso   1.00
H533   H     0.68694   0.59898   0.28885   0.00000  Uiso   1.00
O534   O     0.70691   0.55910   0.32617   0.00000  Uiso   1.00
N535   N     0.73270   0.43251   0.20937   0.00000  Uiso   1.00
O536   O     0.72426   0.39671   0.23001   0.00000  Uiso   1.00
O537   O     0.76444   0.43405   0.16607   0.00000  Uiso   1.00
N538   N     0.93335   0.56686   0.29191   0.00000  Uiso   1.00
O539   O     0.94119   0.60314   0.27232   0.00000  Uiso   1.00
O540   O     0.90185   0.56431   0.33520   0.00000  Uiso   1.00
O541   O     0.12846   0.89442   0.25001   0.00000  Uiso   1.00
O542   O     0.20488   0.77225   0.25000   0.00000  Uiso   1.00
O543   O     0.20490   0.89441   0.25000   0.00000  Uiso   1.00
O544   O     0.12843   0.77226   0.25000   0.00000  Uiso   1.00
C545   C     0.16627   0.91315   0.25061   0.00000  Uiso   1.00
C546   C     0.16700   0.75361   0.24975   0.00000  Uiso   1.00
O547   O     0.10661   0.83334   0.31613   0.00000  Uiso   1.00
O548   O     0.22672   0.83333   0.18388   0.00000  Uiso   1.00
O549   O     0.18305   0.83333   0.31612   0.00000  Uiso   1.00
O550   O     0.15028   0.83334   0.18388   0.00000  Uiso   1.00
C551   C     0.13558   0.83036   0.33807   0.00000  Uiso   1.00
C552   C     0.19775   0.83557   0.16175   0.00000  Uiso   1.00
Zn553  Zn    0.11562   0.83334   0.25000   0.00000  Uiso   1.00
Zn554  Zn    0.21771   0.83333   0.25000   0.00000  Uiso   1.00
C555   C     0.11549   0.82614   0.38955   0.00000  Uiso   1.00
C556   C     0.21767   0.83835   0.11001   0.00000  Uiso   1.00
C557   C     0.06005   0.85828   0.46264   0.00000  Uiso   1.00
C558   C     0.27471   0.80672   0.03703   0.00000  Uiso   1.00
C559   C     0.06775   0.84103   0.41882   0.00000  Uiso   1.00
C560   C     0.26592   0.82419   0.08109   0.00000  Uiso   1.00
C561   C     0.14849   0.81498   0.40992   0.00000  Uiso   1.00
C562   C     0.18469   0.84819   0.08905   0.00000  Uiso   1.00
C563   C     0.13853   0.82925   0.45619   0.00000  Uiso   1.00
C564   C     0.19660   0.83505   0.04210   0.00000  Uiso   1.00
C565   C     0.09787   0.85745   0.47844   0.00000  Uiso   1.00
C566   C     0.23787   0.80767   0.01991   0.00000  Uiso   1.00
C567   C     0.16961   0.81968   0.47949   0.00000  Uiso   1.00
C568   C     0.16633   0.84491   0.01819   0.00000  Uiso   1.00
C569   C     0.13394   0.87996   0.03106   0.00000  Uiso   1.00
C570   C     0.20270   0.78503   0.46647   0.00000  Uiso   1.00
C571   C     0.09711   0.88455   0.01483   0.00000  Uiso   1.00
C572   C     0.23995   0.78117   0.48257   0.00000  Uiso   1.00
H573   H     0.02458   0.87247   0.48407   0.00000  Uiso   1.00
H574   H     0.31043   0.79262   0.01631   0.00000  Uiso   1.00
H575   H     0.13707   0.90439   0.05392   0.00000  Uiso   1.00
H576   H     0.19970   0.76026   0.44399   0.00000  Uiso   1.00
C577   C     0.19838   0.97725   0.20996   0.00000  Uiso   1.00
C578   C     0.13832   0.68991   0.29243   0.00000  Uiso   1.00
C579   C     0.19713   0.68729   0.20923   0.00000  Uiso   1.00
C580   C     0.13730   0.97970   0.29214   0.00000  Uiso   1.00
C581   C     0.16699   0.70948   0.25038   0.00000  Uiso   1.00
C582   C     0.16661   0.95745   0.25064   0.00000  Uiso   1.00
C583   C     0.31890   0.80088   0.22960   0.00000  Uiso   1.00
C584   C     0.01440   0.86575   0.27045   0.00000  Uiso   1.00
C585   C     0.03305   0.80059   0.23024   0.00000  Uiso   1.00
C586   C     0.30015   0.86595   0.27002   0.00000  Uiso   1.00
N587   N     0.04759   0.83334   0.25001   0.00000  Uiso   1.00
N588   N     0.28574   0.83332   0.24999   0.00000  Uiso   1.00
C589   C     0.06185   0.92047   0.03442   0.00000  Uiso   1.00
H590   H     0.05453   0.93287   0.06925   0.00000  Uiso   1.00
O591   O     0.04270   0.93796   0.01151   0.00000  Uiso   1.00
C592   C     0.27726   0.74657   0.46305   0.00000  Uiso   1.00
H593   H     0.29939   0.73626   0.48123   0.00000  Uiso   1.00
O594   O     0.28349   0.72869   0.42614   0.00000  Uiso   1.00
N595   N     0.13650   0.86558   0.11746   0.00000  Uiso   1.00
O596   O     0.13164   0.90123   0.13980   0.00000  Uiso   1.00
O597   O     0.09738   0.84495   0.12258   0.00000  Uiso   1.00
N598   N     0.19483   0.79483   0.38103   0.00000  Uiso   1.00
O599   O     0.23584   0.81372   0.37272   0.00000  Uiso   1.00
O600   O     0.19580   0.75982   0.35876   0.00000  Uiso   1.00
N601   N     0.30569   0.82681   0.09577   0.00000  Uiso   1.00
O602   O     0.30955   0.86008   0.11849   0.00000  Uiso   1.00
O603   O     0.00982   0.80081   0.07826   0.00000  Uiso   1.00
N604   N     0.02757   0.83961   0.40462   0.00000  Uiso   1.00
O605   O     0.32386   0.86595   0.42295   0.00000  Uiso   1.00
O606   O     0.02311   0.80723   0.38099   0.00000  Uiso   1.00
C607   C     0.23177   0.95293   0.16787   0.00000  Uiso   1.00
H608   H     0.27104   0.95785   0.15341   0.00000  Uiso   1.00
O609   O     0.21550   0.92765   0.14867   0.00000  Uiso   1.00
C610   C     0.11146   0.71519   0.33646   0.00000  Uiso   1.00
H611   H     0.09712   0.74624   0.33513   0.00000  Uiso   1.00
O612   O     0.10670   0.70226   0.37455   0.00000  Uiso   1.00
N613   N     0.22318   0.70880   0.16621   0.00000  Uiso   1.00
O614   O     0.26936   0.70024   0.14054   0.00000  Uiso   1.00
O615   O     0.19988   0.73545   0.15117   0.00000  Uiso   1.00
N616   N     0.10715   0.95804   0.33366   0.00000  Uiso   1.00
O617   O     0.06097   0.96871   0.35642   0.00000  Uiso   1.00
O618   O     0.12652   0.92957   0.35057   0.00000  Uiso   1.00
C619   C     0.30696   0.76645   0.20465   0.00000  Uiso   1.00
H620   H     0.31330   0.73420   0.21129   0.00000  Uiso   1.00
O621   O     0.29250   0.77382   0.17435   0.00000  Uiso   1.00
C622   C     0.02627   0.90002   0.29559   0.00000  Uiso   1.00
H623   H     0.02027   0.93232   0.28885   0.00000  Uiso   1.00
O624   O     0.04024   0.89243   0.32617   0.00000  Uiso   1.00
N625   N     0.06604   0.76584   0.20937   0.00000  Uiso   1.00
O626   O     0.05760   0.73004   0.23001   0.00000  Uiso   1.00
O627   O     0.09777   0.76738   0.16607   0.00000  Uiso   1.00
N628   N     0.26669   0.90019   0.29191   0.00000  Uiso   1.00
O629   O     0.27452   0.93648   0.27232   0.00000  Uiso   1.00
O630   O     0.23518   0.89764   0.33520   0.00000  Uiso   1.00
O631   O     0.46179   0.89442   0.25001   0.00000  Uiso   1.00
O632   O     0.53821   0.77225   0.25000   0.00000  Uiso   1.00
O633   O     0.53823   0.89441   0.25000   0.00000  Uiso   1.00
O634   O     0.46177   0.77226   0.25000   0.00000  Uiso   1.00
C635   C     0.49961   0.91315   0.25061   0.00000  Uiso   1.00
C636   C     0.50034   0.75361   0.24975   0.00000  Uiso   1.00
O637   O     0.43994   0.83334   0.31613   0.00000  Uiso   1.00
O638   O     0.56006   0.83333   0.18388   0.00000  Uiso   1.00
O639   O     0.51639   0.83333   0.31612   0.00000  Uiso   1.00
O640   O     0.48361   0.83334   0.18388   0.00000  Uiso   1.00
C641   C     0.46892   0.83036   0.33807   0.00000  Uiso   1.00
C642   C     0.53108   0.83557   0.16175   0.00000  Uiso   1.00
Zn643  Zn    0.44896   0.83334   0.25000   0.00000  Uiso   1.00
Zn644  Zn    0.55104   0.83333   0.25000   0.00000  Uiso   1.00
C645   C     0.44883   0.82614   0.38955   0.00000  Uiso   1.00
C646   C     0.55100   0.83835   0.11001   0.00000  Uiso   1.00
C647   C     0.39338   0.85828   0.46264   0.00000  Uiso   1.00
C648   C     0.60805   0.80672   0.03703   0.00000  Uiso   1.00
C649   C     0.40108   0.84103   0.41882   0.00000  Uiso   1.00
C650   C     0.59925   0.82419   0.08109   0.00000  Uiso   1.00
C651   C     0.48182   0.81498   0.40992   0.00000  Uiso   1.00
C652   C     0.51803   0.84819   0.08905   0.00000  Uiso   1.00
C653   C     0.47186   0.82925   0.45619   0.00000  Uiso   1.00
C654   C     0.52993   0.83505   0.04210   0.00000  Uiso   1.00
C655   C     0.43120   0.85745   0.47844   0.00000  Uiso   1.00
C656   C     0.57120   0.80767   0.01991   0.00000  Uiso   1.00
C657   C     0.50295   0.81968   0.47949   0.00000  Uiso   1.00
C658   C     0.49966   0.84491   0.01819   0.00000  Uiso   1.00
C659   C     0.46728   0.87996   0.03106   0.00000  Uiso   1.00
C660   C     0.53603   0.78503   0.46647   0.00000  Uiso   1.00
C661   C     0.43044   0.88455   0.01483   0.00000  Uiso   1.00
C662   C     0.57328   0.78117   0.48257   0.00000  Uiso   1.00
H663   H     0.35792   0.87247   0.48407   0.00000  Uiso   1.00
H664   H     0.64376   0.79262   0.01631   0.00000  Uiso   1.00
H665   H     0.47040   0.90439   0.05392   0.00000  Uiso   1.00
H666   H     0.53303   0.76026   0.44399   0.00000  Uiso   1.00
C667   C     0.53172   0.97725   0.20996   0.00000  Uiso   1.00
C668   C     0.47166   0.68991   0.29243   0.00000  Uiso   1.00
C669   C     0.53046   0.68729   0.20923   0.00000  Uiso   1.00
C670   C     0.47063   0.97970   0.29214   0.00000  Uiso   1.00
C671   C     0.50033   0.70948   0.25038   0.00000  Uiso   1.00
C672   C     0.49995   0.95745   0.25064   0.00000  Uiso   1.00
C673   C     0.65223   0.80088   0.22960   0.00000  Uiso   1.00
C674   C     0.34773   0.86575   0.27045   0.00000  Uiso   1.00
C675   C     0.36638   0.80059   0.23024   0.00000  Uiso   1.00
C676   C     0.63348   0.86595   0.27002   0.00000  Uiso   1.00
N677   N     0.38093   0.83334   0.25001   0.00000  Uiso   1.00
N678   N     0.61907   0.83332   0.24999   0.00000  Uiso   1.00
C679   C     0.39519   0.92047   0.03442   0.00000  Uiso   1.00
H680   H     0.38786   0.93287   0.06925   0.00000  Uiso   1.00
O681   O     0.37604   0.93796   0.01151   0.00000  Uiso   1.00
C682   C     0.61059   0.74657   0.46305   0.00000  Uiso   1.00
H683   H     0.63272   0.73626   0.48123   0.00000  Uiso   1.00
O684   O     0.61682   0.72869   0.42614   0.00000  Uiso   1.00
N685   N     0.46983   0.86558   0.11746   0.00000  Uiso   1.00
O686   O     0.46497   0.90123   0.13980   0.00000  Uiso   1.00
O687   O     0.43071   0.84495   0.12258   0.00000  Uiso   1.00
N688   N     0.52816   0.79483   0.38103   0.00000  Uiso   1.00
O689   O     0.56918   0.81372   0.37272   0.00000  Uiso   1.00
O690   O     0.52914   0.75982   0.35876   0.00000  Uiso   1.00
N691   N     0.63902   0.82681   0.09577   0.00000  Uiso   1.00
O692   O     0.64289   0.86008   0.11849   0.00000  Uiso   1.00
O693   O     0.34316   0.80081   0.07826   0.00000  Uiso   1.00
N694   N     0.36090   0.83961   0.40462   0.00000  Uiso   1.00
O695   O     0.65719   0.86595   0.42295   0.00000  Uiso   1.00
O696   O     0.35644   0.80723   0.38099   0.00000  Uiso   1.00
C697   C     0.56511   0.95293   0.16787   0.00000  Uiso   1.00
H698   H     0.60437   0.95785   0.15341   0.00000  Uiso   1.00
O699   O     0.54884   0.92765   0.14867   0.00000  Uiso   1.00
C700   C     0.44479   0.71519   0.33646   0.00000  Uiso   1.00
H701   H     0.43046   0.74624   0.33513   0.00000  Uiso   1.00
O702   O     0.44003   0.70226   0.37455   0.00000  Uiso   1.00
N703   N     0.55651   0.70880   0.16621   0.00000  Uiso   1.00
O704   O     0.60269   0.70024   0.14054   0.00000  Uiso   1.00
O705   O     0.53322   0.73545   0.15117   0.00000  Uiso   1.00
N706   N     0.44048   0.95804   0.33366   0.00000  Uiso   1.00
O707   O     0.39431   0.96871   0.35642   0.00000  Uiso   1.00
O708   O     0.45985   0.92957   0.35057   0.00000  Uiso   1.00
C709   C     0.64029   0.76645   0.20465   0.00000  Uiso   1.00
H710   H     0.64663   0.73420   0.21129   0.00000  Uiso   1.00
O711   O     0.62584   0.77382   0.17435   0.00000  Uiso   1.00
C712   C     0.35960   0.90002   0.29559   0.00000  Uiso   1.00
H713   H     0.35361   0.93232   0.28885   0.00000  Uiso   1.00
O714   O     0.37357   0.89243   0.32617   0.00000  Uiso   1.00
N715   N     0.39937   0.76584   0.20937   0.00000  Uiso   1.00
O716   O     0.39093   0.73004   0.23001   0.00000  Uiso   1.00
O717   O     0.43110   0.76738   0.16607   0.00000  Uiso   1.00
N718   N     0.60002   0.90019   0.29191   0.00000  Uiso   1.00
O719   O     0.60785   0.93648   0.27232   0.00000  Uiso   1.00
O720   O     0.56851   0.89764   0.33520   0.00000  Uiso   1.00
O721   O     0.79512   0.89442   0.25001   0.00000  Uiso   1.00
O722   O     0.87154   0.77225   0.25000   0.00000  Uiso   1.00
O723   O     0.87157   0.89441   0.25000   0.00000  Uiso   1.00
O724   O     0.79510   0.77226   0.25000   0.00000  Uiso   1.00
C725   C     0.83294   0.91315   0.25061   0.00000  Uiso   1.00
C726   C     0.83367   0.75361   0.24975   0.00000  Uiso   1.00
O727   O     0.77328   0.83334   0.31613   0.00000  Uiso   1.00
O728   O     0.89339   0.83333   0.18388   0.00000  Uiso   1.00
O729   O     0.84972   0.83333   0.31612   0.00000  Uiso   1.00
O730   O     0.81695   0.83334   0.18388   0.00000  Uiso   1.00
C731   C     0.80225   0.83036   0.33807   0.00000  Uiso   1.00
C732   C     0.86441   0.83557   0.16175   0.00000  Uiso   1.00
Zn733  Zn    0.78229   0.83334   0.25000   0.00000  Uiso   1.00
Zn734  Zn    0.88438   0.83333   0.25000   0.00000  Uiso   1.00
C735   C     0.78216   0.82614   0.38955   0.00000  Uiso   1.00
C736   C     0.88433   0.83835   0.11001   0.00000  Uiso   1.00
C737   C     0.72671   0.85828   0.46264   0.00000  Uiso   1.00
C738   C     0.94138   0.80672   0.03703   0.00000  Uiso   1.00
C739   C     0.73442   0.84103   0.41882   0.00000  Uiso   1.00
C740   C     0.93259   0.82419   0.08109   0.00000  Uiso   1.00
C741   C     0.81516   0.81498   0.40992   0.00000  Uiso   1.00
C742   C     0.85136   0.84819   0.08905   0.00000  Uiso   1.00
C743   C     0.80519   0.82925   0.45619   0.00000  Uiso   1.00
C744   C     0.86326   0.83505   0.04210   0.00000  Uiso   1.00
C745   C     0.76454   0.85745   0.47844   0.00000  Uiso   1.00
C746   C     0.90454   0.80767   0.01991   0.00000  Uiso   1.00
C747   C     0.83628   0.81968   0.47949   0.00000  Uiso   1.00
C748   C     0.83299   0.84491   0.01819   0.00000  Uiso   1.00
C749   C     0.80061   0.87996   0.03106   0.00000  Uiso   1.00
C750   C     0.86936   0.78503   0.46647   0.00000  Uiso   1.00
C751   C     0.76377   0.88455   0.01483   0.00000  Uiso   1.00
C752   C     0.90661   0.78117   0.48257   0.00000  Uiso   1.00
H753   H     0.69125   0.87247   0.48407   0.00000  Uiso   1.00
H754   H     0.97710   0.79262   0.01631   0.00000  Uiso   1.00
H755   H     0.80374   0.90439   0.05392   0.00000  Uiso   1.00
H756   H     0.86637   0.76026   0.44399   0.00000  Uiso   1.00
C757   C     0.86505   0.97725   0.20996   0.00000  Uiso   1.00
C758   C     0.80499   0.68991   0.29243   0.00000  Uiso   1.00
C759   C     0.86380   0.68729   0.20923   0.00000  Uiso   1.00
C760   C     0.80397   0.97970   0.29214   0.00000  Uiso   1.00
C761   C     0.83366   0.70948   0.25038   0.00000  Uiso   1.00
C762   C     0.83328   0.95745   0.25064   0.00000  Uiso   1.00
C763   C     0.98557   0.80088   0.22960   0.00000  Uiso   1.00
C764   C     0.68106   0.86575   0.27045   0.00000  Uiso   1.00
C765   C     0.69972   0.80059   0.23024   0.00000  Uiso   1.00
C766   C     0.96681   0.86595   0.27002   0.00000  Uiso   1.00
N767   N     0.71426   0.83334   0.25001   0.00000  Uiso   1.00
N768   N     0.95241   0.83332   0.24999   0.00000  Uiso   1.00
C769   C     0.72852   0.92047   0.03442   0.00000  Uiso   1.00
H770   H     0.72120   0.93287   0.06925   0.00000  Uiso   1.00
O771   O     0.70937   0.93796   0.01151   0.00000  Uiso   1.00
C772   C     0.94392   0.74657   0.46305   0.00000  Uiso   1.00
H773   H     0.96606   0.73626   0.48123   0.00000  Uiso   1.00
O774   O     0.95016   0.72869   0.42614   0.00000  Uiso   1.00
N775   N     0.80316   0.86558   0.11746   0.00000  Uiso   1.00
O776   O     0.79831   0.90123   0.13980   0.00000  Uiso   1.00
O777   O     0.76405   0.84495   0.12258   0.00000  Uiso   1.00
N778   N     0.86150   0.79483   0.38103   0.00000  Uiso   1.00
O779   O     0.90251   0.81372   0.37272   0.00000  Uiso   1.00
O780   O     0.86247   0.75982   0.35876   0.00000  Uiso   1.00
N781   N     0.97236   0.82681   0.09577   0.00000  Uiso   1.00
O782   O     0.97622   0.86008   0.11849   0.00000  Uiso   1.00
O783   O     0.67649   0.80081   0.07826   0.00000  Uiso   1.00
N784   N     0.69423   0.83961   0.40462   0.00000  Uiso   1.00
O785   O     0.99053   0.86595   0.42295   0.00000  Uiso   1.00
O786   O     0.68978   0.80723   0.38099   0.00000  Uiso   1.00
C787   C     0.89844   0.95293   0.16787   0.00000  Uiso   1.00
H788   H     0.93771   0.95785   0.15341   0.00000  Uiso   1.00
O789   O     0.88217   0.92765   0.14867   0.00000  Uiso   1.00
C790   C     0.77812   0.71519   0.33646   0.00000  Uiso   1.00
H791   H     0.76379   0.74624   0.33513   0.00000  Uiso   1.00
O792   O     0.77337   0.70226   0.37455   0.00000  Uiso   1.00
N793   N     0.88985   0.70880   0.16621   0.00000  Uiso   1.00
O794   O     0.93602   0.70024   0.14054   0.00000  Uiso   1.00
O795   O     0.86655   0.73545   0.15117   0.00000  Uiso   1.00
N796   N     0.77381   0.95804   0.33366   0.00000  Uiso   1.00
O797   O     0.72764   0.96871   0.35642   0.00000  Uiso   1.00
O798   O     0.79318   0.92957   0.35057   0.00000  Uiso   1.00
C799   C     0.97363   0.76645   0.20465   0.00000  Uiso   1.00
H800   H     0.97997   0.73420   0.21129   0.00000  Uiso   1.00
O801   O     0.95917   0.77382   0.17435   0.00000  Uiso   1.00
C802   C     0.69294   0.90002   0.29559   0.00000  Uiso   1.00
H803   H     0.68694   0.93232   0.28885   0.00000  Uiso   1.00
O804   O     0.70691   0.89243   0.32617   0.00000  Uiso   1.00
N805   N     0.73270   0.76584   0.20937   0.00000  Uiso   1.00
O806   O     0.72426   0.73004   0.23001   0.00000  Uiso   1.00
O807   O     0.76444   0.76738   0.16607   0.00000  Uiso   1.00
N808   N     0.93335   0.90019   0.29191   0.00000  Uiso   1.00
O809   O     0.94119   0.93648   0.27232   0.00000  Uiso   1.00
O810   O     0.90185   0.89764   0.33520   0.00000  Uiso   1.00
O811   O     0.12846   0.22775   0.75001   0.00000  Uiso   1.00
O812   O     0.20488   0.10558   0.75000   0.00000  Uiso   1.00
O813   O     0.20490   0.22774   0.75000   0.00000  Uiso   1.00
O814   O     0.12843   0.10559   0.75000   0.00000  Uiso   1.00
C815   C     0.16627   0.24649   0.75061   0.00000  Uiso   1.00
C816   C     0.16700   0.08694   0.74975   0.00000  Uiso   1.00
O817   O     0.10661   0.16667   0.81613   0.00000  Uiso   1.00
O818   O     0.22672   0.16666   0.68388   0.00000  Uiso   1.00
O819   O     0.18305   0.16666   0.81612   0.00000  Uiso   1.00
O820   O     0.15028   0.16667   0.68388   0.00000  Uiso   1.00
C821   C     0.13558   0.16369   0.83807   0.00000  Uiso   1.00
C822   C     0.19775   0.16891   0.66175   0.00000  Uiso   1.00
Zn823  Zn    0.11562   0.16667   0.75000   0.00000  Uiso   1.00
Zn824  Zn    0.21771   0.16666   0.75000   0.00000  Uiso   1.00
C825   C     0.11549   0.15947   0.88955   0.00000  Uiso   1.00
C826   C     0.21767   0.17169   0.61001   0.00000  Uiso   1.00
C827   C     0.06005   0.19161   0.96264   0.00000  Uiso   1.00
C828   C     0.27471   0.14005   0.53703   0.00000  Uiso   1.00
C829   C     0.06775   0.17436   0.91882   0.00000  Uiso   1.00
C830   C     0.26592   0.15752   0.58109   0.00000  Uiso   1.00
C831   C     0.14849   0.14831   0.90992   0.00000  Uiso   1.00
C832   C     0.18469   0.18152   0.58905   0.00000  Uiso   1.00
C833   C     0.13853   0.16259   0.95619   0.00000  Uiso   1.00
C834   C     0.19660   0.16838   0.54210   0.00000  Uiso   1.00
C835   C     0.09787   0.19078   0.97844   0.00000  Uiso   1.00
C836   C     0.23787   0.14100   0.51991   0.00000  Uiso   1.00
C837   C     0.16961   0.15301   0.97949   0.00000  Uiso   1.00
C838   C     0.16633   0.17825   0.51819   0.00000  Uiso   1.00
C839   C     0.13394   0.21329   0.53106   0.00000  Uiso   1.00
C840   C     0.20270   0.11836   0.96647   0.00000  Uiso   1.00
C841   C     0.09711   0.21788   0.51483   0.00000  Uiso   1.00
C842   C     0.23995   0.11450   0.98257   0.00000  Uiso   1.00
H843   H     0.02458   0.20580   0.98407   0.00000  Uiso   1.00
H844   H     0.31043   0.12595   0.51631   0.00000  Uiso   1.00
H845   H     0.13707   0.23772   0.55392   0.00000  Uiso   1.00
H846   H     0.19970   0.09360   0.94399   0.00000  Uiso   1.00
C847   C     0.19838   0.31059   0.70996   0.00000  Uiso   1.00
C848   C     0.13832   0.02324   0.79243   0.00000  Uiso   1.00
C849   C     0.19713   0.02063   0.70923   0.00000  Uiso   1.00
C850   C     0.13730   0.31303   0.79214   0.00000  Uiso   1.00
C851   C     0.16699   0.04282   0.75038   0.00000  Uiso   1.00
C852   C     0.16661   0.29078   0.75064   0.00000  Uiso   1.00
C853   C     0.31890   0.13422   0.72960   0.00000  Uiso   1.00
C854   C     0.01440   0.19908   0.77045   0.00000  Uiso   1.00
C855   C     0.03305   0.13392   0.73024   0.00000  Uiso   1.00
C856   C     0.30015   0.19928   0.77002   0.00000  Uiso   1.00
N857   N     0.04759   0.16668   0.75001   0.00000  Uiso   1.00
N858   N     0.28574   0.16666   0.74999   0.00000  Uiso   1.00
C859   C     0.06185   0.25380   0.53442   0.00000  Uiso   1.00
H860   H     0.05453   0.26620   0.56925   0.00000  Uiso   1.00
O861   O     0.04270   0.27130   0.51151   0.00000  Uiso   1.00
C862   C     0.27726   0.07990   0.96305   0.00000  Uiso   1.00
H863   H     0.29939   0.06959   0.98123   0.00000  Uiso   1.00
O864   O     0.28349   0.06202   0.92614   0.00000  Uiso   1.00
N865   N     0.13650   0.19891   0.61746   0.00000  Uiso   1.00
O866   O     0.13164   0.23457   0.63980   0.00000  Uiso   1.00
O867   O     0.09738   0.17828   0.62258   0.00000  Uiso   1.00
N868   N     0.19483   0.12816   0.88103   0.00000  Uiso   1.00
O869   O     0.23584   0.14705   0.87272   0.00000  Uiso   1.00
O870   O     0.19580   0.09315   0.85876   0.00000  Uiso   1.00
N871   N     0.30569   0.16015   0.59577   0.00000  Uiso   1.00
O872   O     0.30955   0.19342   0.61849   0.00000  Uiso   1.00
O873   O     0.00982   0.13414   0.57826   0.00000  Uiso   1.00
N874   N     0.02757   0.17294   0.90462   0.00000  Uiso   1.00
O875   O     0.32386   0.19928   0.92295   0.00000  Uiso   1.00
O876   O     0.02311   0.14056   0.88099   0.00000  Uiso   1.00
C877   C     0.23177   0.28626   0.66787   0.00000  Uiso   1.00
H878   H     0.27104   0.29119   0.65341   0.00000  Uiso   1.00
O879   O     0.21550   0.26098   0.64867   0.00000  Uiso   1.00
C880   C     0.11146   0.04852   0.83646   0.00000  Uiso   1.00
H881   H     0.09712   0.07958   0.83513   0.00000  Uiso   1.00
O882   O     0.10670   0.03559   0.87455   0.00000  Uiso   1.00
N883   N     0.22318   0.04214   0.66621   0.00000  Uiso   1.00
O884   O     0.26936   0.03357   0.64054   0.00000  Uiso   1.00
O885   O     0.19988   0.06878   0.65117   0.00000  Uiso   1.00
N886   N     0.10715   0.29138   0.83366   0.00000  Uiso   1.00
O887   O     0.06097   0.30204   0.85642   0.00000  Uiso   1.00
O888   O     0.12652   0.26291   0.85057   0.00000  Uiso   1.00
C889   C     0.30696   0.09978   0.70465   0.00000  Uiso   1.00
H890   H     0.31330   0.06753   0.71129   0.00000  Uiso   1.00
O891   O     0.29250   0.10715   0.67435   0.00000  Uiso   1.00
C892   C     0.02627   0.23335   0.79559   0.00000  Uiso   1.00
H893   H     0.02027   0.26565   0.78885   0.00000  Uiso   1.00
O894   O     0.04024   0.22577   0.82617   0.00000  Uiso   1.00
N895   N     0.06604   0.09918   0.70937   0.00000  Uiso   1.00
O896   O     0.05760   0.06338   0.73001   0.00000  Uiso   1.00
O897   O     0.09777   0.10071   0.66607   0.00000  Uiso   1.00
N898   N     0.26669   0.23353   0.79191   0.00000  Uiso   1.00
O899   O     0.27452   0.26981   0.77232   0.00000  Uiso   1.00
O900   O     0.23518   0.23097   0.83520   0.00000  Uiso   1.00
O901   O     0.46179   0.22775   0.75001   0.00000  Uiso   1.00
O902   O     0.53821   0.10558   0.75000   0.00000  Uiso   1.00
O903   O     0.53823   0.22774   0.75000   0.00000  Uiso   1.00
O904   O     0.46177   0.10559   0.75000   0.00000  Uiso   1.00
C905   C     0.49961   0.24649   0.75061   0.00000  Uiso   1.00
C906   C     0.50034   0.08694   0.74975   0.00000  Uiso   1.00
O907   O     0.43994   0.16667   0.81613   0.00000  Uiso   1.00
O908   O     0.56006   0.16666   0.68388   0.00000  Uiso   1.00
O909   O     0.51639   0.16666   0.81612   0.00000  Uiso   1.00
O910   O     0.48361   0.16667   0.68388   0.00000  Uiso   1.00
C911   C     0.46892   0.16369   0.83807   0.00000  Uiso   1.00
C912   C     0.53108   0.16891   0.66175   0.00000  Uiso   1.00
Zn913  Zn    0.44896   0.16667   0.75000   0.00000  Uiso   1.00
Zn914  Zn    0.55104   0.16666   0.75000   0.00000  Uiso   1.00
C915   C     0.44883   0.15947   0.88955   0.00000  Uiso   1.00
C916   C     0.55100   0.17169   0.61001   0.00000  Uiso   1.00
C917   C     0.39338   0.19161   0.96264   0.00000  Uiso   1.00
C918   C     0.60805   0.14005   0.53703   0.00000  Uiso   1.00
C919   C     0.40108   0.17436   0.91882   0.00000  Uiso   1.00
C920   C     0.59925   0.15752   0.58109   0.00000  Uiso   1.00
C921   C     0.48182   0.14831   0.90992   0.00000  Uiso   1.00
C922   C     0.51803   0.18152   0.58905   0.00000  Uiso   1.00
C923   C     0.47186   0.16259   0.95619   0.00000  Uiso   1.00
C924   C     0.52993   0.16838   0.54210   0.00000  Uiso   1.00
C925   C     0.43120   0.19078   0.97844   0.00000  Uiso   1.00
C926   C     0.57120   0.14100   0.51991   0.00000  Uiso   1.00
C927   C     0.50295   0.15301   0.97949   0.00000  Uiso   1.00
C928   C     0.49966   0.17825   0.51819   0.00000  Uiso   1.00
C929   C     0.46728   0.21329   0.53106   0.00000  Uiso   1.00
C930   C     0.53603   0.11836   0.96647   0.00000  Uiso   1.00
C931   C     0.43044   0.21788   0.51483   0.00000  Uiso   1.00
C932   C     0.57328   0.11450   0.98257   0.00000  Uiso   1.00
H933   H     0.35792   0.20580   0.98407   0.00000  Uiso   1.00
H934   H     0.64376   0.12595   0.51631   0.00000  Uiso   1.00
H935   H     0.47040   0.23772   0.55392   0.00000  Uiso   1.00
H936   H     0.53303   0.09360   0.94399   0.00000  Uiso   1.00
C937   C     0.53172   0.31059   0.70996   0.00000  Uiso   1.00
C938   C     0.47166   0.02324   0.79243   0.00000  Uiso   1.00
C939   C     0.53046   0.02063   0.70923   0.00000  Uiso   1.00
C940   C     0.47063   0.31303   0.79214   0.00000  Uiso   1.00
C941   C     0.50033   0.04282   0.75038   0.00000  Uiso   1.00
C942   C     0.49995   0.29078   0.75064   0.00000  Uiso   1.00
C943   C     0.65223   0.13422   0.72960   0.00000  Uiso   1.00
C944   C     0.34773   0.19908   0.77045   0.00000  Uiso   1.00
C945   C     0.36638   0.13392   0.73024   0.00000  Uiso   1.00
C946   C     0.63348   0.19928   0.77002   0.00000  Uiso   1.00
N947   N     0.38093   0.16668   0.75001   0.00000  Uiso   1.00
N948   N     0.61907   0.16666   0.74999   0.00000  Uiso   1.00
C949   C     0.39519   0.25380   0.53442   0.00000  Uiso   1.00
H950   H     0.38786   0.26620   0.56925   0.00000  Uiso   1.00
O951   O     0.37604   0.27130   0.51151   0.00000  Uiso   1.00
C952   C     0.61059   0.07990   0.96305   0.00000  Uiso   1.00
H953   H     0.63272   0.06959   0.98123   0.00000  Uiso   1.00
O954   O     0.61682   0.06202   0.92614   0.00000  Uiso   1.00
N955   N     0.46983   0.19891   0.61746   0.00000  Uiso   1.00
O956   O     0.46497   0.23457   0.63980   0.00000  Uiso   1.00
O957   O     0.43071   0.17828   0.62258   0.00000  Uiso   1.00
N958   N     0.52816   0.12816   0.88103   0.00000  Uiso   1.00
O959   O     0.56918   0.14705   0.87272   0.00000  Uiso   1.00
O960   O     0.52914   0.09315   0.85876   0.00000  Uiso   1.00
N961   N     0.63902   0.16015   0.59577   0.00000  Uiso   1.00
O962   O     0.64289   0.19342   0.61849   0.00000  Uiso   1.00
O963   O     0.34316   0.13414   0.57826   0.00000  Uiso   1.00
N964   N     0.36090   0.17294   0.90462   0.00000  Uiso   1.00
O965   O     0.65719   0.19928   0.92295   0.00000  Uiso   1.00
O966   O     0.35644   0.14056   0.88099   0.00000  Uiso   1.00
C967   C     0.56511   0.28626   0.66787   0.00000  Uiso   1.00
H968   H     0.60437   0.29119   0.65341   0.00000  Uiso   1.00
O969   O     0.54884   0.26098   0.64867   0.00000  Uiso   1.00
C970   C     0.44479   0.04852   0.83646   0.00000  Uiso   1.00
H971   H     0.43046   0.07958   0.83513   0.00000  Uiso   1.00
O972   O     0.44003   0.03559   0.87455   0.00000  Uiso   1.00
N973   N     0.55651   0.04214   0.66621   0.00000  Uiso   1.00
O974   O     0.60269   0.03357   0.64054   0.00000  Uiso   1.00
O975   O     0.53322   0.06878   0.65117   0.00000  Uiso   1.00
N976   N     0.44048   0.29138   0.83366   0.00000  Uiso   1.00
O977   O     0.39431   0.30204   0.85642   0.00000  Uiso   1.00
O978   O     0.45985   0.26291   0.85057   0.00000  Uiso   1.00
C979   C     0.64029   0.09978   0.70465   0.00000  Uiso   1.00
H980   H     0.64663   0.06753   0.71129   0.00000  Uiso   1.00
O981   O     0.62584   0.10715   0.67435   0.00000  Uiso   1.00
C982   C     0.35960   0.23335   0.79559   0.00000  Uiso   1.00
H983   H     0.35361   0.26565   0.78885   0.00000  Uiso   1.00
O984   O     0.37357   0.22577   0.82617   0.00000  Uiso   1.00
N985   N     0.39937   0.09918   0.70937   0.00000  Uiso   1.00
O986   O     0.39093   0.06338   0.73001   0.00000  Uiso   1.00
O987   O     0.43110   0.10071   0.66607   0.00000  Uiso   1.00
N988   N     0.60002   0.23353   0.79191   0.00000  Uiso   1.00
O989   O     0.60785   0.26981   0.77232   0.00000  Uiso   1.00
O990   O     0.56851   0.23097   0.83520   0.00000  Uiso   1.00
O991   O     0.79512   0.22775   0.75001   0.00000  Uiso   1.00
O992   O     0.87154   0.10558   0.75000   0.00000  Uiso   1.00
O993   O     0.87157   0.22774   0.75000   0.00000  Uiso   1.00
O994   O     0.79510   0.10559   0.75000   0.00000  Uiso   1.00
C995   C     0.83294   0.24649   0.75061   0.00000  Uiso   1.00
C996   C     0.83367   0.08694   0.74975   0.00000  Uiso   1.00
O997   O     0.77328   0.16667   0.81613   0.00000  Uiso   1.00
O998   O     0.89339   0.16666   0.68388   0.00000  Uiso   1.00
O999   O     0.84972   0.16666   0.81612   0.00000  Uiso   1.00
O1000  O     0.81695   0.16667   0.68388   0.00000  Uiso   1.00
C1001  C     0.80225   0.16369   0.83807   0.00000  Uiso   1.00
C1002  C     0.86441   0.16891   0.66175   0.00000  Uiso   1.00
Zn1003 Zn    0.78229   0.16667   0.75000   0.00000  Uiso   1.00
Zn1004 Zn    0.88438   0.16666   0.75000   0.00000  Uiso   1.00
C1005  C     0.78216   0.15947   0.88955   0.00000  Uiso   1.00
C1006  C     0.88433   0.17169   0.61001   0.00000  Uiso   1.00
C1007  C     0.72671   0.19161   0.96264   0.00000  Uiso   1.00
C1008  C     0.94138   0.14005   0.53703   0.00000  Uiso   1.00
C1009  C     0.73442   0.17436   0.91882   0.00000  Uiso   1.00
C1010  C     0.93259   0.15752   0.58109   0.00000  Uiso   1.00
C1011  C     0.81516   0.14831   0.90992   0.00000  Uiso   1.00
C1012  C     0.85136   0.18152   0.58905   0.00000  Uiso   1.00
C1013  C     0.80519   0.16259   0.95619   0.00000  Uiso   1.00
C1014  C     0.86326   0.16838   0.54210   0.00000  Uiso   1.00
C1015  C     0.76454   0.19078   0.97844   0.00000  Uiso   1.00
C1016  C     0.90454   0.14100   0.51991   0.00000  Uiso   1.00
C1017  C     0.83628   0.15301   0.97949   0.00000  Uiso   1.00
C1018  C     0.83299   0.17825   0.51819   0.00000  Uiso   1.00
C1019  C     0.80061   0.21329   0.53106   0.00000  Uiso   1.00
C1020  C     0.86936   0.11836   0.96647   0.00000  Uiso   1.00
C1021  C     0.76377   0.21788   0.51483   0.00000  Uiso   1.00
C1022  C     0.90661   0.11450   0.98257   0.00000  Uiso   1.00
H1023  H     0.69125   0.20580   0.98407   0.00000  Uiso   1.00
H1024  H     0.97710   0.12595   0.51631   0.00000  Uiso   1.00
H1025  H     0.80374   0.23772   0.55392   0.00000  Uiso   1.00
H1026  H     0.86637   0.09360   0.94399   0.00000  Uiso   1.00
C1027  C     0.86505   0.31059   0.70996   0.00000  Uiso   1.00
C1028  C     0.80499   0.02324   0.79243   0.00000  Uiso   1.00
C1029  C     0.86380   0.02063   0.70923   0.00000  Uiso   1.00
C1030  C     0.80397   0.31303   0.79214   0.00000  Uiso   1.00
C1031  C     0.83366   0.04282   0.75038   0.00000  Uiso   1.00
C1032  C     0.83328   0.29078   0.75064   0.00000  Uiso   1.00
C1033  C     0.98557   0.13422   0.72960   0.00000  Uiso   1.00
C1034  C     0.68106   0.19908   0.77045   0.00000  Uiso   1.00
C1035  C     0.69972   0.13392   0.73024   0.00000  Uiso   1.00
C1036  C     0.96681   0.19928   0.77002   0.00000  Uiso   1.00
N1037  N     0.71426   0.16668   0.75001   0.00000  Uiso   1.00
N1038  N     0.95241   0.16666   0.74999   0.00000  Uiso   1.00
C1039  C     0.72852   0.25380   0.53442   0.00000  Uiso   1.00
H1040  H     0.72120   0.26620   0.56925   0.00000  Uiso   1.00
O1041  O     0.70937   0.27130   0.51151   0.00000  Uiso   1.00
C1042  C     0.94392   0.07990   0.96305   0.00000  Uiso   1.00
H1043  H     0.96606   0.06959   0.98123   0.00000  Uiso   1.00
O1044  O     0.95016   0.06202   0.92614   0.00000  Uiso   1.00
N1045  N     0.80316   0.19891   0.61746   0.00000  Uiso   1.00
O1046  O     0.79831   0.23457   0.63980   0.00000  Uiso   1.00
O1047  O     0.76405   0.17828   0.62258   0.00000  Uiso   1.00
N1048  N     0.86150   0.12816   0.88103   0.00000  Uiso   1.00
O1049  O     0.90251   0.14705   0.87272   0.00000  Uiso   1.00
O1050  O     0.86247   0.09315   0.85876   0.00000  Uiso   1.00
N1051  N     0.97236   0.16015   0.59577   0.00000  Uiso   1.00
O1052  O     0.97622   0.19342   0.61849   0.00000  Uiso   1.00
O1053  O     0.67649   0.13414   0.57826   0.00000  Uiso   1.00
N1054  N     0.69423   0.17294   0.90462   0.00000  Uiso   1.00
O1055  O     0.99053   0.19928   0.92295   0.00000  Uiso   1.00
O1056  O     0.68978   0.14056   0.88099   0.00000  Uiso   1.00
C1057  C     0.89844   0.28626   0.66787   0.00000  Uiso   1.00
H1058  H     0.93771   0.29119   0.65341   0.00000  Uiso   1.00
O1059  O     0.88217   0.26098   0.64867   0.00000  Uiso   1.00
C1060  C     0.77812   0.04852   0.83646   0.00000  Uiso   1.00
H1061  H     0.76379   0.07958   0.83513   0.00000  Uiso   1.00
O1062  O     0.77337   0.03559   0.87455   0.00000  Uiso   1.00
N1063  N     0.88985   0.04214   0.66621   0.00000  Uiso   1.00
O1064  O     0.93602   0.03357   0.64054   0.00000  Uiso   1.00
O1065  O     0.86655   0.06878   0.65117   0.00000  Uiso   1.00
N1066  N     0.77381   0.29138   0.83366   0.00000  Uiso   1.00
O1067  O     0.72764   0.30204   0.85642   0.00000  Uiso   1.00
O1068  O     0.79318   0.26291   0.85057   0.00000  Uiso   1.00
C1069  C     0.97363   0.09978   0.70465   0.00000  Uiso   1.00
H1070  H     0.97997   0.06753   0.71129   0.00000  Uiso   1.00
O1071  O     0.95917   0.10715   0.67435   0.00000  Uiso   1.00
C1072  C     0.69294   0.23335   0.79559   0.00000  Uiso   1.00
H1073  H     0.68694   0.26565   0.78885   0.00000  Uiso   1.00
O1074  O     0.70691   0.22577   0.82617   0.00000  Uiso   1.00
N1075  N     0.73270   0.09918   0.70937   0.00000  Uiso   1.00
O1076  O     0.72426   0.06338   0.73001   0.00000  Uiso   1.00
O1077  O     0.76444   0.10071   0.66607   0.00000  Uiso   1.00
N1078  N     0.93335   0.23353   0.79191   0.00000  Uiso   1.00
O1079  O     0.94119   0.26981   0.77232   0.00000  Uiso   1.00
O1080  O     0.90185   0.23097   0.83520   0.00000  Uiso   1.00
O1081  O     0.12846   0.56108   0.75001   0.00000  Uiso   1.00
O1082  O     0.20488   0.43892   0.75000   0.00000  Uiso   1.00
O1083  O     0.20490   0.56107   0.75000   0.00000  Uiso   1.00
O1084  O     0.12843   0.43893   0.75000   0.00000  Uiso   1.00
C1085  C     0.16627   0.57982   0.75061   0.00000  Uiso   1.00
C1086  C     0.16700   0.42027   0.74975   0.00000  Uiso   1.00
O1087  O     0.10661   0.50001   0.81613   0.00000  Uiso   1.00
O1088  O     0.22672   0.49999   0.68388   0.00000  Uiso   1.00
O1089  O     0.18305   0.50000   0.81612   0.00000  Uiso   1.00
O1090  O     0.15028   0.50000   0.68388   0.00000  Uiso   1.00
C1091  C     0.13558   0.49702   0.83807   0.00000  Uiso   1.00
C1092  C     0.19775   0.50224   0.66175   0.00000  Uiso   1.00
Zn1093 Zn    0.11562   0.50001   0.75000   0.00000  Uiso   1.00
Zn1094 Zn    0.21771   0.49999   0.75000   0.00000  Uiso   1.00
C1095  C     0.11549   0.49280   0.88955   0.00000  Uiso   1.00
C1096  C     0.21767   0.50502   0.61001   0.00000  Uiso   1.00
C1097  C     0.06005   0.52494   0.96264   0.00000  Uiso   1.00
C1098  C     0.27471   0.47339   0.53703   0.00000  Uiso   1.00
C1099  C     0.06775   0.50769   0.91882   0.00000  Uiso   1.00
C1100  C     0.26592   0.49085   0.58109   0.00000  Uiso   1.00
C1101  C     0.14849   0.48165   0.90992   0.00000  Uiso   1.00
C1102  C     0.18469   0.51485   0.58905   0.00000  Uiso   1.00
C1103  C     0.13853   0.49592   0.95619   0.00000  Uiso   1.00
C1104  C     0.19660   0.50172   0.54210   0.00000  Uiso   1.00
C1105  C     0.09787   0.52412   0.97844   0.00000  Uiso   1.00
C1106  C     0.23787   0.47433   0.51991   0.00000  Uiso   1.00
C1107  C     0.16961   0.48635   0.97949   0.00000  Uiso   1.00
C1108  C     0.16633   0.51158   0.51819   0.00000  Uiso   1.00
C1109  C     0.13394   0.54662   0.53106   0.00000  Uiso   1.00
C1110  C     0.20270   0.45169   0.96647   0.00000  Uiso   1.00
C1111  C     0.09711   0.55121   0.51483   0.00000  Uiso   1.00
C1112  C     0.23995   0.44784   0.98257   0.00000  Uiso   1.00
H1113  H     0.02458   0.53913   0.98407   0.00000  Uiso   1.00
H1114  H     0.31043   0.45929   0.51631   0.00000  Uiso   1.00
H1115  H     0.13707   0.57105   0.55392   0.00000  Uiso   1.00
H1116  H     0.19970   0.42693   0.94399   0.00000  Uiso   1.00
C1117  C     0.19838   0.64392   0.70996   0.00000  Uiso   1.00
C1118  C     0.13832   0.35657   0.79243   0.00000  Uiso   1.00
C1119  C     0.19713   0.35396   0.70923   0.00000  Uiso   1.00
C1120  C     0.13730   0.64636   0.79214   0.00000  Uiso   1.00
C1121  C     0.16699   0.37615   0.75038   0.00000  Uiso   1.00
C1122  C     0.16661   0.62411   0.75064   0.00000  Uiso   1.00
C1123  C     0.31890   0.46755   0.72960   0.00000  Uiso   1.00
C1124  C     0.01440   0.53242   0.77045   0.00000  Uiso   1.00
C1125  C     0.03305   0.46726   0.73024   0.00000  Uiso   1.00
C1126  C     0.30015   0.53262   0.77002   0.00000  Uiso   1.00
N1127  N     0.04759   0.50001   0.75001   0.00000  Uiso   1.00
N1128  N     0.28574   0.49999   0.74999   0.00000  Uiso   1.00
C1129  C     0.06185   0.58713   0.53442   0.00000  Uiso   1.00
H1130  H     0.05453   0.59953   0.56925   0.00000  Uiso   1.00
O1131  O     0.04270   0.60463   0.51151   0.00000  Uiso   1.00
C1132  C     0.27726   0.41323   0.96305   0.00000  Uiso   1.00
H1133  H     0.29939   0.40293   0.98123   0.00000  Uiso   1.00
O1134  O     0.28349   0.39535   0.92614   0.00000  Uiso   1.00
N1135  N     0.13650   0.53225   0.61746   0.00000  Uiso   1.00
O1136  O     0.13164   0.56790   0.63980   0.00000  Uiso   1.00
O1137  O     0.09738   0.51162   0.62258   0.00000  Uiso   1.00
N1138  N     0.19483   0.46149   0.88103   0.00000  Uiso   1.00
O1139  O     0.23584   0.48038   0.87272   0.00000  Uiso   1.00
O1140  O     0.19580   0.42649   0.85876   0.00000  Uiso   1.00
N1141  N     0.30569   0.49348   0.59577   0.00000  Uiso   1.00
O1142  O     0.30955   0.52675   0.61849   0.00000  Uiso   1.00
O1143  O     0.00982   0.46747   0.57826   0.00000  Uiso   1.00
N1144  N     0.02757   0.50627   0.90462   0.00000  Uiso   1.00
O1145  O     0.32386   0.53262   0.92295   0.00000  Uiso   1.00
O1146  O     0.02311   0.47389   0.88099   0.00000  Uiso   1.00
C1147  C     0.23177   0.61959   0.66787   0.00000  Uiso   1.00
H1148  H     0.27104   0.62452   0.65341   0.00000  Uiso   1.00
O1149  O     0.21550   0.59431   0.64867   0.00000  Uiso   1.00
C1150  C     0.11146   0.38186   0.83646   0.00000  Uiso   1.00
H1151  H     0.09712   0.41291   0.83513   0.00000  Uiso   1.00
O1152  O     0.10670   0.36892   0.87455   0.00000  Uiso   1.00
N1153  N     0.22318   0.37547   0.66621   0.00000  Uiso   1.00
O1154  O     0.26936   0.36691   0.64054   0.00000  Uiso   1.00
O1155  O     0.19988   0.40212   0.65117   0.00000  Uiso   1.00
N1156  N     0.10715   0.62471   0.83366   0.00000  Uiso   1.00
O1157  O     0.06097   0.63538   0.85642   0.00000  Uiso   1.00
O1158  O     0.12652   0.59624   0.85057   0.00000  Uiso   1.00
C1159  C     0.30696   0.43311   0.70465   0.00000  Uiso   1.00
H1160  H     0.31330   0.40087   0.71129   0.00000  Uiso   1.00
O1161  O     0.29250   0.44048   0.67435   0.00000  Uiso   1.00
C1162  C     0.02627   0.56669   0.79559   0.00000  Uiso   1.00
H1163  H     0.02027   0.59898   0.78885   0.00000  Uiso   1.00
O1164  O     0.04024   0.55910   0.82617   0.00000  Uiso   1.00
N1165  N     0.06604   0.43251   0.70937   0.00000  Uiso   1.00
O1166  O     0.05760   0.39671   0.73001   0.00000  Uiso   1.00
O1167  O     0.09777   0.43405   0.66607   0.00000  Uiso   1.00
N1168  N     0.26669   0.56686   0.79191   0.00000  Uiso   1.00
O1169  O     0.27452   0.60314   0.77232   0.00000  Uiso   1.00
O1170  O     0.23518   0.56431   0.83520   0.00000  Uiso   1.00
O1171  O     0.46179   0.56108   0.75001   0.00000  Uiso   1.00
O1172  O     0.53821   0.43892   0.75000   0.00000  Uiso   1.00
O1173  O     0.53823   0.56107   0.75000   0.00000  Uiso   1.00
O1174  O     0.46177   0.43893   0.75000   0.00000  Uiso   1.00
C1175  C     0.49961   0.57982   0.75061   0.00000  Uiso   1.00
C1176  C     0.50034   0.42027   0.74975   0.00000  Uiso   1.00
O1177  O     0.43994   0.50001   0.81613   0.00000  Uiso   1.00
O1178  O     0.56006   0.49999   0.68388   0.00000  Uiso   1.00
O1179  O     0.51639   0.50000   0.81612   0.00000  Uiso   1.00
O1180  O     0.48361   0.50000   0.68388   0.00000  Uiso   1.00
C1181  C     0.46892   0.49702   0.83807   0.00000  Uiso   1.00
C1182  C     0.53108   0.50224   0.66175   0.00000  Uiso   1.00
Zn1183 Zn    0.44896   0.50001   0.75000   0.00000  Uiso   1.00
Zn1184 Zn    0.55104   0.49999   0.75000   0.00000  Uiso   1.00
C1185  C     0.44883   0.49280   0.88955   0.00000  Uiso   1.00
C1186  C     0.55100   0.50502   0.61001   0.00000  Uiso   1.00
C1187  C     0.39338   0.52494   0.96264   0.00000  Uiso   1.00
C1188  C     0.60805   0.47339   0.53703   0.00000  Uiso   1.00
C1189  C     0.40108   0.50769   0.91882   0.00000  Uiso   1.00
C1190  C     0.59925   0.49085   0.58109   0.00000  Uiso   1.00
C1191  C     0.48182   0.48165   0.90992   0.00000  Uiso   1.00
C1192  C     0.51803   0.51485   0.58905   0.00000  Uiso   1.00
C1193  C     0.47186   0.49592   0.95619   0.00000  Uiso   1.00
C1194  C     0.52993   0.50172   0.54210   0.00000  Uiso   1.00
C1195  C     0.43120   0.52412   0.97844   0.00000  Uiso   1.00
C1196  C     0.57120   0.47433   0.51991   0.00000  Uiso   1.00
C1197  C     0.50295   0.48635   0.97949   0.00000  Uiso   1.00
C1198  C     0.49966   0.51158   0.51819   0.00000  Uiso   1.00
C1199  C     0.46728   0.54662   0.53106   0.00000  Uiso   1.00
C1200  C     0.53603   0.45169   0.96647   0.00000  Uiso   1.00
C1201  C     0.43044   0.55121   0.51483   0.00000  Uiso   1.00
C1202  C     0.57328   0.44784   0.98257   0.00000  Uiso   1.00
H1203  H     0.35792   0.53913   0.98407   0.00000  Uiso   1.00
H1204  H     0.64376   0.45929   0.51631   0.00000  Uiso   1.00
H1205  H     0.47040   0.57105   0.55392   0.00000  Uiso   1.00
H1206  H     0.53303   0.42693   0.94399   0.00000  Uiso   1.00
C1207  C     0.53172   0.64392   0.70996   0.00000  Uiso   1.00
C1208  C     0.47166   0.35657   0.79243   0.00000  Uiso   1.00
C1209  C     0.53046   0.35396   0.70923   0.00000  Uiso   1.00
C1210  C     0.47063   0.64636   0.79214   0.00000  Uiso   1.00
C1211  C     0.50033   0.37615   0.75038   0.00000  Uiso   1.00
C1212  C     0.49995   0.62411   0.75064   0.00000  Uiso   1.00
C1213  C     0.65223   0.46755   0.72960   0.00000  Uiso   1.00
C1214  C     0.34773   0.53242   0.77045   0.00000  Uiso   1.00
C1215  C     0.36638   0.46726   0.73024   0.00000  Uiso   1.00
C1216  C     0.63348   0.53262   0.77002   0.00000  Uiso   1.00
N1217  N     0.38093   0.50001   0.75001   0.00000  Uiso   1.00
N1218  N     0.61907   0.49999   0.74999   0.00000  Uiso   1.00
C1219  C     0.39519   0.58713   0.53442   0.00000  Uiso   1.00
H1220  H     0.38786   0.59953   0.56925   0.00000  Uiso   1.00
O1221  O     0.37604   0.60463   0.51151   0.00000  Uiso   1.00
C1222  C     0.61059   0.41323   0.96305   0.00000  Uiso   1.00
H1223  H     0.63272   0.40293   0.98123   0.00000  Uiso   1.00
O1224  O     0.61682   0.39535   0.92614   0.00000  Uiso   1.00
N1225  N     0.46983   0.53225   0.61746   0.00000  Uiso   1.00
O1226  O     0.46497   0.56790   0.63980   0.00000  Uiso   1.00
O1227  O     0.43071   0.51162   0.62258   0.00000  Uiso   1.00
N1228  N     0.52816   0.46149   0.88103   0.00000  Uiso   1.00
O1229  O     0.56918   0.48038   0.87272   0.00000  Uiso   1.00
O1230  O     0.52914   0.42649   0.85876   0.00000  Uiso   1.00
N1231  N     0.63902   0.49348   0.59577   0.00000  Uiso   1.00
O1232  O     0.64289   0.52675   0.61849   0.00000  Uiso   1.00
O1233  O     0.34316   0.46747   0.57826   0.00000  Uiso   1.00
N1234  N     0.36090   0.50627   0.90462   0.00000  Uiso   1.00
O1235  O     0.65719   0.53262   0.92295   0.00000  Uiso   1.00
O1236  O     0.35644   0.47389   0.88099   0.00000  Uiso   1.00
C1237  C     0.56511   0.61959   0.66787   0.00000  Uiso   1.00
H1238  H     0.60437   0.62452   0.65341   0.00000  Uiso   1.00
O1239  O     0.54884   0.59431   0.64867   0.00000  Uiso   1.00
C1240  C     0.44479   0.38186   0.83646   0.00000  Uiso   1.00
H1241  H     0.43046   0.41291   0.83513   0.00000  Uiso   1.00
O1242  O     0.44003   0.36892   0.87455   0.00000  Uiso   1.00
N1243  N     0.55651   0.37547   0.66621   0.00000  Uiso   1.00
O1244  O     0.60269   0.36691   0.64054   0.00000  Uiso   1.00
O1245  O     0.53322   0.40212   0.65117   0.00000  Uiso   1.00
N1246  N     0.44048   0.62471   0.83366   0.00000  Uiso   1.00
O1247  O     0.39431   0.63538   0.85642   0.00000  Uiso   1.00
O1248  O     0.45985   0.59624   0.85057   0.00000  Uiso   1.00
C1249  C     0.64029   0.43311   0.70465   0.00000  Uiso   1.00
H1250  H     0.64663   0.40087   0.71129   0.00000  Uiso   1.00
O1251  O     0.62584   0.44048   0.67435   0.00000  Uiso   1.00
C1252  C     0.35960   0.56669   0.79559   0.00000  Uiso   1.00
H1253  H     0.35361   0.59898   0.78885   0.00000  Uiso   1.00
O1254  O     0.37357   0.55910   0.82617   0.00000  Uiso   1.00
N1255  N     0.39937   0.43251   0.70937   0.00000  Uiso   1.00
O1256  O     0.39093   0.39671   0.73001   0.00000  Uiso   1.00
O1257  O     0.43110   0.43405   0.66607   0.00000  Uiso   1.00
N1258  N     0.60002   0.56686   0.79191   0.00000  Uiso   1.00
O1259  O     0.60785   0.60314   0.77232   0.00000  Uiso   1.00
O1260  O     0.56851   0.56431   0.83520   0.00000  Uiso   1.00
O1261  O     0.79512   0.56108   0.75001   0.00000  Uiso   1.00
O1262  O     0.87154   0.43892   0.75000   0.00000  Uiso   1.00
O1263  O     0.87157   0.56107   0.75000   0.00000  Uiso   1.00
O1264  O     0.79510   0.43893   0.75000   0.00000  Uiso   1.00
C1265  C     0.83294   0.57982   0.75061   0.00000  Uiso   1.00
C1266  C     0.83367   0.42027   0.74975   0.00000  Uiso   1.00
O1267  O     0.77328   0.50001   0.81613   0.00000  Uiso   1.00
O1268  O     0.89339   0.49999   0.68388   0.00000  Uiso   1.00
O1269  O     0.84972   0.50000   0.81612   0.00000  Uiso   1.00
O1270  O     0.81695   0.50000   0.68388   0.00000  Uiso   1.00
C1271  C     0.80225   0.49702   0.83807   0.00000  Uiso   1.00
C1272  C     0.86441   0.50224   0.66175   0.00000  Uiso   1.00
Zn1273 Zn    0.78229   0.50001   0.75000   0.00000  Uiso   1.00
Zn1274 Zn    0.88438   0.49999   0.75000   0.00000  Uiso   1.00
C1275  C     0.78216   0.49280   0.88955   0.00000  Uiso   1.00
C1276  C     0.88433   0.50502   0.61001   0.00000  Uiso   1.00
C1277  C     0.72671   0.52494   0.96264   0.00000  Uiso   1.00
C1278  C     0.94138   0.47339   0.53703   0.00000  Uiso   1.00
C1279  C     0.73442   0.50769   0.91882   0.00000  Uiso   1.00
C1280  C     0.93259   0.49085   0.58109   0.00000  Uiso   1.00
C1281  C     0.81516   0.48165   0.90992   0.00000  Uiso   1.00
C1282  C     0.85136   0.51485   0.58905   0.00000  Uiso   1.00
C1283  C     0.80519   0.49592   0.95619   0.00000  Uiso   1.00
C1284  C     0.86326   0.50172   0.54210   0.00000  Uiso   1.00
C1285  C     0.76454   0.52412   0.97844   0.00000  Uiso   1.00
C1286  C     0.90454   0.47433   0.51991   0.00000  Uiso   1.00
C1287  C     0.83628   0.48635   0.97949   0.00000  Uiso   1.00
C1288  C     0.83299   0.51158   0.51819   0.00000  Uiso   1.00
C1289  C     0.80061   0.54662   0.53106   0.00000  Uiso   1.00
C1290  C     0.86936   0.45169   0.96647   0.00000  Uiso   1.00
C1291  C     0.76377   0.55121   0.51483   0.00000  Uiso   1.00
C1292  C     0.90661   0.44784   0.98257   0.00000  Uiso   1.00
H1293  H     0.69125   0.53913   0.98407   0.00000  Uiso   1.00
H1294  H     0.97710   0.45929   0.51631   0.00000  Uiso   1.00
H1295  H     0.80374   0.57105   0.55392   0.00000  Uiso   1.00
H1296  H     0.86637   0.42693   0.94399   0.00000  Uiso   1.00
C1297  C     0.86505   0.64392   0.70996   0.00000  Uiso   1.00
C1298  C     0.80499   0.35657   0.79243   0.00000  Uiso   1.00
C1299  C     0.86380   0.35396   0.70923   0.00000  Uiso   1.00
C1300  C     0.80397   0.64636   0.79214   0.00000  Uiso   1.00
C1301  C     0.83366   0.37615   0.75038   0.00000  Uiso   1.00
C1302  C     0.83328   0.62411   0.75064   0.00000  Uiso   1.00
C1303  C     0.98557   0.46755   0.72960   0.00000  Uiso   1.00
C1304  C     0.68106   0.53242   0.77045   0.00000  Uiso   1.00
C1305  C     0.69972   0.46726   0.73024   0.00000  Uiso   1.00
C1306  C     0.96681   0.53262   0.77002   0.00000  Uiso   1.00
N1307  N     0.71426   0.50001   0.75001   0.00000  Uiso   1.00
N1308  N     0.95241   0.49999   0.74999   0.00000  Uiso   1.00
C1309  C     0.72852   0.58713   0.53442   0.00000  Uiso   1.00
H1310  H     0.72120   0.59953   0.56925   0.00000  Uiso   1.00
O1311  O     0.70937   0.60463   0.51151   0.00000  Uiso   1.00
C1312  C     0.94392   0.41323   0.96305   0.00000  Uiso   1.00
H1313  H     0.96606   0.40293   0.98123   0.00000  Uiso   1.00
O1314  O     0.95016   0.39535   0.92614   0.00000  Uiso   1.00
N1315  N     0.80316   0.53225   0.61746   0.00000  Uiso   1.00
O1316  O     0.79831   0.56790   0.63980   0.00000  Uiso   1.00
O1317  O     0.76405   0.51162   0.62258   0.00000  Uiso   1.00
N1318  N     0.86150   0.46149   0.88103   0.00000  Uiso   1.00
O1319  O     0.90251   0.48038   0.87272   0.00000  Uiso   1.00
O1320  O     0.86247   0.42649   0.85876   0.00000  Uiso   1.00
N1321  N     0.97236   0.49348   0.59577   0.00000  Uiso   1.00
O1322  O     0.97622   0.52675   0.61849   0.00000  Uiso   1.00
O1323  O     0.67649   0.46747   0.57826   0.00000  Uiso   1.00
N1324  N     0.69423   0.50627   0.90462   0.00000  Uiso   1.00
O1325  O     0.99053   0.53262   0.92295   0.00000  Uiso   1.00
O1326  O     0.68978   0.47389   0.88099   0.00000  Uiso   1.00
C1327  C     0.89844   0.61959   0.66787   0.00000  Uiso   1.00
H1328  H     0.93771   0.62452   0.65341   0.00000  Uiso   1.00
O1329  O     0.88217   0.59431   0.64867   0.00000  Uiso   1.00
C1330  C     0.77812   0.38186   0.83646   0.00000  Uiso   1.00
H1331  H     0.76379   0.41291   0.83513   0.00000  Uiso   1.00
O1332  O     0.77337   0.36892   0.87455   0.00000  Uiso   1.00
N1333  N     0.88985   0.37547   0.66621   0.00000  Uiso   1.00
O1334  O     0.93602   0.36691   0.64054   0.00000  Uiso   1.00
O1335  O     0.86655   0.40212   0.65117   0.00000  Uiso   1.00
N1336  N     0.77381   0.62471   0.83366   0.00000  Uiso   1.00
O1337  O     0.72764   0.63538   0.85642   0.00000  Uiso   1.00
O1338  O     0.79318   0.59624   0.85057   0.00000  Uiso   1.00
C1339  C     0.97363   0.43311   0.70465   0.00000  Uiso   1.00
H1340  H     0.97997   0.40087   0.71129   0.00000  Uiso   1.00
O1341  O     0.95917   0.44048   0.67435   0.00000  Uiso   1.00
C1342  C     0.69294   0.56669   0.79559   0.00000  Uiso   1.00
H1343  H     0.68694   0.59898   0.78885   0.00000  Uiso   1.00
O1344  O     0.70691   0.55910   0.82617   0.00000  Uiso   1.00
N1345  N     0.73270   0.43251   0.70937   0.00000  Uiso   1.00
O1346  O     0.72426   0.39671   0.73001   0.00000  Uiso   1.00
O1347  O     0.76444   0.43405   0.66607   0.00000  Uiso   1.00
N1348  N     0.93335   0.56686   0.79191   0.00000  Uiso   1.00
O1349  O     0.94119   0.60314   0.77232   0.00000  Uiso   1.00
O1350  O     0.90185   0.56431   0.83520   0.00000  Uiso   1.00
O1351  O     0.12846   0.89442   0.75001   0.00000  Uiso   1.00
O1352  O     0.20488   0.77225   0.75000   0.00000  Uiso   1.00
O1353  O     0.20490   0.89441   0.75000   0.00000  Uiso   1.00
O1354  O     0.12843   0.77226   0.75000   0.00000  Uiso   1.00
C1355  C     0.16627   0.91315   0.75061   0.00000  Uiso   1.00
C1356  C     0.16700   0.75361   0.74975   0.00000  Uiso   1.00
O1357  O     0.10661   0.83334   0.81613   0.00000  Uiso   1.00
O1358  O     0.22672   0.83333   0.68388   0.00000  Uiso   1.00
O1359  O     0.18305   0.83333   0.81612   0.00000  Uiso   1.00
O1360  O     0.15028   0.83334   0.68388   0.00000  Uiso   1.00
C1361  C     0.13558   0.83036   0.83807   0.00000  Uiso   1.00
C1362  C     0.19775   0.83557   0.66175   0.00000  Uiso   1.00
Zn1363 Zn    0.11562   0.83334   0.75000   0.00000  Uiso   1.00
Zn1364 Zn    0.21771   0.83333   0.75000   0.00000  Uiso   1.00
C1365  C     0.11549   0.82614   0.88955   0.00000  Uiso   1.00
C1366  C     0.21767   0.83835   0.61001   0.00000  Uiso   1.00
C1367  C     0.06005   0.85828   0.96264   0.00000  Uiso   1.00
C1368  C     0.27471   0.80672   0.53703   0.00000  Uiso   1.00
C1369  C     0.06775   0.84103   0.91882   0.00000  Uiso   1.00
C1370  C     0.26592   0.82419   0.58109   0.00000  Uiso   1.00
C1371  C     0.14849   0.81498   0.90992   0.00000  Uiso   1.00
C1372  C     0.18469   0.84819   0.58905   0.00000  Uiso   1.00
C1373  C     0.13853   0.82925   0.95619   0.00000  Uiso   1.00
C1374  C     0.19660   0.83505   0.54210   0.00000  Uiso   1.00
C1375  C     0.09787   0.85745   0.97844   0.00000  Uiso   1.00
C1376  C     0.23787   0.80767   0.51991   0.00000  Uiso   1.00
C1377  C     0.16961   0.81968   0.97949   0.00000  Uiso   1.00
C1378  C     0.16633   0.84491   0.51819   0.00000  Uiso   1.00
C1379  C     0.13394   0.87996   0.53106   0.00000  Uiso   1.00
C1380  C     0.20270   0.78503   0.96647   0.00000  Uiso   1.00
C1381  C     0.09711   0.88455   0.51483   0.00000  Uiso   1.00
C1382  C     0.23995   0.78117   0.98257   0.00000  Uiso   1.00
H1383  H     0.02458   0.87247   0.98407   0.00000  Uiso   1.00
H1384  H     0.31043   0.79262   0.51631   0.00000  Uiso   1.00
H1385  H     0.13707   0.90439   0.55392   0.00000  Uiso   1.00
H1386  H     0.19970   0.76026   0.94399   0.00000  Uiso   1.00
C1387  C     0.19838   0.97725   0.70996   0.00000  Uiso   1.00
C1388  C     0.13832   0.68991   0.79243   0.00000  Uiso   1.00
C1389  C     0.19713   0.68729   0.70923   0.00000  Uiso   1.00
C1390  C     0.13730   0.97970   0.79214   0.00000  Uiso   1.00
C1391  C     0.16699   0.70948   0.75038   0.00000  Uiso   1.00
C1392  C     0.16661   0.95745   0.75064   0.00000  Uiso   1.00
C1393  C     0.31890   0.80088   0.72960   0.00000  Uiso   1.00
C1394  C     0.01440   0.86575   0.77045   0.00000  Uiso   1.00
C1395  C     0.03305   0.80059   0.73024   0.00000  Uiso   1.00
C1396  C     0.30015   0.86595   0.77002   0.00000  Uiso   1.00
N1397  N     0.04759   0.83334   0.75001   0.00000  Uiso   1.00
N1398  N     0.28574   0.83332   0.74999   0.00000  Uiso   1.00
C1399  C     0.06185   0.92047   0.53442   0.00000  Uiso   1.00
H1400  H     0.05453   0.93287   0.56925   0.00000  Uiso   1.00
O1401  O     0.04270   0.93796   0.51151   0.00000  Uiso   1.00
C1402  C     0.27726   0.74657   0.96305   0.00000  Uiso   1.00
H1403  H     0.29939   0.73626   0.98123   0.00000  Uiso   1.00
O1404  O     0.28349   0.72869   0.92614   0.00000  Uiso   1.00
N1405  N     0.13650   0.86558   0.61746   0.00000  Uiso   1.00
O1406  O     0.13164   0.90123   0.63980   0.00000  Uiso   1.00
O1407  O     0.09738   0.84495   0.62258   0.00000  Uiso   1.00
N1408  N     0.19483   0.79483   0.88103   0.00000  Uiso   1.00
O1409  O     0.23584   0.81372   0.87272   0.00000  Uiso   1.00
O1410  O     0.19580   0.75982   0.85876   0.00000  Uiso   1.00
N1411  N     0.30569   0.82681   0.59577   0.00000  Uiso   1.00
O1412  O     0.30955   0.86008   0.61849   0.00000  Uiso   1.00
O1413  O     0.00982   0.80081   0.57826   0.00000  Uiso   1.00
N1414  N     0.02757   0.83961   0.90462   0.00000  Uiso   1.00
O1415  O     0.32386   0.86595   0.92295   0.00000  Uiso   1.00
O1416  O     0.02311   0.80723   0.88099   0.00000  Uiso   1.00
C1417  C     0.23177   0.95293   0.66787   0.00000  Uiso   1.00
H1418  H     0.27104   0.95785   0.65341   0.00000  Uiso   1.00
O1419  O     0.21550   0.92765   0.64867   0.00000  Uiso   1.00
C1420  C     0.11146   0.71519   0.83646   0.00000  Uiso   1.00
H1421  H     0.09712   0.74624   0.83513   0.00000  Uiso   1.00
O1422  O     0.10670   0.70226   0.87455   0.00000  Uiso   1.00
N1423  N     0.22318   0.70880   0.66621   0.00000  Uiso   1.00
O1424  O     0.26936   0.70024   0.64054   0.00000  Uiso   1.00
O1425  O     0.19988   0.73545   0.65117   0.00000  Uiso   1.00
N1426  N     0.10715   0.95804   0.83366   0.00000  Uiso   1.00
O1427  O     0.06097   0.96871   0.85642   0.00000  Uiso   1.00
O1428  O     0.12652   0.92957   0.85057   0.00000  Uiso   1.00
C1429  C     0.30696   0.76645   0.70465   0.00000  Uiso   1.00
H1430  H     0.31330   0.73420   0.71129   0.00000  Uiso   1.00
O1431  O     0.29250   0.77382   0.67435   0.00000  Uiso   1.00
C1432  C     0.02627   0.90002   0.79559   0.00000  Uiso   1.00
H1433  H     0.02027   0.93232   0.78885   0.00000  Uiso   1.00
O1434  O     0.04024   0.89243   0.82617   0.00000  Uiso   1.00
N1435  N     0.06604   0.76584   0.70937   0.00000  Uiso   1.00
O1436  O     0.05760   0.73004   0.73001   0.00000  Uiso   1.00
O1437  O     0.09777   0.76738   0.66607   0.00000  Uiso   1.00
N1438  N     0.26669   0.90019   0.79191   0.00000  Uiso   1.00
O1439  O     0.27452   0.93648   0.77232   0.00000  Uiso   1.00
O1440  O     0.23518   0.89764   0.83520   0.00000  Uiso   1.00
O1441  O     0.46179   0.89442   0.75001   0.00000  Uiso   1.00
O1442  O     0.53821   0.77225   0.75000   0.00000  Uiso   1.00
O1443  O     0.53823   0.89441   0.75000   0.00000  Uiso   1.00
O1444  O     0.46177   0.77226   0.75000   0.00000  Uiso   1.00
C1445  C     0.49961   0.91315   0.75061   0.00000  Uiso   1.00
C1446  C     0.50034   0.75361   0.74975   0.00000  Uiso   1.00
O1447  O     0.43994   0.83334   0.81613   0.00000  Uiso   1.00
O1448  O     0.56006   0.83333   0.68388   0.00000  Uiso   1.00
O1449  O     0.51639   0.83333   0.81612   0.00000  Uiso   1.00
O1450  O     0.48361   0.83334   0.68388   0.00000  Uiso   1.00
C1451  C     0.46892   0.83036   0.83807   0.00000  Uiso   1.00
C1452  C     0.53108   0.83557   0.66175   0.00000  Uiso   1.00
Zn1453 Zn    0.44896   0.83334   0.75000   0.00000  Uiso   1.00
Zn1454 Zn    0.55104   0.83333   0.75000   0.00000  Uiso   1.00
C1455  C     0.44883   0.82614   0.88955   0.00000  Uiso   1.00
C1456  C     0.55100   0.83835   0.61001   0.00000  Uiso   1.00
C1457  C     0.39338   0.85828   0.96264   0.00000  Uiso   1.00
C1458  C     0.60805   0.80672   0.53703   0.00000  Uiso   1.00
C1459  C     0.40108   0.84103   0.91882   0.00000  Uiso   1.00
C1460  C     0.59925   0.82419   0.58109   0.00000  Uiso   1.00
C1461  C     0.48182   0.81498   0.90992   0.00000  Uiso   1.00
C1462  C     0.51803   0.84819   0.58905   0.00000  Uiso   1.00
C1463  C     0.47186   0.82925   0.95619   0.00000  Uiso   1.00
C1464  C     0.52993   0.83505   0.54210   0.00000  Uiso   1.00
C1465  C     0.43120   0.85745   0.97844   0.00000  Uiso   1.00
C1466  C     0.57120   0.80767   0.51991   0.00000  Uiso   1.00
C1467  C     0.50295   0.81968   0.97949   0.00000  Uiso   1.00
C1468  C     0.49966   0.84491   0.51819   0.00000  Uiso   1.00
C1469  C     0.46728   0.87996   0.53106   0.00000  Uiso   1.00
C1470  C     0.53603   0.78503   0.96647   0.00000  Uiso   1.00
C1471  C     0.43044   0.88455   0.51483   0.00000  Uiso   1.00
C1472  C     0.57328   0.78117   0.98257   0.00000  Uiso   1.00
H1473  H     0.35792   0.87247   0.98407   0.00000  Uiso   1.00
H1474  H     0.64376   0.79262   0.51631   0.00000  Uiso   1.00
H1475  H     0.47040   0.90439   0.55392   0.00000  Uiso   1.00
H1476  H     0.53303   0.76026   0.94399   0.00000  Uiso   1.00
C1477  C     0.53172   0.97725   0.70996   0.00000  Uiso   1.00
C1478  C     0.47166   0.68991   0.79243   0.00000  Uiso   1.00
C1479  C     0.53046   0.68729   0.70923   0.00000  Uiso   1.00
C1480  C     0.47063   0.97970   0.79214   0.00000  Uiso   1.00
C1481  C     0.50033   0.70948   0.75038   0.00000  Uiso   1.00
C1482  C     0.49995   0.95745   0.75064   0.00000  Uiso   1.00
C1483  C     0.65223   0.80088   0.72960   0.00000  Uiso   1.00
C1484  C     0.34773   0.86575   0.77045   0.00000  Uiso   1.00
C1485  C     0.36638   0.80059   0.73024   0.00000  Uiso   1.00
C1486  C     0.63348   0.86595   0.77002   0.00000  Uiso   1.00
N1487  N     0.38093   0.83334   0.75001   0.00000  Uiso   1.00
N1488  N     0.61907   0.83332   0.74999   0.00000  Uiso   1.00
C1489  C     0.39519   0.92047   0.53442   0.00000  Uiso   1.00
H1490  H     0.38786   0.93287   0.56925   0.00000  Uiso   1.00
O1491  O     0.37604   0.93796   0.51151   0.00000  Uiso   1.00
C1492  C     0.61059   0.74657   0.96305   0.00000  Uiso   1.00
H1493  H     0.63272   0.73626   0.98123   0.00000  Uiso   1.00
O1494  O     0.61682   0.72869   0.92614   0.00000  Uiso   1.00
N1495  N     0.46983   0.86558   0.61746   0.00000  Uiso   1.00
O1496  O     0.46497   0.90123   0.63980   0.00000  Uiso   1.00
O1497  O     0.43071   0.84495   0.62258   0.00000  Uiso   1.00
N1498  N     0.52816   0.79483   0.88103   0.00000  Uiso   1.00
O1499  O     0.56918   0.81372   0.87272   0.00000  Uiso   1.00
O1500  O     0.52914   0.75982   0.85876   0.00000  Uiso   1.00
N1501  N     0.63902   0.82681   0.59577   0.00000  Uiso   1.00
O1502  O     0.64289   0.86008   0.61849   0.00000  Uiso   1.00
O1503  O     0.34316   0.80081   0.57826   0.00000  Uiso   1.00
N1504  N     0.36090   0.83961   0.90462   0.00000  Uiso   1.00
O1505  O     0.65719   0.86595   0.92295   0.00000  Uiso   1.00
O1506  O     0.35644   0.80723   0.88099   0.00000  Uiso   1.00
C1507  C     0.56511   0.95293   0.66787   0.00000  Uiso   1.00
H1508  H     0.60437   0.95785   0.65341   0.00000  Uiso   1.00
O1509  O     0.54884   0.92765   0.64867   0.00000  Uiso   1.00
C1510  C     0.44479   0.71519   0.83646   0.00000  Uiso   1.00
H1511  H     0.43046   0.74624   0.83513   0.00000  Uiso   1.00
O1512  O     0.44003   0.70226   0.87455   0.00000  Uiso   1.00
N1513  N     0.55651   0.70880   0.66621   0.00000  Uiso   1.00
O1514  O     0.60269   0.70024   0.64054   0.00000  Uiso   1.00
O1515  O     0.53322   0.73545   0.65117   0.00000  Uiso   1.00
N1516  N     0.44048   0.95804   0.83366   0.00000  Uiso   1.00
O1517  O     0.39431   0.96871   0.85642   0.00000  Uiso   1.00
O1518  O     0.45985   0.92957   0.85057   0.00000  Uiso   1.00
C1519  C     0.64029   0.76645   0.70465   0.00000  Uiso   1.00
H1520  H     0.64663   0.73420   0.71129   0.00000  Uiso   1.00
O1521  O     0.62584   0.77382   0.67435   0.00000  Uiso   1.00
C1522  C     0.35960   0.90002   0.79559   0.00000  Uiso   1.00
H1523  H     0.35361   0.93232   0.78885   0.00000  Uiso   1.00
O1524  O     0.37357   0.89243   0.82617   0.00000  Uiso   1.00
N1525  N     0.39937   0.76584   0.70937   0.00000  Uiso   1.00
O1526  O     0.39093   0.73004   0.73001   0.00000  Uiso   1.00
O1527  O     0.43110   0.76738   0.66607   0.00000  Uiso   1.00
N1528  N     0.60002   0.90019   0.79191   0.00000  Uiso   1.00
O1529  O     0.60785   0.93648   0.77232   0.00000  Uiso   1.00
O1530  O     0.56851   0.89764   0.83520   0.00000  Uiso   1.00
O1531  O     0.79512   0.89442   0.75001   0.00000  Uiso   1.00
O1532  O     0.87154   0.77225   0.75000   0.00000  Uiso   1.00
O1533  O     0.87157   0.89441   0.75000   0.00000  Uiso   1.00
O1534  O     0.79510   0.77226   0.75000   0.00000  Uiso   1.00
C1535  C     0.83294   0.91315   0.75061   0.00000  Uiso   1.00
C1536  C     0.83367   0.75361   0.74975   0.00000  Uiso   1.00
O1537  O     0.77328   0.83334   0.81613   0.00000  Uiso   1.00
O1538  O     0.89339   0.83333   0.68388   0.00000  Uiso   1.00
O1539  O     0.84972   0.83333   0.81612   0.00000  Uiso   1.00
O1540  O     0.81695   0.83334   0.68388   0.00000  Uiso   1.00
C1541  C     0.80225   0.83036   0.83807   0.00000  Uiso   1.00
C1542  C     0.86441   0.83557   0.66175   0.00000  Uiso   1.00
Zn1543 Zn    0.78229   0.83334   0.75000   0.00000  Uiso   1.00
Zn1544 Zn    0.88438   0.83333   0.75000   0.00000  Uiso   1.00
C1545  C     0.78216   0.82614   0.88955   0.00000  Uiso   1.00
C1546  C     0.88433   0.83835   0.61001   0.00000  Uiso   1.00
C1547  C     0.72671   0.85828   0.96264   0.00000  Uiso   1.00
C1548  C     0.94138   0.80672   0.53703   0.00000  Uiso   1.00
C1549  C     0.73442   0.84103   0.91882   0.00000  Uiso   1.00
C1550  C     0.93259   0.82419   0.58109   0.00000  Uiso   1.00
C1551  C     0.81516   0.81498   0.90992   0.00000  Uiso   1.00
C1552  C     0.85136   0.84819   0.58905   0.00000  Uiso   1.00
C1553  C     0.80519   0.82925   0.95619   0.00000  Uiso   1.00
C1554  C     0.86326   0.83505   0.54210   0.00000  Uiso   1.00
C1555  C     0.76454   0.85745   0.97844   0.00000  Uiso   1.00
C1556  C     0.90454   0.80767   0.51991   0.00000  Uiso   1.00
C1557  C     0.83628   0.81968   0.97949   0.00000  Uiso   1.00
C1558  C     0.83299   0.84491   0.51819   0.00000  Uiso   1.00
C1559  C     0.80061   0.87996   0.53106   0.00000  Uiso   1.00
C1560  C     0.86936   0.78503   0.96647   0.00000  Uiso   1.00
C1561  C     0.76377   0.88455   0.51483   0.00000  Uiso   1.00
C1562  C     0.90661   0.78117   0.98257   0.00000  Uiso   1.00
H1563  H     0.69125   0.87247   0.98407   0.00000  Uiso   1.00
H1564  H     0.97710   0.79262   0.51631   0.00000  Uiso   1.00
H1565  H     0.80374   0.90439   0.55392   0.00000  Uiso   1.00
H1566  H     0.86637   0.76026   0.94399   0.00000  Uiso   1.00
C1567  C     0.86505   0.97725   0.70996   0.00000  Uiso   1.00
C1568  C     0.80499   0.68991   0.79243   0.00000  Uiso   1.00
C1569  C     0.86380   0.68729   0.70923   0.00000  Uiso   1.00
C1570  C     0.80397   0.97970   0.79214   0.00000  Uiso   1.00
C1571  C     0.83366   0.70948   0.75038   0.00000  Uiso   1.00
C1572  C     0.83328   0.95745   0.75064   0.00000  Uiso   1.00
C1573  C     0.98557   0.80088   0.72960   0.00000  Uiso   1.00
C1574  C     0.68106   0.86575   0.77045   0.00000  Uiso   1.00
C1575  C     0.69972   0.80059   0.73024   0.00000  Uiso   1.00
C1576  C     0.96681   0.86595   0.77002   0.00000  Uiso   1.00
N1577  N     0.71426   0.83334   0.75001   0.00000  Uiso   1.00
N1578  N     0.95241   0.83332   0.74999   0.00000  Uiso   1.00
C1579  C     0.72852   0.92047   0.53442   0.00000  Uiso   1.00
H1580  H     0.72120   0.93287   0.56925   0.00000  Uiso   1.00
O1581  O     0.70937   0.93796   0.51151   0.00000  Uiso   1.00
C1582  C     0.94392   0.74657   0.96305   0.00000  Uiso   1.00
H1583  H     0.96606   0.73626   0.98123   0.00000  Uiso   1.00
O1584  O     0.95016   0.72869   0.92614   0.00000  Uiso   1.00
N1585  N     0.80316   0.86558   0.61746   0.00000  Uiso   1.00
O1586  O     0.79831   0.90123   0.63980   0.00000  Uiso   1.00
O1587  O     0.76405   0.84495   0.62258   0.00000  Uiso   1.00
N1588  N     0.86150   0.79483   0.88103   0.00000  Uiso   1.00
O1589  O     0.90251   0.81372   0.87272   0.00000  Uiso   1.00
O1590  O     0.86247   0.75982   0.85876   0.00000  Uiso   1.00
N1591  N     0.97236   0.82681   0.59577   0.00000  Uiso   1.00
O1592  O     0.97622   0.86008   0.61849   0.00000  Uiso   1.00
O1593  O     0.67649   0.80081   0.57826   0.00000  Uiso   1.00
N1594  N     0.69423   0.83961   0.90462   0.00000  Uiso   1.00
O1595  O     0.99053   0.86595   0.92295   0.00000  Uiso   1.00
O1596  O     0.68978   0.80723   0.88099   0.00000  Uiso   1.00
C1597  C     0.89844   0.95293   0.66787   0.00000  Uiso   1.00
H1598  H     0.93771   0.95785   0.65341   0.00000  Uiso   1.00
O1599  O     0.88217   0.92765   0.64867   0.00000  Uiso   1.00
C1600  C     0.77812   0.71519   0.83646   0.00000  Uiso   1.00
H1601  H     0.76379   0.74624   0.83513   0.00000  Uiso   1.00
O1602  O     0.77337   0.70226   0.87455   0.00000  Uiso   1.00
N1603  N     0.88985   0.70880   0.66621   0.00000  Uiso   1.00
O1604  O     0.93602   0.70024   0.64054   0.00000  Uiso   1.00
O1605  O     0.86655   0.73545   0.65117   0.00000  Uiso   1.00
N1606  N     0.77381   0.95804   0.83366   0.00000  Uiso   1.00
O1607  O     0.72764   0.96871   0.85642   0.00000  Uiso   1.00
O1608  O     0.79318   0.92957   0.85057   0.00000  Uiso   1.00
C1609  C     0.97363   0.76645   0.70465   0.00000  Uiso   1.00
H1610  H     0.97997   0.73420   0.71129   0.00000  Uiso   1.00
O1611  O     0.95917   0.77382   0.67435   0.00000  Uiso   1.00
C1612  C     0.69294   0.90002   0.79559   0.00000  Uiso   1.00
H1613  H     0.68694   0.93232   0.78885   0.00000  Uiso   1.00
O1614  O     0.70691   0.89243   0.82617   0.00000  Uiso   1.00
N1615  N     0.73270   0.76584   0.70937   0.00000  Uiso   1.00
O1616  O     0.72426   0.73004   0.73001   0.00000  Uiso   1.00
O1617  O     0.76444   0.76738   0.66607   0.00000  Uiso   1.00
N1618  N     0.93335   0.90019   0.79191   0.00000  Uiso   1.00
O1619  O     0.94119   0.93648   0.77232   0.00000  Uiso   1.00
O1620  O     0.90185   0.89764   0.83520   0.00000  Uiso   1.00
loop_
_geom_bond_atom_site_label_1
_geom_bond_atom_site_label_2
_geom_bond_distance
_geom_bond_site_symmetry_2
_ccdc_geom_bond_type
O1     C5      1.291   .     A
O1     Zn13    1.996   .     S
O2     C6      1.287   .     A
O2     Zn14    1.996   .     S
O3     Zn14    1.985   .     S
O3     C5      1.283   .     A
O4     Zn13    1.985   .     S
O4     C6      1.284   .     A
C5     C42     1.417   .     S
C6     C41     1.412   .     S
O7     C11     1.307   .     A
O7     Zn13    1.973   .     S
O8     Zn14    1.973   .     S
O8     C12     1.310   .     A
O9     C11     1.302   .     A
O9     Zn14    1.897   .     S
O10    C12     1.301   .     A
O10    Zn13    1.897   .     S
C11    C15     1.480   .     S
C12    C16     1.484   .     S
Zn13   N47     2.027   .     S
Zn14   N48     2.027   .     S
C15    C19     1.411   .     A
C15    C21     1.417   .     A
C16    C20     1.413   .     A
C16    C22     1.421   .     A
C17    H33     1.081   .     S
C17    C25     1.403   .     A
C17    C19     1.395   .     A
C18    C26     1.404   .     A
C18    H34     1.081   .     S
C18    C20     1.398   .     A
C19    N64     1.438   .     S
C20    N61     1.438   .     S
C21    C23     1.418   .     A
C21    N58     1.440   .     S
C22    C24     1.416   .     A
C22    N55     1.442   .     S
C23    C27     1.426   .     A
C23    C25     1.422   .     A
C24    C28     1.422   .     A
C24    C26     1.418   .     A
C25    C841    1.410   .     S
C26    C842    1.410   1_554 S
C27    C30     1.410   .     A
C27    C838    1.411   .     S
C28    C29     1.408   .     A
C28    C837    1.411   1_554 S
C29    H35     1.080   .     S
C29    C31     1.392   .     A
C30    C32     1.398   .     A
C30    H36     1.078   .     S
C31    C49     1.487   .     S
C31    C835    1.410   1_554 S
C32    C52     1.489   .     S
C32    C836    1.410   .     S
C37    C42     1.407   .     A
C37    C67     1.483   .     S
C37    C309    1.388   .     S
C38    C70     1.494   .     S
C38    C41     1.407   .     A
C38    C580    1.393   1_545 S
C39    C41     1.404   .     A
C39    N73     1.443   .     S
C39    C577    1.388   1_545 S
C40    C42     1.406   .     A
C40    N76     1.439   .     S
C40    C308    1.393   .     S
C43    N48     1.375   .     A
C43    C79     1.468   .     S
C43    C135    1.423   .     S
C44    C82     1.467   .     S
C44    N47     1.375   .     A
C44    C226    1.424   1_455 S
C45    N47     1.370   .     A
C45    N85     1.430   .     S
C45    C223    1.423   1_455 S
C46    N88     1.430   .     S
C46    N48     1.369   .     A
C46    C134    1.424   .     S
C49    O51     1.221   .     D
C49    H50     1.086   .     S
C52    O54     1.222   .     D
C52    H53     1.083   .     S
N55    O56     1.301   .     A
N55    O57     1.302   .     A
N58    O60     1.301   .     A
N58    O59     1.302   .     A
N61    O62     1.301   .     A
N61    O153    1.302   .     S
O63    N241    1.302   1_455 S
N64    O66     1.301   .     A
N64    O245    1.302   1_455 S
O65    N154    1.302   .     S
C67    H68     1.084   .     S
C67    O69     1.217   .     D
C70    H71     1.083   .     S
C70    O72     1.221   .     D
N73    O74     1.301   .     A
N73    O75     1.301   .     A
N76    O78     1.301   .     A
N76    O77     1.302   .     A
C79    O81     1.215   .     D
C79    H80     1.084   .     S
C82    H83     1.084   .     S
C82    O84     1.215   .     D
N85    O86     1.301   .     A
N85    O87     1.300   .     A
N88    O90     1.300   .     A
N88    O89     1.301   .     A
O91    C95     1.291   .     A
O91    Zn103   1.996   .     S
O92    C96     1.287   .     A
O92    Zn104   1.996   .     S
O93    Zn104   1.985   .     S
O93    C95     1.283   .     A
O94    Zn103   1.985   .     S
O94    C96     1.284   .     A
C95    C132    1.417   .     S
C96    C131    1.412   .     S
O97    C101    1.307   .     A
O97    Zn103   1.973   .     S
O98    Zn104   1.973   .     S
O98    C102    1.310   .     A
O99    C101    1.302   .     A
O99    Zn104   1.897   .     S
O100   C102    1.301   .     A
O100   Zn103   1.897   .     S
C101   C105    1.480   .     S
C102   C106    1.484   .     S
Zn103  N137    2.027   .     S
Zn104  N138    2.027   .     S
C105   C109    1.411   .     A
C105   C111    1.417   .     A
C106   C110    1.413   .     A
C106   C112    1.421   .     A
C107   H123    1.081   .     S
C107   C115    1.403   .     A
C107   C109    1.395   .     A
C108   C116    1.404   .     A
C108   H124    1.081   .     S
C108   C110    1.398   .     A
C109   N154    1.438   .     S
C110   N151    1.438   .     S
C111   C113    1.418   .     A
C111   N148    1.440   .     S
C112   C114    1.416   .     A
C112   N145    1.442   .     S
C113   C117    1.426   .     A
C113   C115    1.422   .     A
C114   C118    1.422   .     A
C114   C116    1.418   .     A
C115   C931    1.410   .     S
C116   C932    1.410   1_554 S
C117   C120    1.410   .     A
C117   C928    1.411   .     S
C118   C119    1.408   .     A
C118   C927    1.411   1_554 S
C119   H125    1.080   .     S
C119   C121    1.392   .     A
C120   C122    1.398   .     A
C120   H126    1.078   .     S
C121   C139    1.487   .     S
C121   C925    1.410   1_554 S
C122   C142    1.489   .     S
C122   C926    1.410   .     S
C127   C132    1.407   .     A
C127   C157    1.483   .     S
C127   C399    1.388   .     S
C128   C160    1.494   .     S
C128   C131    1.407   .     A
C128   C670    1.393   1_545 S
C129   C131    1.404   .     A
C129   N163    1.443   .     S
C129   C667    1.388   1_545 S
C130   C132    1.406   .     A
C130   N166    1.439   .     S
C130   C398    1.393   .     S
C133   N138    1.375   .     A
C133   C169    1.468   .     S
C133   C225    1.423   .     S
C134   C172    1.467   .     S
C134   N137    1.375   .     A
C135   N137    1.370   .     A
C135   N175    1.430   .     S
C136   N178    1.430   .     S
C136   N138    1.369   .     A
C136   C224    1.424   .     S
C139   O141    1.221   .     D
C139   H140    1.086   .     S
C142   O144    1.222   .     D
C142   H143    1.083   .     S
N145   O146    1.301   .     A
N145   O147    1.302   .     A
N148   O150    1.301   .     A
N148   O149    1.302   .     A
N151   O152    1.301   .     A
N151   O243    1.302   .     S
N154   O156    1.301   .     A
O155   N244    1.302   .     S
C157   H158    1.084   .     S
C157   O159    1.217   .     D
C160   H161    1.083   .     S
C160   O162    1.221   .     D
N163   O164    1.301   .     A
N163   O165    1.301   .     A
N166   O168    1.301   .     A
N166   O167    1.302   .     A
C169   O171    1.215   .     D
C169   H170    1.084   .     S
C172   H173    1.084   .     S
C172   O174    1.215   .     D
N175   O176    1.301   .     A
N175   O177    1.300   .     A
N178   O180    1.300   .     A
N178   O179    1.301   .     A
O181   C185    1.291   .     A
O181   Zn193   1.996   .     S
O182   C186    1.287   .     A
O182   Zn194   1.996   .     S
O183   Zn194   1.985   .     S
O183   C185    1.283   .     A
O184   Zn193   1.985   .     S
O184   C186    1.284   .     A
C185   C222    1.417   .     S
C186   C221    1.412   .     S
O187   C191    1.307   .     A
O187   Zn193   1.973   .     S
O188   Zn194   1.973   .     S
O188   C192    1.310   .     A
O189   C191    1.302   .     A
O189   Zn194   1.897   .     S
O190   C192    1.301   .     A
O190   Zn193   1.897   .     S
C191   C195    1.480   .     S
C192   C196    1.484   .     S
Zn193  N227    2.027   .     S
Zn194  N228    2.027   .     S
C195   C199    1.411   .     A
C195   C201    1.417   .     A
C196   C200    1.413   .     A
C196   C202    1.421   .     A
C197   H213    1.081   .     S
C197   C205    1.403   .     A
C197   C199    1.395   .     A
C198   C206    1.404   .     A
C198   H214    1.081   .     S
C198   C200    1.398   .     A
C199   N244    1.438   .     S
C200   N241    1.438   .     S
C201   C203    1.418   .     A
C201   N238    1.440   .     S
C202   C204    1.416   .     A
C202   N235    1.442   .     S
C203   C207    1.426   .     A
C203   C205    1.422   .     A
C204   C208    1.422   .     A
C204   C206    1.418   .     A
C205   C1021   1.410   .     S
C206   C1022   1.410   1_554 S
C207   C210    1.410   .     A
C207   C1018   1.411   .     S
C208   C209    1.408   .     A
C208   C1017   1.411   1_554 S
C209   H215    1.080   .     S
C209   C211    1.392   .     A
C210   C212    1.398   .     A
C210   H216    1.078   .     S
C211   C229    1.487   .     S
C211   C1015   1.410   1_554 S
C212   C232    1.489   .     S
C212   C1016   1.410   .     S
C217   C222    1.407   .     A
C217   C247    1.483   .     S
C217   C489    1.388   .     S
C218   C250    1.494   .     S
C218   C221    1.407   .     A
C218   C760    1.393   1_545 S
C219   C221    1.404   .     A
C219   N253    1.443   .     S
C219   C757    1.388   1_545 S
C220   C222    1.406   .     A
C220   N256    1.439   .     S
C220   C488    1.393   .     S
C223   N228    1.375   .     A
C223   C259    1.468   .     S
C223   C45     1.423   1_655 S
C224   C262    1.467   .     S
C224   N227    1.375   .     A
C225   N227    1.370   .     A
C225   N265    1.430   .     S
C226   N268    1.430   .     S
C226   N228    1.369   .     A
C226   C44     1.424   1_655 S
C229   O231    1.221   .     D
C229   H230    1.086   .     S
C232   O234    1.222   .     D
C232   H233    1.083   .     S
N235   O236    1.301   .     A
N235   O237    1.302   .     A
N238   O240    1.301   .     A
N238   O239    1.302   .     A
N241   O242    1.301   .     A
N241   O63     1.302   1_655 S
N244   O246    1.301   .     A
O245   N64     1.302   1_655 S
C247   H248    1.084   .     S
C247   O249    1.217   .     D
C250   H251    1.083   .     S
C250   O252    1.221   .     D
N253   O254    1.301   .     A
N253   O255    1.301   .     A
N256   O258    1.301   .     A
N256   O257    1.302   .     A
C259   O261    1.215   .     D
C259   H260    1.084   .     S
C262   H263    1.084   .     S
C262   O264    1.215   .     D
N265   O266    1.301   .     A
N265   O267    1.300   .     A
N268   O270    1.300   .     A
N268   O269    1.301   .     A
O271   C275    1.291   .     A
O271   Zn283   1.996   .     S
O272   C276    1.287   .     A
O272   Zn284   1.996   .     S
O273   Zn284   1.985   .     S
O273   C275    1.283   .     A
O274   Zn283   1.985   .     S
O274   C276    1.284   .     A
C275   C312    1.417   .     S
C276   C311    1.412   .     S
O277   C281    1.307   .     A
O277   Zn283   1.973   .     S
O278   Zn284   1.973   .     S
O278   C282    1.310   .     A
O279   C281    1.302   .     A
O279   Zn284   1.897   .     S
O280   C282    1.301   .     A
O280   Zn283   1.897   .     S
C281   C285    1.480   .     S
C282   C286    1.484   .     S
Zn283  N317    2.027   .     S
Zn284  N318    2.027   .     S
C285   C289    1.411   .     A
C285   C291    1.417   .     A
C286   C290    1.413   .     A
C286   C292    1.421   .     A
C287   H303    1.081   .     S
C287   C295    1.403   .     A
C287   C289    1.395   .     A
C288   C296    1.404   .     A
C288   H304    1.081   .     S
C288   C290    1.398   .     A
C289   N334    1.438   .     S
C290   N331    1.438   .     S
C291   C293    1.418   .     A
C291   N328    1.440   .     S
C292   C294    1.416   .     A
C292   N325    1.442   .     S
C293   C297    1.426   .     A
C293   C295    1.422   .     A
C294   C298    1.422   .     A
C294   C296    1.418   .     A
C295   C1111   1.410   .     S
C296   C1112   1.410   1_554 S
C297   C300    1.410   .     A
C297   C1108   1.411   .     S
C298   C299    1.408   .     A
C298   C1107   1.411   1_554 S
C299   H305    1.080   .     S
C299   C301    1.392   .     A
C300   C302    1.398   .     A
C300   H306    1.078   .     S
C301   C319    1.487   .     S
C301   C1105   1.410   1_554 S
C302   C322    1.489   .     S
C302   C1106   1.410   .     S
C307   C312    1.407   .     A
C307   C337    1.483   .     S
C307   C579    1.388   .     S
C308   C340    1.494   .     S
C308   C311    1.407   .     A
C309   C311    1.404   .     A
C309   N343    1.443   .     S
C310   C312    1.406   .     A
C310   N346    1.439   .     S
C310   C578    1.393   .     S
C313   N318    1.375   .     A
C313   C349    1.468   .     S
C313   C405    1.423   .     S
C314   C352    1.467   .     S
C314   N317    1.375   .     A
C314   C496    1.424   1_455 S
C315   N317    1.370   .     A
C315   N355    1.430   .     S
C315   C493    1.423   1_455 S
C316   N358    1.430   .     S
C316   N318    1.369   .     A
C316   C404    1.424   .     S
C319   O321    1.221   .     D
C319   H320    1.086   .     S
C322   O324    1.222   .     D
C322   H323    1.083   .     S
N325   O326    1.301   .     A
N325   O327    1.302   .     A
N328   O330    1.301   .     A
N328   O329    1.302   .     A
N331   O332    1.301   .     A
N331   O423    1.302   .     S
O333   N511    1.302   1_455 S
N334   O336    1.301   .     A
N334   O515    1.302   1_455 S
O335   N424    1.302   .     S
C337   H338    1.084   .     S
C337   O339    1.217   .     D
C340   H341    1.083   .     S
C340   O342    1.221   .     D
N343   O344    1.301   .     A
N343   O345    1.301   .     A
N346   O348    1.301   .     A
N346   O347    1.302   .     A
C349   O351    1.215   .     D
C349   H350    1.084   .     S
C352   H353    1.084   .     S
C352   O354    1.215   .     D
N355   O356    1.301   .     A
N355   O357    1.300   .     A
N358   O360    1.300   .     A
N358   O359    1.301   .     A
O361   C365    1.291   .     A
O361   Zn373   1.996   .     S
O362   C366    1.287   .     A
O362   Zn374   1.996   .     S
O363   Zn374   1.985   .     S
O363   C365    1.283   .     A
O364   Zn373   1.985   .     S
O364   C366    1.284   .     A
C365   C402    1.417   .     S
C366   C401    1.412   .     S
O367   C371    1.307   .     A
O367   Zn373   1.973   .     S
O368   Zn374   1.973   .     S
O368   C372    1.310   .     A
O369   C371    1.302   .     A
O369   Zn374   1.897   .     S
O370   C372    1.301   .     A
O370   Zn373   1.897   .     S
C371   C375    1.480   .     S
C372   C376    1.484   .     S
Zn373  N407    2.027   .     S
Zn374  N408    2.027   .     S
C375   C379    1.411   .     A
C375   C381    1.417   .     A
C376   C380    1.413   .     A
C376   C382    1.421   .     A
C377   H393    1.081   .     S
C377   C385    1.403   .     A
C377   C379    1.395   .     A
C378   C386    1.404   .     A
C378   H394    1.081   .     S
C378   C380    1.398   .     A
C379   N424    1.438   .     S
C380   N421    1.438   .     S
C381   C383    1.418   .     A
C381   N418    1.440   .     S
C382   C384    1.416   .     A
C382   N415    1.442   .     S
C383   C387    1.426   .     A
C383   C385    1.422   .     A
C384   C388    1.422   .     A
C384   C386    1.418   .     A
C385   C1201   1.410   .     S
C386   C1202   1.410   1_554 S
C387   C390    1.410   .     A
C387   C1198   1.411   .     S
C388   C389    1.408   .     A
C388   C1197   1.411   1_554 S
C389   H395    1.080   .     S
C389   C391    1.392   .     A
C390   C392    1.398   .     A
C390   H396    1.078   .     S
C391   C409    1.487   .     S
C391   C1195   1.410   1_554 S
C392   C412    1.489   .     S
C392   C1196   1.410   .     S
C397   C402    1.407   .     A
C397   C427    1.483   .     S
C397   C669    1.388   .     S
C398   C430    1.494   .     S
C398   C401    1.407   .     A
C399   C401    1.404   .     A
C399   N433    1.443   .     S
C400   C402    1.406   .     A
C400   N436    1.439   .     S
C400   C668    1.393   .     S
C403   N408    1.375   .     A
C403   C439    1.468   .     S
C403   C495    1.423   .     S
C404   C442    1.467   .     S
C404   N407    1.375   .     A
C405   N407    1.370   .     A
C405   N445    1.430   .     S
C406   N448    1.430   .     S
C406   N408    1.369   .     A
C406   C494    1.424   .     S
C409   O411    1.221   .     D
C409   H410    1.086   .     S
C412   O414    1.222   .     D
C412   H413    1.083   .     S
N415   O416    1.301   .     A
N415   O417    1.302   .     A
N418   O420    1.301   .     A
N418   O419    1.302   .     A
N421   O422    1.301   .     A
N421   O513    1.302   .     S
N424   O426    1.301   .     A
O425   N514    1.302   .     S
C427   H428    1.084   .     S
C427   O429    1.217   .     D
C430   H431    1.083   .     S
C430   O432    1.221   .     D
N433   O434    1.301   .     A
N433   O435    1.301   .     A
N436   O438    1.301   .     A
N436   O437    1.302   .     A
C439   O441    1.215   .     D
C439   H440    1.084   .     S
C442   H443    1.084   .     S
C442   O444    1.215   .     D
N445   O446    1.301   .     A
N445   O447    1.300   .     A
N448   O450    1.300   .     A
N448   O449    1.301   .     A
O451   C455    1.291   .     A
O451   Zn463   1.996   .     S
O452   C456    1.287   .     A
O452   Zn464   1.996   .     S
O453   Zn464   1.985   .     S
O453   C455    1.283   .     A
O454   Zn463   1.985   .     S
O454   C456    1.284   .     A
C455   C492    1.417   .     S
C456   C491    1.412   .     S
O457   C461    1.307   .     A
O457   Zn463   1.973   .     S
O458   Zn464   1.973   .     S
O458   C462    1.310   .     A
O459   C461    1.302   .     A
O459   Zn464   1.897   .     S
O460   C462    1.301   .     A
O460   Zn463   1.897   .     S
C461   C465    1.480   .     S
C462   C466    1.484   .     S
Zn463  N497    2.027   .     S
Zn464  N498    2.027   .     S
C465   C469    1.411   .     A
C465   C471    1.417   .     A
C466   C470    1.413   .     A
C466   C472    1.421   .     A
C467   H483    1.081   .     S
C467   C475    1.403   .     A
C467   C469    1.395   .     A
C468   C476    1.404   .     A
C468   H484    1.081   .     S
C468   C470    1.398   .     A
C469   N514    1.438   .     S
C470   N511    1.438   .     S
C471   C473    1.418   .     A
C471   N508    1.440   .     S
C472   C474    1.416   .     A
C472   N505    1.442   .     S
C473   C477    1.426   .     A
C473   C475    1.422   .     A
C474   C478    1.422   .     A
C474   C476    1.418   .     A
C475   C1291   1.410   .     S
C476   C1292   1.410   1_554 S
C477   C480    1.410   .     A
C477   C1288   1.411   .     S
C478   C479    1.408   .     A
C478   C1287   1.411   1_554 S
C479   H485    1.080   .     S
C479   C481    1.392   .     A
C480   C482    1.398   .     A
C480   H486    1.078   .     S
C481   C499    1.487   .     S
C481   C1285   1.410   1_554 S
C482   C502    1.489   .     S
C482   C1286   1.410   .     S
C487   C492    1.407   .     A
C487   C517    1.483   .     S
C487   C759    1.388   .     S
C488   C520    1.494   .     S
C488   C491    1.407   .     A
C489   C491    1.404   .     A
C489   N523    1.443   .     S
C490   C492    1.406   .     A
C490   N526    1.439   .     S
C490   C758    1.393   .     S
C493   N498    1.375   .     A
C493   C529    1.468   .     S
C493   C315    1.423   1_655 S
C494   C532    1.467   .     S
C494   N497    1.375   .     A
C495   N497    1.370   .     A
C495   N535    1.430   .     S
C496   N538    1.430   .     S
C496   N498    1.369   .     A
C496   C314    1.424   1_655 S
C499   O501    1.221   .     D
C499   H500    1.086   .     S
C502   O504    1.222   .     D
C502   H503    1.083   .     S
N505   O506    1.301   .     A
N505   O507    1.302   .     A
N508   O510    1.301   .     A
N508   O509    1.302   .     A
N511   O512    1.301   .     A
N511   O333    1.302   1_655 S
N514   O516    1.301   .     A
O515   N334    1.302   1_655 S
C517   H518    1.084   .     S
C517   O519    1.217   .     D
C520   H521    1.083   .     S
C520   O522    1.221   .     D
N523   O524    1.301   .     A
N523   O525    1.301   .     A
N526   O528    1.301   .     A
N526   O527    1.302   .     A
C529   O531    1.215   .     D
C529   H530    1.084   .     S
C532   H533    1.084   .     S
C532   O534    1.215   .     D
N535   O536    1.301   .     A
N535   O537    1.300   .     A
N538   O540    1.300   .     A
N538   O539    1.301   .     A
O541   C545    1.291   .     A
O541   Zn553   1.996   .     S
O542   C546    1.287   .     A
O542   Zn554   1.996   .     S
O543   Zn554   1.985   .     S
O543   C545    1.283   .     A
O544   Zn553   1.985   .     S
O544   C546    1.284   .     A
C545   C582    1.417   .     S
C546   C581    1.412   .     S
O547   C551    1.307   .     A
O547   Zn553   1.973   .     S
O548   Zn554   1.973   .     S
O548   C552    1.310   .     A
O549   C551    1.302   .     A
O549   Zn554   1.897   .     S
O550   C552    1.301   .     A
O550   Zn553   1.897   .     S
C551   C555    1.480   .     S
C552   C556    1.484   .     S
Zn553  N587    2.027   .     S
Zn554  N588    2.027   .     S
C555   C559    1.411   .     A
C555   C561    1.417   .     A
C556   C560    1.413   .     A
C556   C562    1.421   .     A
C557   H573    1.081   .     S
C557   C565    1.403   .     A
C557   C559    1.395   .     A
C558   C566    1.404   .     A
C558   H574    1.081   .     S
C558   C560    1.398   .     A
C559   N604    1.438   .     S
C560   N601    1.438   .     S
C561   C563    1.418   .     A
C561   N598    1.440   .     S
C562   C564    1.416   .     A
C562   N595    1.442   .     S
C563   C567    1.426   .     A
C563   C565    1.422   .     A
C564   C568    1.422   .     A
C564   C566    1.418   .     A
C565   C1381   1.410   .     S
C566   C1382   1.410   1_554 S
C567   C570    1.410   .     A
C567   C1378   1.411   .     S
C568   C569    1.408   .     A
C568   C1377   1.411   1_554 S
C569   H575    1.080   .     S
C569   C571    1.392   .     A
C570   C572    1.398   .     A
C570   H576    1.078   .     S
C571   C589    1.487   .     S
C571   C1375   1.410   1_554 S
C572   C592    1.489   .     S
C572   C1376   1.410   .     S
C577   C582    1.407   .     A
C577   C607    1.483   .     S
C577   C39     1.388   1_565 S
C578   C610    1.494   .     S
C578   C581    1.407   .     A
C579   C581    1.404   .     A
C579   N613    1.443   .     S
C580   C582    1.406   .     A
C580   N616    1.439   .     S
C580   C38     1.393   1_565 S
C583   N588    1.375   .     A
C583   C619    1.468   .     S
C583   C675    1.423   .     S
C584   C622    1.467   .     S
C584   N587    1.375   .     A
C584   C766    1.424   1_455 S
C585   N587    1.370   .     A
C585   N625    1.430   .     S
C585   C763    1.423   1_455 S
C586   N628    1.430   .     S
C586   N588    1.369   .     A
C586   C674    1.424   .     S
C589   O591    1.221   .     D
C589   H590    1.086   .     S
C592   O594    1.222   .     D
C592   H593    1.083   .     S
N595   O596    1.301   .     A
N595   O597    1.302   .     A
N598   O600    1.301   .     A
N598   O599    1.302   .     A
N601   O602    1.301   .     A
N601   O693    1.302   .     S
O603   N781    1.302   1_455 S
N604   O606    1.301   .     A
N604   O785    1.302   1_455 S
O605   N694    1.302   .     S
C607   H608    1.084   .     S
C607   O609    1.217   .     D
C610   H611    1.083   .     S
C610   O612    1.221   .     D
N613   O614    1.301   .     A
N613   O615    1.301   .     A
N616   O618    1.301   .     A
N616   O617    1.302   .     A
C619   O621    1.215   .     D
C619   H620    1.084   .     S
C622   H623    1.084   .     S
C622   O624    1.215   .     D
N625   O626    1.301   .     A
N625   O627    1.300   .     A
N628   O630    1.300   .     A
N628   O629    1.301   .     A
O631   C635    1.291   .     A
O631   Zn643   1.996   .     S
O632   C636    1.287   .     A
O632   Zn644   1.996   .     S
O633   Zn644   1.985   .     S
O633   C635    1.283   .     A
O634   Zn643   1.985   .     S
O634   C636    1.284   .     A
C635   C672    1.417   .     S
C636   C671    1.412   .     S
O637   C641    1.307   .     A
O637   Zn643   1.973   .     S
O638   Zn644   1.973   .     S
O638   C642    1.310   .     A
O639   C641    1.302   .     A
O639   Zn644   1.897   .     S
O640   C642    1.301   .     A
O640   Zn643   1.897   .     S
C641   C645    1.480   .     S
C642   C646    1.484   .     S
Zn643  N677    2.027   .     S
Zn644  N678    2.027   .     S
C645   C649    1.411   .     A
C645   C651    1.417   .     A
C646   C650    1.413   .     A
C646   C652    1.421   .     A
C647   H663    1.081   .     S
C647   C655    1.403   .     A
C647   C649    1.395   .     A
C648   C656    1.404   .     A
C648   H664    1.081   .     S
C648   C650    1.398   .     A
C649   N694    1.438   .     S
C650   N691    1.438   .     S
C651   C653    1.418   .     A
C651   N688    1.440   .     S
C652   C654    1.416   .     A
C652   N685    1.442   .     S
C653   C657    1.426   .     A
C653   C655    1.422   .     A
C654   C658    1.422   .     A
C654   C656    1.418   .     A
C655   C1471   1.410   .     S
C656   C1472   1.410   1_554 S
C657   C660    1.410   .     A
C657   C1468   1.411   .     S
C658   C659    1.408   .     A
C658   C1467   1.411   1_554 S
C659   H665    1.080   .     S
C659   C661    1.392   .     A
C660   C662    1.398   .     A
C660   H666    1.078   .     S
C661   C679    1.487   .     S
C661   C1465   1.410   1_554 S
C662   C682    1.489   .     S
C662   C1466   1.410   .     S
C667   C672    1.407   .     A
C667   C697    1.483   .     S
C667   C129    1.388   1_565 S
C668   C700    1.494   .     S
C668   C671    1.407   .     A
C669   C671    1.404   .     A
C669   N703    1.443   .     S
C670   C672    1.406   .     A
C670   N706    1.439   .     S
C670   C128    1.393   1_565 S
C673   N678    1.375   .     A
C673   C709    1.468   .     S
C673   C765    1.423   .     S
C674   C712    1.467   .     S
C674   N677    1.375   .     A
C675   N677    1.370   .     A
C675   N715    1.430   .     S
C676   N718    1.430   .     S
C676   N678    1.369   .     A
C676   C764    1.424   .     S
C679   O681    1.221   .     D
C679   H680    1.086   .     S
C682   O684    1.222   .     D
C682   H683    1.083   .     S
N685   O686    1.301   .     A
N685   O687    1.302   .     A
N688   O690    1.301   .     A
N688   O689    1.302   .     A
N691   O692    1.301   .     A
N691   O783    1.302   .     S
N694   O696    1.301   .     A
O695   N784    1.302   .     S
C697   H698    1.084   .     S
C697   O699    1.217   .     D
C700   H701    1.083   .     S
C700   O702    1.221   .     D
N703   O704    1.301   .     A
N703   O705    1.301   .     A
N706   O708    1.301   .     A
N706   O707    1.302   .     A
C709   O711    1.215   .     D
C709   H710    1.084   .     S
C712   H713    1.084   .     S
C712   O714    1.215   .     D
N715   O716    1.301   .     A
N715   O717    1.300   .     A
N718   O720    1.300   .     A
N718   O719    1.301   .     A
O721   C725    1.291   .     A
O721   Zn733   1.996   .     S
O722   C726    1.287   .     A
O722   Zn734   1.996   .     S
O723   Zn734   1.985   .     S
O723   C725    1.283   .     A
O724   Zn733   1.985   .     S
O724   C726    1.284   .     A
C725   C762    1.417   .     S
C726   C761    1.412   .     S
O727   C731    1.307   .     A
O727   Zn733   1.973   .     S
O728   Zn734   1.973   .     S
O728   C732    1.310   .     A
O729   C731    1.302   .     A
O729   Zn734   1.897   .     S
O730   C732    1.301   .     A
O730   Zn733   1.897   .     S
C731   C735    1.480   .     S
C732   C736    1.484   .     S
Zn733  N767    2.027   .     S
Zn734  N768    2.027   .     S
C735   C739    1.411   .     A
C735   C741    1.417   .     A
C736   C740    1.413   .     A
C736   C742    1.421   .     A
C737   H753    1.081   .     S
C737   C745    1.403   .     A
C737   C739    1.395   .     A
C738   C746    1.404   .     A
C738   H754    1.081   .     S
C738   C740    1.398   .     A
C739   N784    1.438   .     S
C740   N781    1.438   .     S
C741   C743    1.418   .     A
C741   N778    1.440   .     S
C742   C744    1.416   .     A
C742   N775    1.442   .     S
C743   C747    1.426   .     A
C743   C745    1.422   .     A
C744   C748    1.422   .     A
C744   C746    1.418   .     A
C745   C1561   1.410   .     S
C746   C1562   1.410   1_554 S
C747   C750    1.410   .     A
C747   C1558   1.411   .     S
C748   C749    1.408   .     A
C748   C1557   1.411   1_554 S
C749   H755    1.080   .     S
C749   C751    1.392   .     A
C750   C752    1.398   .     A
C750   H756    1.078   .     S
C751   C769    1.487   .     S
C751   C1555   1.410   1_554 S
C752   C772    1.489   .     S
C752   C1556   1.410   .     S
C757   C762    1.407   .     A
C757   C787    1.483   .     S
C757   C219    1.388   1_565 S
C758   C790    1.494   .     S
C758   C761    1.407   .     A
C759   C761    1.404   .     A
C759   N793    1.443   .     S
C760   C762    1.406   .     A
C760   N796    1.439   .     S
C760   C218    1.393   1_565 S
C763   N768    1.375   .     A
C763   C799    1.468   .     S
C763   C585    1.423   1_655 S
C764   C802    1.467   .     S
C764   N767    1.375   .     A
C765   N767    1.370   .     A
C765   N805    1.430   .     S
C766   N808    1.430   .     S
C766   N768    1.369   .     A
C766   C584    1.424   1_655 S
C769   O771    1.221   .     D
C769   H770    1.086   .     S
C772   O774    1.222   .     D
C772   H773    1.083   .     S
N775   O776    1.301   .     A
N775   O777    1.302   .     A
N778   O780    1.301   .     A
N778   O779    1.302   .     A
N781   O782    1.301   .     A
N781   O603    1.302   1_655 S
N784   O786    1.301   .     A
O785   N604    1.302   1_655 S
C787   H788    1.084   .     S
C787   O789    1.217   .     D
C790   H791    1.083   .     S
C790   O792    1.221   .     D
N793   O794    1.301   .     A
N793   O795    1.301   .     A
N796   O798    1.301   .     A
N796   O797    1.302   .     A
C799   O801    1.215   .     D
C799   H800    1.084   .     S
C802   H803    1.084   .     S
C802   O804    1.215   .     D
N805   O806    1.301   .     A
N805   O807    1.300   .     A
N808   O810    1.300   .     A
N808   O809    1.301   .     A
O811   C815    1.291   .     A
O811   Zn823   1.996   .     S
O812   C816    1.287   .     A
O812   Zn824   1.996   .     S
O813   Zn824   1.985   .     S
O813   C815    1.283   .     A
O814   Zn823   1.985   .     S
O814   C816    1.284   .     A
C815   C852    1.417   .     S
C816   C851    1.412   .     S
O817   C821    1.307   .     A
O817   Zn823   1.973   .     S
O818   Zn824   1.973   .     S
O818   C822    1.310   .     A
O819   C821    1.302   .     A
O819   Zn824   1.897   .     S
O820   C822    1.301   .     A
O820   Zn823   1.897   .     S
C821   C825    1.480   .     S
C822   C826    1.484   .     S
Zn823  N857    2.027   .     S
Zn824  N858    2.027   .     S
C825   C829    1.411   .     A
C825   C831    1.417   .     A
C826   C830    1.413   .     A
C826   C832    1.421   .     A
C827   H843    1.081   .     S
C827   C835    1.403   .     A
C827   C829    1.395   .     A
C828   C836    1.404   .     A
C828   H844    1.081   .     S
C828   C830    1.398   .     A
C829   N874    1.438   .     S
C830   N871    1.438   .     S
C831   C833    1.418   .     A
C831   N868    1.440   .     S
C832   C834    1.416   .     A
C832   N865    1.442   .     S
C833   C837    1.426   .     A
C833   C835    1.422   .     A
C834   C838    1.422   .     A
C834   C836    1.418   .     A
C835   C31     1.410   1_556 S
C837   C840    1.410   .     A
C837   C28     1.411   1_556 S
C838   C839    1.408   .     A
C839   H845    1.080   .     S
C839   C841    1.392   .     A
C840   C842    1.398   .     A
C840   H846    1.078   .     S
C841   C859    1.487   .     S
C842   C862    1.489   .     S
C842   C26     1.410   1_556 S
C847   C852    1.407   .     A
C847   C877    1.483   .     S
C847   C1119   1.388   .     S
C848   C880    1.494   .     S
C848   C851    1.407   .     A
C848   C1390   1.393   1_545 S
C849   C851    1.404   .     A
C849   N883    1.443   .     S
C849   C1387   1.388   1_545 S
C850   C852    1.406   .     A
C850   N886    1.439   .     S
C850   C1118   1.393   .     S
C853   N858    1.375   .     A
C853   C889    1.468   .     S
C853   C945    1.423   .     S
C854   C892    1.467   .     S
C854   N857    1.375   .     A
C854   C1036   1.424   1_455 S
C855   N857    1.370   .     A
C855   N895    1.430   .     S
C855   C1033   1.423   1_455 S
C856   N898    1.430   .     S
C856   N858    1.369   .     A
C856   C944    1.424   .     S
C859   O861    1.221   .     D
C859   H860    1.086   .     S
C862   O864    1.222   .     D
C862   H863    1.083   .     S
N865   O866    1.301   .     A
N865   O867    1.302   .     A
N868   O870    1.301   .     A
N868   O869    1.302   .     A
N871   O872    1.301   .     A
N871   O963    1.302   .     S
O873   N1051   1.302   1_455 S
N874   O876    1.301   .     A
N874   O1055   1.302   1_455 S
O875   N964    1.302   .     S
C877   H878    1.084   .     S
C877   O879    1.217   .     D
C880   H881    1.083   .     S
C880   O882    1.221   .     D
N883   O884    1.301   .     A
N883   O885    1.301   .     A
N886   O888    1.301   .     A
N886   O887    1.302   .     A
C889   O891    1.215   .     D
C889   H890    1.084   .     S
C892   H893    1.084   .     S
C892   O894    1.215   .     D
N895   O896    1.301   .     A
N895   O897    1.300   .     A
N898   O900    1.300   .     A
N898   O899    1.301   .     A
O901   C905    1.291   .     A
O901   Zn913   1.996   .     S
O902   C906    1.287   .     A
O902   Zn914   1.996   .     S
O903   Zn914   1.985   .     S
O903   C905    1.283   .     A
O904   Zn913   1.985   .     S
O904   C906    1.284   .     A
C905   C942    1.417   .     S
C906   C941    1.412   .     S
O907   C911    1.307   .     A
O907   Zn913   1.973   .     S
O908   Zn914   1.973   .     S
O908   C912    1.310   .     A
O909   C911    1.302   .     A
O909   Zn914   1.897   .     S
O910   C912    1.301   .     A
O910   Zn913   1.897   .     S
C911   C915    1.480   .     S
C912   C916    1.484   .     S
Zn913  N947    2.027   .     S
Zn914  N948    2.027   .     S
C915   C919    1.411   .     A
C915   C921    1.417   .     A
C916   C920    1.413   .     A
C916   C922    1.421   .     A
C917   H933    1.081   .     S
C917   C925    1.403   .     A
C917   C919    1.395   .     A
C918   C926    1.404   .     A
C918   H934    1.081   .     S
C918   C920    1.398   .     A
C919   N964    1.438   .     S
C920   N961    1.438   .     S
C921   C923    1.418   .     A
C921   N958    1.440   .     S
C922   C924    1.416   .     A
C922   N955    1.442   .     S
C923   C927    1.426   .     A
C923   C925    1.422   .     A
C924   C928    1.422   .     A
C924   C926    1.418   .     A
C925   C121    1.410   1_556 S
C927   C930    1.410   .     A
C927   C118    1.411   1_556 S
C928   C929    1.408   .     A
C929   H935    1.080   .     S
C929   C931    1.392   .     A
C930   C932    1.398   .     A
C930   H936    1.078   .     S
C931   C949    1.487   .     S
C932   C952    1.489   .     S
C932   C116    1.410   1_556 S
C937   C942    1.407   .     A
C937   C967    1.483   .     S
C937   C1209   1.388   .     S
C938   C970    1.494   .     S
C938   C941    1.407   .     A
C938   C1480   1.393   1_545 S
C939   C941    1.404   .     A
C939   N973    1.443   .     S
C939   C1477   1.388   1_545 S
C940   C942    1.406   .     A
C940   N976    1.439   .     S
C940   C1208   1.393   .     S
C943   N948    1.375   .     A
C943   C979    1.468   .     S
C943   C1035   1.423   .     S
C944   C982    1.467   .     S
C944   N947    1.375   .     A
C945   N947    1.370   .     A
C945   N985    1.430   .     S
C946   N988    1.430   .     S
C946   N948    1.369   .     A
C946   C1034   1.424   .     S
C949   O951    1.221   .     D
C949   H950    1.086   .     S
C952   O954    1.222   .     D
C952   H953    1.083   .     S
N955   O956    1.301   .     A
N955   O957    1.302   .     A
N958   O960    1.301   .     A
N958   O959    1.302   .     A
N961   O962    1.301   .     A
N961   O1053   1.302   .     S
N964   O966    1.301   .     A
O965   N1054   1.302   .     S
C967   H968    1.084   .     S
C967   O969    1.217   .     D
C970   H971    1.083   .     S
C970   O972    1.221   .     D
N973   O974    1.301   .     A
N973   O975    1.301   .     A
N976   O978    1.301   .     A
N976   O977    1.302   .     A
C979   O981    1.215   .     D
C979   H980    1.084   .     S
C982   H983    1.084   .     S
C982   O984    1.215   .     D
N985   O986    1.301   .     A
N985   O987    1.300   .     A
N988   O990    1.300   .     A
N988   O989    1.301   .     A
O991   C995    1.291   .     A
O991   Zn1003  1.996   .     S
O992   C996    1.287   .     A
O992   Zn1004  1.996   .     S
O993   Zn1004  1.985   .     S
O993   C995    1.283   .     A
O994   Zn1003  1.985   .     S
O994   C996    1.284   .     A
C995   C1032   1.417   .     S
C996   C1031   1.412   .     S
O997   C1001   1.307   .     A
O997   Zn1003  1.973   .     S
O998   Zn1004  1.973   .     S
O998   C1002   1.310   .     A
O999   C1001   1.302   .     A
O999   Zn1004  1.897   .     S
O1000  C1002   1.301   .     A
O1000  Zn1003  1.897   .     S
C1001  C1005   1.480   .     S
C1002  C1006   1.484   .     S
Zn1003 N1037   2.027   .     S
Zn1004 N1038   2.027   .     S
C1005  C1009   1.411   .     A
C1005  C1011   1.417   .     A
C1006  C1010   1.413   .     A
C1006  C1012   1.421   .     A
C1007  H1023   1.081   .     S
C1007  C1015   1.403   .     A
C1007  C1009   1.395   .     A
C1008  C1016   1.404   .     A
C1008  H1024   1.081   .     S
C1008  C1010   1.398   .     A
C1009  N1054   1.438   .     S
C1010  N1051   1.438   .     S
C1011  C1013   1.418   .     A
C1011  N1048   1.440   .     S
C1012  C1014   1.416   .     A
C1012  N1045   1.442   .     S
C1013  C1017   1.426   .     A
C1013  C1015   1.422   .     A
C1014  C1018   1.422   .     A
C1014  C1016   1.418   .     A
C1015  C211    1.410   1_556 S
C1017  C1020   1.410   .     A
C1017  C208    1.411   1_556 S
C1018  C1019   1.408   .     A
C1019  H1025   1.080   .     S
C1019  C1021   1.392   .     A
C1020  C1022   1.398   .     A
C1020  H1026   1.078   .     S
C1021  C1039   1.487   .     S
C1022  C1042   1.489   .     S
C1022  C206    1.410   1_556 S
C1027  C1032   1.407   .     A
C1027  C1057   1.483   .     S
C1027  C1299   1.388   .     S
C1028  C1060   1.494   .     S
C1028  C1031   1.407   .     A
C1028  C1570   1.393   1_545 S
C1029  C1031   1.404   .     A
C1029  N1063   1.443   .     S
C1029  C1567   1.388   1_545 S
C1030  C1032   1.406   .     A
C1030  N1066   1.439   .     S
C1030  C1298   1.393   .     S
C1033  N1038   1.375   .     A
C1033  C1069   1.468   .     S
C1033  C855    1.423   1_655 S
C1034  C1072   1.467   .     S
C1034  N1037   1.375   .     A
C1035  N1037   1.370   .     A
C1035  N1075   1.430   .     S
C1036  N1078   1.430   .     S
C1036  N1038   1.369   .     A
C1036  C854    1.424   1_655 S
C1039  O1041   1.221   .     D
C1039  H1040   1.086   .     S
C1042  O1044   1.222   .     D
C1042  H1043   1.083   .     S
N1045  O1046   1.301   .     A
N1045  O1047   1.302   .     A
N1048  O1050   1.301   .     A
N1048  O1049   1.302   .     A
N1051  O1052   1.301   .     A
N1051  O873    1.302   1_655 S
N1054  O1056   1.301   .     A
O1055  N874    1.302   1_655 S
C1057  H1058   1.084   .     S
C1057  O1059   1.217   .     D
C1060  H1061   1.083   .     S
C1060  O1062   1.221   .     D
N1063  O1064   1.301   .     A
N1063  O1065   1.301   .     A
N1066  O1068   1.301   .     A
N1066  O1067   1.302   .     A
C1069  O1071   1.215   .     D
C1069  H1070   1.084   .     S
C1072  H1073   1.084   .     S
C1072  O1074   1.215   .     D
N1075  O1076   1.301   .     A
N1075  O1077   1.300   .     A
N1078  O1080   1.300   .     A
N1078  O1079   1.301   .     A
O1081  C1085   1.291   .     A
O1081  Zn1093  1.996   .     S
O1082  C1086   1.287   .     A
O1082  Zn1094  1.996   .     S
O1083  Zn1094  1.985   .     S
O1083  C1085   1.283   .     A
O1084  Zn1093  1.985   .     S
O1084  C1086   1.284   .     A
C1085  C1122   1.417   .     S
C1086  C1121   1.412   .     S
O1087  C1091   1.307   .     A
O1087  Zn1093  1.973   .     S
O1088  Zn1094  1.973   .     S
O1088  C1092   1.310   .     A
O1089  C1091   1.302   .     A
O1089  Zn1094  1.897   .     S
O1090  C1092   1.301   .     A
O1090  Zn1093  1.897   .     S
C1091  C1095   1.480   .     S
C1092  C1096   1.484   .     S
Zn1093 N1127   2.027   .     S
Zn1094 N1128   2.027   .     S
C1095  C1099   1.411   .     A
C1095  C1101   1.417   .     A
C1096  C1100   1.413   .     A
C1096  C1102   1.421   .     A
C1097  H1113   1.081   .     S
C1097  C1105   1.403   .     A
C1097  C1099   1.395   .     A
C1098  C1106   1.404   .     A
C1098  H1114   1.081   .     S
C1098  C1100   1.398   .     A
C1099  N1144   1.438   .     S
C1100  N1141   1.438   .     S
C1101  C1103   1.418   .     A
C1101  N1138   1.440   .     S
C1102  C1104   1.416   .     A
C1102  N1135   1.442   .     S
C1103  C1107   1.426   .     A
C1103  C1105   1.422   .     A
C1104  C1108   1.422   .     A
C1104  C1106   1.418   .     A
C1105  C301    1.410   1_556 S
C1107  C1110   1.410   .     A
C1107  C298    1.411   1_556 S
C1108  C1109   1.408   .     A
C1109  H1115   1.080   .     S
C1109  C1111   1.392   .     A
C1110  C1112   1.398   .     A
C1110  H1116   1.078   .     S
C1111  C1129   1.487   .     S
C1112  C1132   1.489   .     S
C1112  C296    1.410   1_556 S
C1117  C1122   1.407   .     A
C1117  C1147   1.483   .     S
C1117  C1389   1.388   .     S
C1118  C1150   1.494   .     S
C1118  C1121   1.407   .     A
C1119  C1121   1.404   .     A
C1119  N1153   1.443   .     S
C1120  C1122   1.406   .     A
C1120  N1156   1.439   .     S
C1120  C1388   1.393   .     S
C1123  N1128   1.375   .     A
C1123  C1159   1.468   .     S
C1123  C1215   1.423   .     S
C1124  C1162   1.467   .     S
C1124  N1127   1.375   .     A
C1124  C1306   1.424   1_455 S
C1125  N1127   1.370   .     A
C1125  N1165   1.430   .     S
C1125  C1303   1.423   1_455 S
C1126  N1168   1.430   .     S
C1126  N1128   1.369   .     A
C1126  C1214   1.424   .     S
C1129  O1131   1.221   .     D
C1129  H1130   1.086   .     S
C1132  O1134   1.222   .     D
C1132  H1133   1.083   .     S
N1135  O1136   1.301   .     A
N1135  O1137   1.302   .     A
N1138  O1140   1.301   .     A
N1138  O1139   1.302   .     A
N1141  O1142   1.301   .     A
N1141  O1233   1.302   .     S
O1143  N1321   1.302   1_455 S
N1144  O1146   1.301   .     A
N1144  O1325   1.302   1_455 S
O1145  N1234   1.302   .     S
C1147  H1148   1.084   .     S
C1147  O1149   1.217   .     D
C1150  H1151   1.083   .     S
C1150  O1152   1.221   .     D
N1153  O1154   1.301   .     A
N1153  O1155   1.301   .     A
N1156  O1158   1.301   .     A
N1156  O1157   1.302   .     A
C1159  O1161   1.215   .     D
C1159  H1160   1.084   .     S
C1162  H1163   1.084   .     S
C1162  O1164   1.215   .     D
N1165  O1166   1.301   .     A
N1165  O1167   1.300   .     A
N1168  O1170   1.300   .     A
N1168  O1169   1.301   .     A
O1171  C1175   1.291   .     A
O1171  Zn1183  1.996   .     S
O1172  C1176   1.287   .     A
O1172  Zn1184  1.996   .     S
O1173  Zn1184  1.985   .     S
O1173  C1175   1.283   .     A
O1174  Zn1183  1.985   .     S
O1174  C1176   1.284   .     A
C1175  C1212   1.417   .     S
C1176  C1211   1.412   .     S
O1177  C1181   1.307   .     A
O1177  Zn1183  1.973   .     S
O1178  Zn1184  1.973   .     S
O1178  C1182   1.310   .     A
O1179  C1181   1.302   .     A
O1179  Zn1184  1.897   .     S
O1180  C1182   1.301   .     A
O1180  Zn1183  1.897   .     S
C1181  C1185   1.480   .     S
C1182  C1186   1.484   .     S
Zn1183 N1217   2.027   .     S
Zn1184 N1218   2.027   .     S
C1185  C1189   1.411   .     A
C1185  C1191   1.417   .     A
C1186  C1190   1.413   .     A
C1186  C1192   1.421   .     A
C1187  H1203   1.081   .     S
C1187  C1195   1.403   .     A
C1187  C1189   1.395   .     A
C1188  C1196   1.404   .     A
C1188  H1204   1.081   .     S
C1188  C1190   1.398   .     A
C1189  N1234   1.438   .     S
C1190  N1231   1.438   .     S
C1191  C1193   1.418   .     A
C1191  N1228   1.440   .     S
C1192  C1194   1.416   .     A
C1192  N1225   1.442   .     S
C1193  C1197   1.426   .     A
C1193  C1195   1.422   .     A
C1194  C1198   1.422   .     A
C1194  C1196   1.418   .     A
C1195  C391    1.410   1_556 S
C1197  C1200   1.410   .     A
C1197  C388    1.411   1_556 S
C1198  C1199   1.408   .     A
C1199  H1205   1.080   .     S
C1199  C1201   1.392   .     A
C1200  C1202   1.398   .     A
C1200  H1206   1.078   .     S
C1201  C1219   1.487   .     S
C1202  C1222   1.489   .     S
C1202  C386    1.410   1_556 S
C1207  C1212   1.407   .     A
C1207  C1237   1.483   .     S
C1207  C1479   1.388   .     S
C1208  C1240   1.494   .     S
C1208  C1211   1.407   .     A
C1209  C1211   1.404   .     A
C1209  N1243   1.443   .     S
C1210  C1212   1.406   .     A
C1210  N1246   1.439   .     S
C1210  C1478   1.393   .     S
C1213  N1218   1.375   .     A
C1213  C1249   1.468   .     S
C1213  C1305   1.423   .     S
C1214  C1252   1.467   .     S
C1214  N1217   1.375   .     A
C1215  N1217   1.370   .     A
C1215  N1255   1.430   .     S
C1216  N1258   1.430   .     S
C1216  N1218   1.369   .     A
C1216  C1304   1.424   .     S
C1219  O1221   1.221   .     D
C1219  H1220   1.086   .     S
C1222  O1224   1.222   .     D
C1222  H1223   1.083   .     S
N1225  O1226   1.301   .     A
N1225  O1227   1.302   .     A
N1228  O1230   1.301   .     A
N1228  O1229   1.302   .     A
N1231  O1232   1.301   .     A
N1231  O1323   1.302   .     S
N1234  O1236   1.301   .     A
O1235  N1324   1.302   .     S
C1237  H1238   1.084   .     S
C1237  O1239   1.217   .     D
C1240  H1241   1.083   .     S
C1240  O1242   1.221   .     D
N1243  O1244   1.301   .     A
N1243  O1245   1.301   .     A
N1246  O1248   1.301   .     A
N1246  O1247   1.302   .     A
C1249  O1251   1.215   .     D
C1249  H1250   1.084   .     S
C1252  H1253   1.084   .     S
C1252  O1254   1.215   .     D
N1255  O1256   1.301   .     A
N1255  O1257   1.300   .     A
N1258  O1260   1.300   .     A
N1258  O1259   1.301   .     A
O1261  C1265   1.291   .     A
O1261  Zn1273  1.996   .     S
O1262  C1266   1.287   .     A
O1262  Zn1274  1.996   .     S
O1263  Zn1274  1.985   .     S
O1263  C1265   1.283   .     A
O1264  Zn1273  1.985   .     S
O1264  C1266   1.284   .     A
C1265  C1302   1.417   .     S
C1266  C1301   1.412   .     S
O1267  C1271   1.307   .     A
O1267  Zn1273  1.973   .     S
O1268  Zn1274  1.973   .     S
O1268  C1272   1.310   .     A
O1269  C1271   1.302   .     A
O1269  Zn1274  1.897   .     S
O1270  C1272   1.301   .     A
O1270  Zn1273  1.897   .     S
C1271  C1275   1.480   .     S
C1272  C1276   1.484   .     S
Zn1273 N1307   2.027   .     S
Zn1274 N1308   2.027   .     S
C1275  C1279   1.411   .     A
C1275  C1281   1.417   .     A
C1276  C1280   1.413   .     A
C1276  C1282   1.421   .     A
C1277  H1293   1.081   .     S
C1277  C1285   1.403   .     A
C1277  C1279   1.395   .     A
C1278  C1286   1.404   .     A
C1278  H1294   1.081   .     S
C1278  C1280   1.398   .     A
C1279  N1324   1.438   .     S
C1280  N1321   1.438   .     S
C1281  C1283   1.418   .     A
C1281  N1318   1.440   .     S
C1282  C1284   1.416   .     A
C1282  N1315   1.442   .     S
C1283  C1287   1.426   .     A
C1283  C1285   1.422   .     A
C1284  C1288   1.422   .     A
C1284  C1286   1.418   .     A
C1285  C481    1.410   1_556 S
C1287  C1290   1.410   .     A
C1287  C478    1.411   1_556 S
C1288  C1289   1.408   .     A
C1289  H1295   1.080   .     S
C1289  C1291   1.392   .     A
C1290  C1292   1.398   .     A
C1290  H1296   1.078   .     S
C1291  C1309   1.487   .     S
C1292  C1312   1.489   .     S
C1292  C476    1.410   1_556 S
C1297  C1302   1.407   .     A
C1297  C1327   1.483   .     S
C1297  C1569   1.388   .     S
C1298  C1330   1.494   .     S
C1298  C1301   1.407   .     A
C1299  C1301   1.404   .     A
C1299  N1333   1.443   .     S
C1300  C1302   1.406   .     A
C1300  N1336   1.439   .     S
C1300  C1568   1.393   .     S
C1303  N1308   1.375   .     A
C1303  C1339   1.468   .     S
C1303  C1125   1.423   1_655 S
C1304  C1342   1.467   .     S
C1304  N1307   1.375   .     A
C1305  N1307   1.370   .     A
C1305  N1345   1.430   .     S
C1306  N1348   1.430   .     S
C1306  N1308   1.369   .     A
C1306  C1124   1.424   1_655 S
C1309  O1311   1.221   .     D
C1309  H1310   1.086   .     S
C1312  O1314   1.222   .     D
C1312  H1313   1.083   .     S
N1315  O1316   1.301   .     A
N1315  O1317   1.302   .     A
N1318  O1320   1.301   .     A
N1318  O1319   1.302   .     A
N1321  O1322   1.301   .     A
N1321  O1143   1.302   1_655 S
N1324  O1326   1.301   .     A
O1325  N1144   1.302   1_655 S
C1327  H1328   1.084   .     S
C1327  O1329   1.217   .     D
C1330  H1331   1.083   .     S
C1330  O1332   1.221   .     D
N1333  O1334   1.301   .     A
N1333  O1335   1.301   .     A
N1336  O1338   1.301   .     A
N1336  O1337   1.302   .     A
C1339  O1341   1.215   .     D
C1339  H1340   1.084   .     S
C1342  H1343   1.084   .     S
C1342  O1344   1.215   .     D
N1345  O1346   1.301   .     A
N1345  O1347   1.300   .     A
N1348  O1350   1.300   .     A
N1348  O1349   1.301   .     A
O1351  C1355   1.291   .     A
O1351  Zn1363  1.996   .     S
O1352  C1356   1.287   .     A
O1352  Zn1364  1.996   .     S
O1353  Zn1364  1.985   .     S
O1353  C1355   1.283   .     A
O1354  Zn1363  1.985   .     S
O1354  C1356   1.284   .     A
C1355  C1392   1.417   .     S
C1356  C1391   1.412   .     S
O1357  C1361   1.307   .     A
O1357  Zn1363  1.973   .     S
O1358  Zn1364  1.973   .     S
O1358  C1362   1.310   .     A
O1359  C1361   1.302   .     A
O1359  Zn1364  1.897   .     S
O1360  C1362   1.301   .     A
O1360  Zn1363  1.897   .     S
C1361  C1365   1.480   .     S
C1362  C1366   1.484   .     S
Zn1363 N1397   2.027   .     S
Zn1364 N1398   2.027   .     S
C1365  C1369   1.411   .     A
C1365  C1371   1.417   .     A
C1366  C1370   1.413   .     A
C1366  C1372   1.421   .     A
C1367  H1383   1.081   .     S
C1367  C1375   1.403   .     A
C1367  C1369   1.395   .     A
C1368  C1376   1.404   .     A
C1368  H1384   1.081   .     S
C1368  C1370   1.398   .     A
C1369  N1414   1.438   .     S
C1370  N1411   1.438   .     S
C1371  C1373   1.418   .     A
C1371  N1408   1.440   .     S
C1372  C1374   1.416   .     A
C1372  N1405   1.442   .     S
C1373  C1377   1.426   .     A
C1373  C1375   1.422   .     A
C1374  C1378   1.422   .     A
C1374  C1376   1.418   .     A
C1375  C571    1.410   1_556 S
C1377  C1380   1.410   .     A
C1377  C568    1.411   1_556 S
C1378  C1379   1.408   .     A
C1379  H1385   1.080   .     S
C1379  C1381   1.392   .     A
C1380  C1382   1.398   .     A
C1380  H1386   1.078   .     S
C1381  C1399   1.487   .     S
C1382  C1402   1.489   .     S
C1382  C566    1.410   1_556 S
C1387  C1392   1.407   .     A
C1387  C1417   1.483   .     S
C1387  C849    1.388   1_565 S
C1388  C1420   1.494   .     S
C1388  C1391   1.407   .     A
C1389  C1391   1.404   .     A
C1389  N1423   1.443   .     S
C1390  C1392   1.406   .     A
C1390  N1426   1.439   .     S
C1390  C848    1.393   1_565 S
C1393  N1398   1.375   .     A
C1393  C1429   1.468   .     S
C1393  C1485   1.423   .     S
C1394  C1432   1.467   .     S
C1394  N1397   1.375   .     A
C1394  C1576   1.424   1_455 S
C1395  N1397   1.370   .     A
C1395  N1435   1.430   .     S
C1395  C1573   1.423   1_455 S
C1396  N1438   1.430   .     S
C1396  N1398   1.369   .     A
C1396  C1484   1.424   .     S
C1399  O1401   1.221   .     D
C1399  H1400   1.086   .     S
C1402  O1404   1.222   .     D
C1402  H1403   1.083   .     S
N1405  O1406   1.301   .     A
N1405  O1407   1.302   .     A
N1408  O1410   1.301   .     A
N1408  O1409   1.302   .     A
N1411  O1412   1.301   .     A
N1411  O1503   1.302   .     S
O1413  N1591   1.302   1_455 S
N1414  O1416   1.301   .     A
N1414  O1595   1.302   1_455 S
O1415  N1504   1.302   .     S
C1417  H1418   1.084   .     S
C1417  O1419   1.217   .     D
C1420  H1421   1.083   .     S
C1420  O1422   1.221   .     D
N1423  O1424   1.301   .     A
N1423  O1425   1.301   .     A
N1426  O1428   1.301   .     A
N1426  O1427   1.302   .     A
C1429  O1431   1.215   .     D
C1429  H1430   1.084   .     S
C1432  H1433   1.084   .     S
C1432  O1434   1.215   .     D
N1435  O1436   1.301   .     A
N1435  O1437   1.300   .     A
N1438  O1440   1.300   .     A
N1438  O1439   1.301   .     A
O1441  C1445   1.291   .     A
O1441  Zn1453  1.996   .     S
O1442  C1446   1.287   .     A
O1442  Zn1454  1.996   .     S
O1443  Zn1454  1.985   .     S
O1443  C1445   1.283   .     A
O1444  Zn1453  1.985   .     S
O1444  C1446   1.284   .     A
C1445  C1482   1.417   .     S
C1446  C1481   1.412   .     S
O1447  C1451   1.307   .     A
O1447  Zn1453  1.973   .     S
O1448  Zn1454  1.973   .     S
O1448  C1452   1.310   .     A
O1449  C1451   1.302   .     A
O1449  Zn1454  1.897   .     S
O1450  C1452   1.301   .     A
O1450  Zn1453  1.897   .     S
C1451  C1455   1.480   .     S
C1452  C1456   1.484   .     S
Zn1453 N1487   2.027   .     S
Zn1454 N1488   2.027   .     S
C1455  C1459   1.411   .     A
C1455  C1461   1.417   .     A
C1456  C1460   1.413   .     A
C1456  C1462   1.421   .     A
C1457  H1473   1.081   .     S
C1457  C1465   1.403   .     A
C1457  C1459   1.395   .     A
C1458  C1466   1.404   .     A
C1458  H1474   1.081   .     S
C1458  C1460   1.398   .     A
C1459  N1504   1.438   .     S
C1460  N1501   1.438   .     S
C1461  C1463   1.418   .     A
C1461  N1498   1.440   .     S
C1462  C1464   1.416   .     A
C1462  N1495   1.442   .     S
C1463  C1467   1.426   .     A
C1463  C1465   1.422   .     A
C1464  C1468   1.422   .     A
C1464  C1466   1.418   .     A
C1465  C661    1.410   1_556 S
C1467  C1470   1.410   .     A
C1467  C658    1.411   1_556 S
C1468  C1469   1.408   .     A
C1469  H1475   1.080   .     S
C1469  C1471   1.392   .     A
C1470  C1472   1.398   .     A
C1470  H1476   1.078   .     S
C1471  C1489   1.487   .     S
C1472  C1492   1.489   .     S
C1472  C656    1.410   1_556 S
C1477  C1482   1.407   .     A
C1477  C1507   1.483   .     S
C1477  C939    1.388   1_565 S
C1478  C1510   1.494   .     S
C1478  C1481   1.407   .     A
C1479  C1481   1.404   .     A
C1479  N1513   1.443   .     S
C1480  C1482   1.406   .     A
C1480  N1516   1.439   .     S
C1480  C938    1.393   1_565 S
C1483  N1488   1.375   .     A
C1483  C1519   1.468   .     S
C1483  C1575   1.423   .     S
C1484  C1522   1.467   .     S
C1484  N1487   1.375   .     A
C1485  N1487   1.370   .     A
C1485  N1525   1.430   .     S
C1486  N1528   1.430   .     S
C1486  N1488   1.369   .     A
C1486  C1574   1.424   .     S
C1489  O1491   1.221   .     D
C1489  H1490   1.086   .     S
C1492  O1494   1.222   .     D
C1492  H1493   1.083   .     S
N1495  O1496   1.301   .     A
N1495  O1497   1.302   .     A
N1498  O1500   1.301   .     A
N1498  O1499   1.302   .     A
N1501  O1502   1.301   .     A
N1501  O1593   1.302   .     S
N1504  O1506   1.301   .     A
O1505  N1594   1.302   .     S
C1507  H1508   1.084   .     S
C1507  O1509   1.217   .     D
C1510  H1511   1.083   .     S
C1510  O1512   1.221   .     D
N1513  O1514   1.301   .     A
N1513  O1515   1.301   .     A
N1516  O1518   1.301   .     A
N1516  O1517   1.302   .     A
C1519  O1521   1.215   .     D
C1519  H1520   1.084   .     S
C1522  H1523   1.084   .     S
C1522  O1524   1.215   .     D
N1525  O1526   1.301   .     A
N1525  O1527   1.300   .     A
N1528  O1530   1.300   .     A
N1528  O1529   1.301   .     A
O1531  C1535   1.291   .     A
O1531  Zn1543  1.996   .     S
O1532  C1536   1.287   .     A
O1532  Zn1544  1.996   .     S
O1533  Zn1544  1.985   .     S
O1533  C1535   1.283   .     A
O1534  Zn1543  1.985   .     S
O1534  C1536   1.284   .     A
C1535  C1572   1.417   .     S
C1536  C1571   1.412   .     S
O1537  C1541   1.307   .     A
O1537  Zn1543  1.973   .     S
O1538  Zn1544  1.973   .     S
O1538  C1542   1.310   .     A
O1539  C1541   1.302   .     A
O1539  Zn1544  1.897   .     S
O1540  C1542   1.301   .     A
O1540  Zn1543  1.897   .     S
C1541  C1545   1.480   .     S
C1542  C1546   1.484   .     S
Zn1543 N1577   2.027   .     S
Zn1544 N1578   2.027   .     S
C1545  C1549   1.411   .     A
C1545  C1551   1.417   .     A
C1546  C1550   1.413   .     A
C1546  C1552   1.421   .     A
C1547  H1563   1.081   .     S
C1547  C1555   1.403   .     A
C1547  C1549   1.395   .     A
C1548  C1556   1.404   .     A
C1548  H1564   1.081   .     S
C1548  C1550   1.398   .     A
C1549  N1594   1.438   .     S
C1550  N1591   1.438   .     S
C1551  C1553   1.418   .     A
C1551  N1588   1.440   .     S
C1552  C1554   1.416   .     A
C1552  N1585   1.442   .     S
C1553  C1557   1.426   .     A
C1553  C1555   1.422   .     A
C1554  C1558   1.422   .     A
C1554  C1556   1.418   .     A
C1555  C751    1.410   1_556 S
C1557  C1560   1.410   .     A
C1557  C748    1.411   1_556 S
C1558  C1559   1.408   .     A
C1559  H1565   1.080   .     S
C1559  C1561   1.392   .     A
C1560  C1562   1.398   .     A
C1560  H1566   1.078   .     S
C1561  C1579   1.487   .     S
C1562  C1582   1.489   .     S
C1562  C746    1.410   1_556 S
C1567  C1572   1.407   .     A
C1567  C1597   1.483   .     S
C1567  C1029   1.388   1_565 S
C1568  C1600   1.494   .     S
C1568  C1571   1.407   .     A
C1569  C1571   1.404   .     A
C1569  N1603   1.443   .     S
C1570  C1572   1.406   .     A
C1570  N1606   1.439   .     S
C1570  C1028   1.393   1_565 S
C1573  N1578   1.375   .     A
C1573  C1609   1.468   .     S
C1573  C1395   1.423   1_655 S
C1574  C1612   1.467   .     S
C1574  N1577   1.375   .     A
C1575  N1577   1.370   .     A
C1575  N1615   1.430   .     S
C1576  N1618   1.430   .     S
C1576  N1578   1.369   .     A
C1576  C1394   1.424   1_655 S
C1579  O1581   1.221   .     D
C1579  H1580   1.086   .     S
C1582  O1584   1.222   .     D
C1582  H1583   1.083   .     S
N1585  O1586   1.301   .     A
N1585  O1587   1.302   .     A
N1588  O1590   1.301   .     A
N1588  O1589   1.302   .     A
N1591  O1592   1.301   .     A
N1591  O1413   1.302   1_655 S
N1594  O1596   1.301   .     A
O1595  N1414   1.302   1_655 S
C1597  H1598   1.084   .     S
C1597  O1599   1.217   .     D
C1600  H1601   1.083   .     S
C1600  O1602   1.221   .     D
N1603  O1604   1.301   .     A
N1603  O1605   1.301   .     A
N1606  O1608   1.301   .     A
N1606  O1607   1.302   .     A
C1609  O1611   1.215   .     D
C1609  H1610   1.084   .     S
C1612  H1613   1.084   .     S
C1612  O1614   1.215   .     D
N1615  O1616   1.301   .     A
N1615  O1617   1.300   .     A
N1618  O1620   1.300   .     A
N1618  O1619   1.301   .     A
