data_str_m3_o1_o17_pcu_sym.111
_audit_creation_date              2020-01-03
_audit_creation_method            'Materials Studio'
_symmetry_space_group_name_H-M    'P1'
_symmetry_Int_Tables_number       1
_symmetry_cell_setting            triclinic
loop_
_symmetry_equiv_pos_as_xyz
  x,y,z
_cell_length_a                    32.1130
_cell_length_b                    29.6654
_cell_length_c                    29.7477
_cell_angle_alpha                 89.7485
_cell_angle_beta                  91.8874
_cell_angle_gamma                 89.4652
loop_
_atom_site_label
_atom_site_type_symbol
_atom_site_fract_x
_atom_site_fract_y
_atom_site_fract_z
_atom_site_U_iso_or_equiv
_atom_site_adp_type
_atom_site_occupancy
C1     C     0.08688   0.16686   0.25454   0.00000  Uiso   1.00
C2     C     0.24650   0.16641   0.24541   0.00000  Uiso   1.00
C3     C     0.10124   0.20809   0.02297   0.00000  Uiso   1.00
C4     C     0.24260   0.15157   0.47686   0.00000  Uiso   1.00
C5     C     0.02140   0.12582   0.26030   0.00000  Uiso   1.00
C6     C     0.31222   0.20720   0.24063   0.00000  Uiso   1.00
C7     C     0.31325   0.12471   0.24693   0.00000  Uiso   1.00
C8     C     0.02023   0.20820   0.25450   0.00000  Uiso   1.00
C9     C     0.29112   0.16581   0.24126   0.00000  Uiso   1.00
C10    C     0.04239   0.16721   0.25930   0.00000  Uiso   1.00
C11    C     0.19162   0.02354   0.27998   0.00000  Uiso   1.00
C12    C     0.14146   0.30980   0.22029   0.00000  Uiso   1.00
C13    C     0.14141   0.02434   0.22033   0.00000  Uiso   1.00
C14    C     0.19188   0.30900   0.27972   0.00000  Uiso   1.00
C15    C     0.16745   0.16680   0.16352   0.00000  Uiso   1.00
C16    C     0.16645   0.16664   0.33643   0.00000  Uiso   1.00
C17    C     0.20362   0.15925   0.40724   0.00000  Uiso   1.00
C18    C     0.13649   0.18892   0.09248   0.00000  Uiso   1.00
C19    C     0.16615   0.16728   0.38414   0.00000  Uiso   1.00
C20    C     0.16936   0.16793   0.11573   0.00000  Uiso   1.00
C21    C     0.12988   0.17999   0.40578   0.00000  Uiso   1.00
C22    C     0.20454   0.15167   0.09407   0.00000  Uiso   1.00
C23    C     0.13228   0.18851   0.45234   0.00000  Uiso   1.00
C24    C     0.20770   0.15981   0.04752   0.00000  Uiso   1.00
C25    C     0.16980   0.17592   0.47640   0.00000  Uiso   1.00
C26    C     0.17144   0.17595   0.02338   0.00000  Uiso   1.00
C27    C     0.20536   0.16184   0.45352   0.00000  Uiso   1.00
C28    C     0.13623   0.19086   0.04626   0.00000  Uiso   1.00
C29    C     0.09890   0.20790   0.47618   0.00000  Uiso   1.00
C30    C     0.24470   0.15150   0.02372   0.00000  Uiso   1.00
H31    H     0.23118   0.15013   0.38899   0.00000  Uiso   1.00
H32    H     0.11003   0.20162   0.11053   0.00000  Uiso   1.00
H33    H     0.07563   0.22221   0.04143   0.00000  Uiso   1.00
H34    H     0.27045   0.14421   0.45840   0.00000  Uiso   1.00
N35    N     0.16667   0.28573   0.25000   0.00000  Uiso   1.00
N36    N     0.16667   0.04760   0.25000   0.00000  Uiso   1.00
O37    O     0.10559   0.20487   0.24999   0.00000  Uiso   1.00
O38    O     0.22774   0.12846   0.25001   0.00000  Uiso   1.00
O39    O     0.22774   0.20487   0.25000   0.00000  Uiso   1.00
O40    O     0.10559   0.12846   0.25000   0.00000  Uiso   1.00
O41    O     0.16666   0.20489   0.18392   0.00000  Uiso   1.00
O42    O     0.16667   0.12844   0.31608   0.00000  Uiso   1.00
O43    O     0.16667   0.20489   0.31608   0.00000  Uiso   1.00
O44    O     0.16666   0.12844   0.18392   0.00000  Uiso   1.00
Zn45   Zn    0.16667   0.21771   0.25000   0.00000  Uiso   1.00
Zn46   Zn    0.16667   0.11563   0.25000   0.00000  Uiso   1.00
Br47   Br    0.07760   0.17568   0.37178   0.00000  Uiso   1.00
Br48   Br    0.24315   0.11291   0.12784   0.00000  Uiso   1.00
C49    C     0.06339   0.23283   0.45444   0.00000  Uiso   1.00
C50    C     0.07055   0.27052   0.42702   0.00000  Uiso   1.00
C51    C     0.03701   0.29420   0.40677   0.00000  Uiso   1.00
C52    C     0.32950   0.28083   0.41418   0.00000  Uiso   1.00
C53    C     0.32209   0.24386   0.44200   0.00000  Uiso   1.00
C54    C     0.02219   0.22001   0.46226   0.00000  Uiso   1.00
H55    H     0.10206   0.28125   0.42111   0.00000  Uiso   1.00
H56    H     0.04268   0.32293   0.38534   0.00000  Uiso   1.00
H57    H     0.30359   0.29921   0.39847   0.00000  Uiso   1.00
H58    H     0.29044   0.23369   0.44784   0.00000  Uiso   1.00
H59    H     0.01607   0.19130   0.48357   0.00000  Uiso   1.00
C60    C     0.28675   0.14767   0.04564   0.00000  Uiso   1.00
C61    C     0.30188   0.18219   0.07388   0.00000  Uiso   1.00
C62    C     0.00772   0.17788   0.09555   0.00000  Uiso   1.00
C63    C     0.03226   0.13954   0.08864   0.00000  Uiso   1.00
C64    C     0.01803   0.10578   0.05953   0.00000  Uiso   1.00
C65    C     0.31216   0.10982   0.03794   0.00000  Uiso   1.00
H66    H     0.28305   0.21196   0.07964   0.00000  Uiso   1.00
H67    H     0.01896   0.20415   0.11786   0.00000  Uiso   1.00
H68    H     0.06232   0.13592   0.10581   0.00000  Uiso   1.00
H69    H     0.03724   0.07628   0.05400   0.00000  Uiso   1.00
H70    H     0.30126   0.08311   0.01595   0.00000  Uiso   1.00
Br71   Br    0.04637   0.07134   0.28634   0.00000  Uiso   1.00
Br72   Br    0.28782   0.26194   0.21478   0.00000  Uiso   1.00
Br73   Br    0.29071   0.06646   0.23024   0.00000  Uiso   1.00
Br74   Br    0.04258   0.26554   0.27440   0.00000  Uiso   1.00
Br75   Br    0.22637   0.05426   0.32367   0.00000  Uiso   1.00
Br76   Br    0.10562   0.27902   0.17777   0.00000  Uiso   1.00
Br77   Br    0.10478   0.05627   0.17852   0.00000  Uiso   1.00
Br78   Br    0.22851   0.27706   0.32152   0.00000  Uiso   1.00
C79    C     0.42021   0.16686   0.25454   0.00000  Uiso   1.00
C80    C     0.57983   0.16641   0.24541   0.00000  Uiso   1.00
C81    C     0.43457   0.20809   0.02297   0.00000  Uiso   1.00
C82    C     0.57594   0.15157   0.47686   0.00000  Uiso   1.00
C83    C     0.35474   0.12582   0.26030   0.00000  Uiso   1.00
C84    C     0.64555   0.20720   0.24063   0.00000  Uiso   1.00
C85    C     0.64658   0.12471   0.24693   0.00000  Uiso   1.00
C86    C     0.35356   0.20820   0.25450   0.00000  Uiso   1.00
C87    C     0.62445   0.16581   0.24126   0.00000  Uiso   1.00
C88    C     0.37572   0.16721   0.25930   0.00000  Uiso   1.00
C89    C     0.52496   0.02354   0.27998   0.00000  Uiso   1.00
C90    C     0.47479   0.30980   0.22029   0.00000  Uiso   1.00
C91    C     0.47474   0.02434   0.22033   0.00000  Uiso   1.00
C92    C     0.52522   0.30900   0.27972   0.00000  Uiso   1.00
C93    C     0.50078   0.16680   0.16352   0.00000  Uiso   1.00
C94    C     0.49979   0.16664   0.33643   0.00000  Uiso   1.00
C95    C     0.53695   0.15925   0.40724   0.00000  Uiso   1.00
C96    C     0.46982   0.18892   0.09248   0.00000  Uiso   1.00
C97    C     0.49949   0.16728   0.38414   0.00000  Uiso   1.00
C98    C     0.50269   0.16793   0.11573   0.00000  Uiso   1.00
C99    C     0.46322   0.17999   0.40578   0.00000  Uiso   1.00
C100   C     0.53788   0.15167   0.09407   0.00000  Uiso   1.00
C101   C     0.46561   0.18851   0.45234   0.00000  Uiso   1.00
C102   C     0.54104   0.15981   0.04752   0.00000  Uiso   1.00
C103   C     0.50313   0.17592   0.47640   0.00000  Uiso   1.00
C104   C     0.50478   0.17595   0.02338   0.00000  Uiso   1.00
C105   C     0.53869   0.16184   0.45352   0.00000  Uiso   1.00
C106   C     0.46956   0.19086   0.04626   0.00000  Uiso   1.00
C107   C     0.43223   0.20790   0.47618   0.00000  Uiso   1.00
C108   C     0.57803   0.15150   0.02372   0.00000  Uiso   1.00
H109   H     0.56452   0.15013   0.38899   0.00000  Uiso   1.00
H110   H     0.44336   0.20162   0.11053   0.00000  Uiso   1.00
H111   H     0.40896   0.22221   0.04143   0.00000  Uiso   1.00
H112   H     0.60378   0.14421   0.45840   0.00000  Uiso   1.00
N113   N     0.50000   0.28573   0.25000   0.00000  Uiso   1.00
N114   N     0.50000   0.04760   0.25000   0.00000  Uiso   1.00
O115   O     0.43892   0.20487   0.24999   0.00000  Uiso   1.00
O116   O     0.56108   0.12846   0.25001   0.00000  Uiso   1.00
O117   O     0.56108   0.20487   0.25000   0.00000  Uiso   1.00
O118   O     0.43892   0.12846   0.25000   0.00000  Uiso   1.00
O119   O     0.49999   0.20489   0.18392   0.00000  Uiso   1.00
O120   O     0.50001   0.12844   0.31608   0.00000  Uiso   1.00
O121   O     0.50001   0.20489   0.31608   0.00000  Uiso   1.00
O122   O     0.49999   0.12844   0.18392   0.00000  Uiso   1.00
Zn123  Zn    0.50000   0.21771   0.25000   0.00000  Uiso   1.00
Zn124  Zn    0.50000   0.11563   0.25000   0.00000  Uiso   1.00
Br125  Br    0.41094   0.17568   0.37178   0.00000  Uiso   1.00
Br126  Br    0.57649   0.11291   0.12784   0.00000  Uiso   1.00
C127   C     0.39672   0.23283   0.45444   0.00000  Uiso   1.00
C128   C     0.40389   0.27052   0.42702   0.00000  Uiso   1.00
C129   C     0.37034   0.29420   0.40677   0.00000  Uiso   1.00
C130   C     0.66283   0.28083   0.41418   0.00000  Uiso   1.00
C131   C     0.65542   0.24386   0.44200   0.00000  Uiso   1.00
C132   C     0.35552   0.22001   0.46226   0.00000  Uiso   1.00
H133   H     0.43539   0.28125   0.42111   0.00000  Uiso   1.00
H134   H     0.37601   0.32293   0.38534   0.00000  Uiso   1.00
H135   H     0.63693   0.29921   0.39847   0.00000  Uiso   1.00
H136   H     0.62377   0.23369   0.44784   0.00000  Uiso   1.00
H137   H     0.34941   0.19130   0.48357   0.00000  Uiso   1.00
C138   C     0.62008   0.14767   0.04564   0.00000  Uiso   1.00
C139   C     0.63521   0.18219   0.07388   0.00000  Uiso   1.00
C140   C     0.34105   0.17788   0.09555   0.00000  Uiso   1.00
C141   C     0.36560   0.13954   0.08864   0.00000  Uiso   1.00
C142   C     0.35136   0.10578   0.05953   0.00000  Uiso   1.00
C143   C     0.64549   0.10982   0.03794   0.00000  Uiso   1.00
H144   H     0.61638   0.21196   0.07964   0.00000  Uiso   1.00
H145   H     0.35229   0.20415   0.11786   0.00000  Uiso   1.00
H146   H     0.39566   0.13592   0.10581   0.00000  Uiso   1.00
H147   H     0.37057   0.07628   0.05400   0.00000  Uiso   1.00
H148   H     0.63460   0.08311   0.01595   0.00000  Uiso   1.00
Br149  Br    0.37970   0.07134   0.28634   0.00000  Uiso   1.00
Br150  Br    0.62115   0.26194   0.21478   0.00000  Uiso   1.00
Br151  Br    0.62404   0.06646   0.23024   0.00000  Uiso   1.00
Br152  Br    0.37592   0.26554   0.27440   0.00000  Uiso   1.00
Br153  Br    0.55970   0.05426   0.32367   0.00000  Uiso   1.00
Br154  Br    0.43895   0.27902   0.17777   0.00000  Uiso   1.00
Br155  Br    0.43811   0.05627   0.17852   0.00000  Uiso   1.00
Br156  Br    0.56185   0.27706   0.32152   0.00000  Uiso   1.00
C157   C     0.75354   0.16686   0.25454   0.00000  Uiso   1.00
C158   C     0.91317   0.16641   0.24541   0.00000  Uiso   1.00
C159   C     0.76790   0.20809   0.02297   0.00000  Uiso   1.00
C160   C     0.90927   0.15157   0.47686   0.00000  Uiso   1.00
C161   C     0.68807   0.12582   0.26030   0.00000  Uiso   1.00
C162   C     0.97889   0.20720   0.24063   0.00000  Uiso   1.00
C163   C     0.97992   0.12471   0.24693   0.00000  Uiso   1.00
C164   C     0.68690   0.20820   0.25450   0.00000  Uiso   1.00
C165   C     0.95778   0.16581   0.24126   0.00000  Uiso   1.00
C166   C     0.70906   0.16721   0.25930   0.00000  Uiso   1.00
C167   C     0.85829   0.02354   0.27998   0.00000  Uiso   1.00
C168   C     0.80812   0.30980   0.22029   0.00000  Uiso   1.00
C169   C     0.80807   0.02434   0.22033   0.00000  Uiso   1.00
C170   C     0.85855   0.30900   0.27972   0.00000  Uiso   1.00
C171   C     0.83411   0.16680   0.16352   0.00000  Uiso   1.00
C172   C     0.83312   0.16664   0.33643   0.00000  Uiso   1.00
C173   C     0.87028   0.15925   0.40724   0.00000  Uiso   1.00
C174   C     0.80315   0.18892   0.09248   0.00000  Uiso   1.00
C175   C     0.83282   0.16728   0.38414   0.00000  Uiso   1.00
C176   C     0.83602   0.16793   0.11573   0.00000  Uiso   1.00
C177   C     0.79655   0.17999   0.40578   0.00000  Uiso   1.00
C178   C     0.87121   0.15167   0.09407   0.00000  Uiso   1.00
C179   C     0.79895   0.18851   0.45234   0.00000  Uiso   1.00
C180   C     0.87437   0.15981   0.04752   0.00000  Uiso   1.00
C181   C     0.83646   0.17592   0.47640   0.00000  Uiso   1.00
C182   C     0.83811   0.17595   0.02338   0.00000  Uiso   1.00
C183   C     0.87202   0.16184   0.45352   0.00000  Uiso   1.00
C184   C     0.80289   0.19086   0.04626   0.00000  Uiso   1.00
C185   C     0.76557   0.20790   0.47618   0.00000  Uiso   1.00
C186   C     0.91137   0.15150   0.02372   0.00000  Uiso   1.00
H187   H     0.89785   0.15013   0.38899   0.00000  Uiso   1.00
H188   H     0.77669   0.20162   0.11053   0.00000  Uiso   1.00
H189   H     0.74230   0.22221   0.04143   0.00000  Uiso   1.00
H190   H     0.93712   0.14421   0.45840   0.00000  Uiso   1.00
N191   N     0.83333   0.28573   0.25000   0.00000  Uiso   1.00
N192   N     0.83333   0.04760   0.25000   0.00000  Uiso   1.00
O193   O     0.77226   0.20487   0.24999   0.00000  Uiso   1.00
O194   O     0.89441   0.12846   0.25001   0.00000  Uiso   1.00
O195   O     0.89441   0.20487   0.25000   0.00000  Uiso   1.00
O196   O     0.77226   0.12846   0.25000   0.00000  Uiso   1.00
O197   O     0.83333   0.20489   0.18392   0.00000  Uiso   1.00
O198   O     0.83334   0.12844   0.31608   0.00000  Uiso   1.00
O199   O     0.83334   0.20489   0.31608   0.00000  Uiso   1.00
O200   O     0.83333   0.12844   0.18392   0.00000  Uiso   1.00
Zn201  Zn    0.83333   0.21771   0.25000   0.00000  Uiso   1.00
Zn202  Zn    0.83333   0.11563   0.25000   0.00000  Uiso   1.00
Br203  Br    0.74427   0.17568   0.37178   0.00000  Uiso   1.00
Br204  Br    0.90982   0.11291   0.12784   0.00000  Uiso   1.00
C205   C     0.73005   0.23283   0.45444   0.00000  Uiso   1.00
C206   C     0.73722   0.27052   0.42702   0.00000  Uiso   1.00
C207   C     0.70367   0.29420   0.40677   0.00000  Uiso   1.00
C208   C     0.99616   0.28083   0.41418   0.00000  Uiso   1.00
C209   C     0.98876   0.24386   0.44200   0.00000  Uiso   1.00
C210   C     0.68886   0.22001   0.46226   0.00000  Uiso   1.00
H211   H     0.76873   0.28125   0.42111   0.00000  Uiso   1.00
H212   H     0.70934   0.32293   0.38534   0.00000  Uiso   1.00
H213   H     0.97026   0.29921   0.39847   0.00000  Uiso   1.00
H214   H     0.95710   0.23369   0.44784   0.00000  Uiso   1.00
H215   H     0.68274   0.19130   0.48357   0.00000  Uiso   1.00
C216   C     0.95342   0.14767   0.04564   0.00000  Uiso   1.00
C217   C     0.96855   0.18219   0.07388   0.00000  Uiso   1.00
C218   C     0.67438   0.17788   0.09555   0.00000  Uiso   1.00
C219   C     0.69893   0.13954   0.08864   0.00000  Uiso   1.00
C220   C     0.68470   0.10578   0.05953   0.00000  Uiso   1.00
C221   C     0.97883   0.10982   0.03794   0.00000  Uiso   1.00
H222   H     0.94972   0.21196   0.07964   0.00000  Uiso   1.00
H223   H     0.68562   0.20415   0.11786   0.00000  Uiso   1.00
H224   H     0.72899   0.13592   0.10581   0.00000  Uiso   1.00
H225   H     0.70391   0.07628   0.05400   0.00000  Uiso   1.00
H226   H     0.96793   0.08311   0.01595   0.00000  Uiso   1.00
Br227  Br    0.71303   0.07134   0.28634   0.00000  Uiso   1.00
Br228  Br    0.95449   0.26194   0.21478   0.00000  Uiso   1.00
Br229  Br    0.95738   0.06646   0.23024   0.00000  Uiso   1.00
Br230  Br    0.70925   0.26554   0.27440   0.00000  Uiso   1.00
Br231  Br    0.89303   0.05426   0.32367   0.00000  Uiso   1.00
Br232  Br    0.77228   0.27902   0.17777   0.00000  Uiso   1.00
Br233  Br    0.77145   0.05627   0.17852   0.00000  Uiso   1.00
Br234  Br    0.89518   0.27706   0.32152   0.00000  Uiso   1.00
C235   C     0.08688   0.50020   0.25454   0.00000  Uiso   1.00
C236   C     0.24650   0.49974   0.24541   0.00000  Uiso   1.00
C237   C     0.10124   0.54142   0.02297   0.00000  Uiso   1.00
C238   C     0.24260   0.48491   0.47686   0.00000  Uiso   1.00
C239   C     0.02140   0.45915   0.26030   0.00000  Uiso   1.00
C240   C     0.31222   0.54053   0.24063   0.00000  Uiso   1.00
C241   C     0.31325   0.45804   0.24693   0.00000  Uiso   1.00
C242   C     0.02023   0.54154   0.25450   0.00000  Uiso   1.00
C243   C     0.29112   0.49914   0.24126   0.00000  Uiso   1.00
C244   C     0.04239   0.50054   0.25930   0.00000  Uiso   1.00
C245   C     0.19162   0.35687   0.27998   0.00000  Uiso   1.00
C246   C     0.14146   0.64313   0.22029   0.00000  Uiso   1.00
C247   C     0.14141   0.35767   0.22033   0.00000  Uiso   1.00
C248   C     0.19188   0.64233   0.27972   0.00000  Uiso   1.00
C249   C     0.16745   0.50013   0.16352   0.00000  Uiso   1.00
C250   C     0.16645   0.49997   0.33643   0.00000  Uiso   1.00
C251   C     0.20362   0.49258   0.40724   0.00000  Uiso   1.00
C252   C     0.13649   0.52225   0.09248   0.00000  Uiso   1.00
C253   C     0.16615   0.50061   0.38414   0.00000  Uiso   1.00
C254   C     0.16936   0.50126   0.11573   0.00000  Uiso   1.00
C255   C     0.12988   0.51332   0.40578   0.00000  Uiso   1.00
C256   C     0.20454   0.48500   0.09407   0.00000  Uiso   1.00
C257   C     0.13228   0.52184   0.45234   0.00000  Uiso   1.00
C258   C     0.20770   0.49315   0.04752   0.00000  Uiso   1.00
C259   C     0.16980   0.50926   0.47640   0.00000  Uiso   1.00
C260   C     0.17144   0.50928   0.02338   0.00000  Uiso   1.00
C261   C     0.20536   0.49517   0.45352   0.00000  Uiso   1.00
C262   C     0.13623   0.52419   0.04626   0.00000  Uiso   1.00
C263   C     0.09890   0.54123   0.47618   0.00000  Uiso   1.00
C264   C     0.24470   0.48484   0.02372   0.00000  Uiso   1.00
H265   H     0.23118   0.48347   0.38899   0.00000  Uiso   1.00
H266   H     0.11003   0.53496   0.11053   0.00000  Uiso   1.00
H267   H     0.07563   0.55555   0.04143   0.00000  Uiso   1.00
H268   H     0.27045   0.47755   0.45840   0.00000  Uiso   1.00
N269   N     0.16667   0.61907   0.25000   0.00000  Uiso   1.00
N270   N     0.16667   0.38093   0.25000   0.00000  Uiso   1.00
O271   O     0.10559   0.53821   0.24999   0.00000  Uiso   1.00
O272   O     0.22774   0.46179   0.25001   0.00000  Uiso   1.00
O273   O     0.22774   0.53821   0.25000   0.00000  Uiso   1.00
O274   O     0.10559   0.46179   0.25000   0.00000  Uiso   1.00
O275   O     0.16666   0.53823   0.18392   0.00000  Uiso   1.00
O276   O     0.16667   0.46177   0.31608   0.00000  Uiso   1.00
O277   O     0.16667   0.53823   0.31608   0.00000  Uiso   1.00
O278   O     0.16666   0.46177   0.18392   0.00000  Uiso   1.00
Zn279  Zn    0.16667   0.55104   0.25000   0.00000  Uiso   1.00
Zn280  Zn    0.16667   0.44896   0.25000   0.00000  Uiso   1.00
Br281  Br    0.07760   0.50901   0.37178   0.00000  Uiso   1.00
Br282  Br    0.24315   0.44624   0.12784   0.00000  Uiso   1.00
C283   C     0.06339   0.56617   0.45444   0.00000  Uiso   1.00
C284   C     0.07055   0.60385   0.42702   0.00000  Uiso   1.00
C285   C     0.03701   0.62754   0.40677   0.00000  Uiso   1.00
C286   C     0.32950   0.61416   0.41418   0.00000  Uiso   1.00
C287   C     0.32209   0.57719   0.44200   0.00000  Uiso   1.00
C288   C     0.02219   0.55335   0.46226   0.00000  Uiso   1.00
H289   H     0.10206   0.61459   0.42111   0.00000  Uiso   1.00
H290   H     0.04268   0.65627   0.38534   0.00000  Uiso   1.00
H291   H     0.30359   0.63254   0.39847   0.00000  Uiso   1.00
H292   H     0.29044   0.56702   0.44784   0.00000  Uiso   1.00
H293   H     0.01607   0.52463   0.48357   0.00000  Uiso   1.00
C294   C     0.28675   0.48101   0.04564   0.00000  Uiso   1.00
C295   C     0.30188   0.51552   0.07388   0.00000  Uiso   1.00
C296   C     0.00772   0.51122   0.09555   0.00000  Uiso   1.00
C297   C     0.03226   0.47287   0.08864   0.00000  Uiso   1.00
C298   C     0.01803   0.43911   0.05953   0.00000  Uiso   1.00
C299   C     0.31216   0.44315   0.03794   0.00000  Uiso   1.00
H300   H     0.28305   0.54529   0.07964   0.00000  Uiso   1.00
H301   H     0.01896   0.53748   0.11786   0.00000  Uiso   1.00
H302   H     0.06232   0.46925   0.10581   0.00000  Uiso   1.00
H303   H     0.03724   0.40961   0.05400   0.00000  Uiso   1.00
H304   H     0.30126   0.41644   0.01595   0.00000  Uiso   1.00
Br305  Br    0.04637   0.40468   0.28634   0.00000  Uiso   1.00
Br306  Br    0.28782   0.59527   0.21478   0.00000  Uiso   1.00
Br307  Br    0.29071   0.39979   0.23024   0.00000  Uiso   1.00
Br308  Br    0.04258   0.59888   0.27440   0.00000  Uiso   1.00
Br309  Br    0.22637   0.38759   0.32367   0.00000  Uiso   1.00
Br310  Br    0.10562   0.61235   0.17777   0.00000  Uiso   1.00
Br311  Br    0.10478   0.38960   0.17852   0.00000  Uiso   1.00
Br312  Br    0.22851   0.61040   0.32152   0.00000  Uiso   1.00
C313   C     0.42021   0.50020   0.25454   0.00000  Uiso   1.00
C314   C     0.57983   0.49974   0.24541   0.00000  Uiso   1.00
C315   C     0.43457   0.54142   0.02297   0.00000  Uiso   1.00
C316   C     0.57594   0.48491   0.47686   0.00000  Uiso   1.00
C317   C     0.35474   0.45915   0.26030   0.00000  Uiso   1.00
C318   C     0.64555   0.54053   0.24063   0.00000  Uiso   1.00
C319   C     0.64658   0.45804   0.24693   0.00000  Uiso   1.00
C320   C     0.35356   0.54154   0.25450   0.00000  Uiso   1.00
C321   C     0.62445   0.49914   0.24126   0.00000  Uiso   1.00
C322   C     0.37572   0.50054   0.25930   0.00000  Uiso   1.00
C323   C     0.52496   0.35687   0.27998   0.00000  Uiso   1.00
C324   C     0.47479   0.64313   0.22029   0.00000  Uiso   1.00
C325   C     0.47474   0.35767   0.22033   0.00000  Uiso   1.00
C326   C     0.52522   0.64233   0.27972   0.00000  Uiso   1.00
C327   C     0.50078   0.50013   0.16352   0.00000  Uiso   1.00
C328   C     0.49979   0.49997   0.33643   0.00000  Uiso   1.00
C329   C     0.53695   0.49258   0.40724   0.00000  Uiso   1.00
C330   C     0.46982   0.52225   0.09248   0.00000  Uiso   1.00
C331   C     0.49949   0.50061   0.38414   0.00000  Uiso   1.00
C332   C     0.50269   0.50126   0.11573   0.00000  Uiso   1.00
C333   C     0.46322   0.51332   0.40578   0.00000  Uiso   1.00
C334   C     0.53788   0.48500   0.09407   0.00000  Uiso   1.00
C335   C     0.46561   0.52184   0.45234   0.00000  Uiso   1.00
C336   C     0.54104   0.49315   0.04752   0.00000  Uiso   1.00
C337   C     0.50313   0.50926   0.47640   0.00000  Uiso   1.00
C338   C     0.50478   0.50928   0.02338   0.00000  Uiso   1.00
C339   C     0.53869   0.49517   0.45352   0.00000  Uiso   1.00
C340   C     0.46956   0.52419   0.04626   0.00000  Uiso   1.00
C341   C     0.43223   0.54123   0.47618   0.00000  Uiso   1.00
C342   C     0.57803   0.48484   0.02372   0.00000  Uiso   1.00
H343   H     0.56452   0.48347   0.38899   0.00000  Uiso   1.00
H344   H     0.44336   0.53496   0.11053   0.00000  Uiso   1.00
H345   H     0.40896   0.55555   0.04143   0.00000  Uiso   1.00
H346   H     0.60378   0.47755   0.45840   0.00000  Uiso   1.00
N347   N     0.50000   0.61907   0.25000   0.00000  Uiso   1.00
N348   N     0.50000   0.38093   0.25000   0.00000  Uiso   1.00
O349   O     0.43892   0.53821   0.24999   0.00000  Uiso   1.00
O350   O     0.56108   0.46179   0.25001   0.00000  Uiso   1.00
O351   O     0.56108   0.53821   0.25000   0.00000  Uiso   1.00
O352   O     0.43892   0.46179   0.25000   0.00000  Uiso   1.00
O353   O     0.49999   0.53823   0.18392   0.00000  Uiso   1.00
O354   O     0.50001   0.46177   0.31608   0.00000  Uiso   1.00
O355   O     0.50001   0.53823   0.31608   0.00000  Uiso   1.00
O356   O     0.49999   0.46177   0.18392   0.00000  Uiso   1.00
Zn357  Zn    0.50000   0.55104   0.25000   0.00000  Uiso   1.00
Zn358  Zn    0.50000   0.44896   0.25000   0.00000  Uiso   1.00
Br359  Br    0.41094   0.50901   0.37178   0.00000  Uiso   1.00
Br360  Br    0.57649   0.44624   0.12784   0.00000  Uiso   1.00
C361   C     0.39672   0.56617   0.45444   0.00000  Uiso   1.00
C362   C     0.40389   0.60385   0.42702   0.00000  Uiso   1.00
C363   C     0.37034   0.62754   0.40677   0.00000  Uiso   1.00
C364   C     0.66283   0.61416   0.41418   0.00000  Uiso   1.00
C365   C     0.65542   0.57719   0.44200   0.00000  Uiso   1.00
C366   C     0.35552   0.55335   0.46226   0.00000  Uiso   1.00
H367   H     0.43539   0.61459   0.42111   0.00000  Uiso   1.00
H368   H     0.37601   0.65627   0.38534   0.00000  Uiso   1.00
H369   H     0.63693   0.63254   0.39847   0.00000  Uiso   1.00
H370   H     0.62377   0.56702   0.44784   0.00000  Uiso   1.00
H371   H     0.34941   0.52463   0.48357   0.00000  Uiso   1.00
C372   C     0.62008   0.48101   0.04564   0.00000  Uiso   1.00
C373   C     0.63521   0.51552   0.07388   0.00000  Uiso   1.00
C374   C     0.34105   0.51122   0.09555   0.00000  Uiso   1.00
C375   C     0.36560   0.47287   0.08864   0.00000  Uiso   1.00
C376   C     0.35136   0.43911   0.05953   0.00000  Uiso   1.00
C377   C     0.64549   0.44315   0.03794   0.00000  Uiso   1.00
H378   H     0.61638   0.54529   0.07964   0.00000  Uiso   1.00
H379   H     0.35229   0.53748   0.11786   0.00000  Uiso   1.00
H380   H     0.39566   0.46925   0.10581   0.00000  Uiso   1.00
H381   H     0.37057   0.40961   0.05400   0.00000  Uiso   1.00
H382   H     0.63460   0.41644   0.01595   0.00000  Uiso   1.00
Br383  Br    0.37970   0.40468   0.28634   0.00000  Uiso   1.00
Br384  Br    0.62115   0.59527   0.21478   0.00000  Uiso   1.00
Br385  Br    0.62404   0.39979   0.23024   0.00000  Uiso   1.00
Br386  Br    0.37592   0.59888   0.27440   0.00000  Uiso   1.00
Br387  Br    0.55970   0.38759   0.32367   0.00000  Uiso   1.00
Br388  Br    0.43895   0.61235   0.17777   0.00000  Uiso   1.00
Br389  Br    0.43811   0.38960   0.17852   0.00000  Uiso   1.00
Br390  Br    0.56185   0.61040   0.32152   0.00000  Uiso   1.00
C391   C     0.75354   0.50020   0.25454   0.00000  Uiso   1.00
C392   C     0.91317   0.49974   0.24541   0.00000  Uiso   1.00
C393   C     0.76790   0.54142   0.02297   0.00000  Uiso   1.00
C394   C     0.90927   0.48491   0.47686   0.00000  Uiso   1.00
C395   C     0.68807   0.45915   0.26030   0.00000  Uiso   1.00
C396   C     0.97889   0.54053   0.24063   0.00000  Uiso   1.00
C397   C     0.97992   0.45804   0.24693   0.00000  Uiso   1.00
C398   C     0.68690   0.54154   0.25450   0.00000  Uiso   1.00
C399   C     0.95778   0.49914   0.24126   0.00000  Uiso   1.00
C400   C     0.70906   0.50054   0.25930   0.00000  Uiso   1.00
C401   C     0.85829   0.35687   0.27998   0.00000  Uiso   1.00
C402   C     0.80812   0.64313   0.22029   0.00000  Uiso   1.00
C403   C     0.80807   0.35767   0.22033   0.00000  Uiso   1.00
C404   C     0.85855   0.64233   0.27972   0.00000  Uiso   1.00
C405   C     0.83411   0.50013   0.16352   0.00000  Uiso   1.00
C406   C     0.83312   0.49997   0.33643   0.00000  Uiso   1.00
C407   C     0.87028   0.49258   0.40724   0.00000  Uiso   1.00
C408   C     0.80315   0.52225   0.09248   0.00000  Uiso   1.00
C409   C     0.83282   0.50061   0.38414   0.00000  Uiso   1.00
C410   C     0.83602   0.50126   0.11573   0.00000  Uiso   1.00
C411   C     0.79655   0.51332   0.40578   0.00000  Uiso   1.00
C412   C     0.87121   0.48500   0.09407   0.00000  Uiso   1.00
C413   C     0.79895   0.52184   0.45234   0.00000  Uiso   1.00
C414   C     0.87437   0.49315   0.04752   0.00000  Uiso   1.00
C415   C     0.83646   0.50926   0.47640   0.00000  Uiso   1.00
C416   C     0.83811   0.50928   0.02338   0.00000  Uiso   1.00
C417   C     0.87202   0.49517   0.45352   0.00000  Uiso   1.00
C418   C     0.80289   0.52419   0.04626   0.00000  Uiso   1.00
C419   C     0.76557   0.54123   0.47618   0.00000  Uiso   1.00
C420   C     0.91137   0.48484   0.02372   0.00000  Uiso   1.00
H421   H     0.89785   0.48347   0.38899   0.00000  Uiso   1.00
H422   H     0.77669   0.53496   0.11053   0.00000  Uiso   1.00
H423   H     0.74230   0.55555   0.04143   0.00000  Uiso   1.00
H424   H     0.93712   0.47755   0.45840   0.00000  Uiso   1.00
N425   N     0.83333   0.61907   0.25000   0.00000  Uiso   1.00
N426   N     0.83333   0.38093   0.25000   0.00000  Uiso   1.00
O427   O     0.77226   0.53821   0.24999   0.00000  Uiso   1.00
O428   O     0.89441   0.46179   0.25001   0.00000  Uiso   1.00
O429   O     0.89441   0.53821   0.25000   0.00000  Uiso   1.00
O430   O     0.77226   0.46179   0.25000   0.00000  Uiso   1.00
O431   O     0.83333   0.53823   0.18392   0.00000  Uiso   1.00
O432   O     0.83334   0.46177   0.31608   0.00000  Uiso   1.00
O433   O     0.83334   0.53823   0.31608   0.00000  Uiso   1.00
O434   O     0.83333   0.46177   0.18392   0.00000  Uiso   1.00
Zn435  Zn    0.83333   0.55104   0.25000   0.00000  Uiso   1.00
Zn436  Zn    0.83333   0.44896   0.25000   0.00000  Uiso   1.00
Br437  Br    0.74427   0.50901   0.37178   0.00000  Uiso   1.00
Br438  Br    0.90982   0.44624   0.12784   0.00000  Uiso   1.00
C439   C     0.73005   0.56617   0.45444   0.00000  Uiso   1.00
C440   C     0.73722   0.60385   0.42702   0.00000  Uiso   1.00
C441   C     0.70367   0.62754   0.40677   0.00000  Uiso   1.00
C442   C     0.99616   0.61416   0.41418   0.00000  Uiso   1.00
C443   C     0.98876   0.57719   0.44200   0.00000  Uiso   1.00
C444   C     0.68886   0.55335   0.46226   0.00000  Uiso   1.00
H445   H     0.76873   0.61459   0.42111   0.00000  Uiso   1.00
H446   H     0.70934   0.65627   0.38534   0.00000  Uiso   1.00
H447   H     0.97026   0.63254   0.39847   0.00000  Uiso   1.00
H448   H     0.95710   0.56702   0.44784   0.00000  Uiso   1.00
H449   H     0.68274   0.52463   0.48357   0.00000  Uiso   1.00
C450   C     0.95342   0.48101   0.04564   0.00000  Uiso   1.00
C451   C     0.96855   0.51552   0.07388   0.00000  Uiso   1.00
C452   C     0.67438   0.51122   0.09555   0.00000  Uiso   1.00
C453   C     0.69893   0.47287   0.08864   0.00000  Uiso   1.00
C454   C     0.68470   0.43911   0.05953   0.00000  Uiso   1.00
C455   C     0.97883   0.44315   0.03794   0.00000  Uiso   1.00
H456   H     0.94972   0.54529   0.07964   0.00000  Uiso   1.00
H457   H     0.68562   0.53748   0.11786   0.00000  Uiso   1.00
H458   H     0.72899   0.46925   0.10581   0.00000  Uiso   1.00
H459   H     0.70391   0.40961   0.05400   0.00000  Uiso   1.00
H460   H     0.96793   0.41644   0.01595   0.00000  Uiso   1.00
Br461  Br    0.71303   0.40468   0.28634   0.00000  Uiso   1.00
Br462  Br    0.95449   0.59527   0.21478   0.00000  Uiso   1.00
Br463  Br    0.95738   0.39979   0.23024   0.00000  Uiso   1.00
Br464  Br    0.70925   0.59888   0.27440   0.00000  Uiso   1.00
Br465  Br    0.89303   0.38759   0.32367   0.00000  Uiso   1.00
Br466  Br    0.77228   0.61235   0.17777   0.00000  Uiso   1.00
Br467  Br    0.77145   0.38960   0.17852   0.00000  Uiso   1.00
Br468  Br    0.89518   0.61040   0.32152   0.00000  Uiso   1.00
C469   C     0.08688   0.83353   0.25454   0.00000  Uiso   1.00
C470   C     0.24650   0.83308   0.24541   0.00000  Uiso   1.00
C471   C     0.10124   0.87475   0.02297   0.00000  Uiso   1.00
C472   C     0.24260   0.81824   0.47686   0.00000  Uiso   1.00
C473   C     0.02140   0.79249   0.26030   0.00000  Uiso   1.00
C474   C     0.31222   0.87387   0.24063   0.00000  Uiso   1.00
C475   C     0.31325   0.79138   0.24693   0.00000  Uiso   1.00
C476   C     0.02023   0.87487   0.25450   0.00000  Uiso   1.00
C477   C     0.29112   0.83247   0.24126   0.00000  Uiso   1.00
C478   C     0.04239   0.83388   0.25930   0.00000  Uiso   1.00
C479   C     0.19162   0.69020   0.27998   0.00000  Uiso   1.00
C480   C     0.14146   0.97646   0.22029   0.00000  Uiso   1.00
C481   C     0.14141   0.69100   0.22033   0.00000  Uiso   1.00
C482   C     0.19188   0.97566   0.27972   0.00000  Uiso   1.00
C483   C     0.16745   0.83346   0.16352   0.00000  Uiso   1.00
C484   C     0.16645   0.83330   0.33643   0.00000  Uiso   1.00
C485   C     0.20362   0.82591   0.40724   0.00000  Uiso   1.00
C486   C     0.13649   0.85558   0.09248   0.00000  Uiso   1.00
C487   C     0.16615   0.83394   0.38414   0.00000  Uiso   1.00
C488   C     0.16936   0.83459   0.11573   0.00000  Uiso   1.00
C489   C     0.12988   0.84665   0.40578   0.00000  Uiso   1.00
C490   C     0.20454   0.81834   0.09407   0.00000  Uiso   1.00
C491   C     0.13228   0.85518   0.45234   0.00000  Uiso   1.00
C492   C     0.20770   0.82648   0.04752   0.00000  Uiso   1.00
C493   C     0.16980   0.84259   0.47640   0.00000  Uiso   1.00
C494   C     0.17144   0.84262   0.02338   0.00000  Uiso   1.00
C495   C     0.20536   0.82850   0.45352   0.00000  Uiso   1.00
C496   C     0.13623   0.85752   0.04626   0.00000  Uiso   1.00
C497   C     0.09890   0.87456   0.47618   0.00000  Uiso   1.00
C498   C     0.24470   0.81817   0.02372   0.00000  Uiso   1.00
H499   H     0.23118   0.81680   0.38899   0.00000  Uiso   1.00
H500   H     0.11003   0.86829   0.11053   0.00000  Uiso   1.00
H501   H     0.07563   0.88888   0.04143   0.00000  Uiso   1.00
H502   H     0.27045   0.81088   0.45840   0.00000  Uiso   1.00
N503   N     0.16667   0.95240   0.25000   0.00000  Uiso   1.00
N504   N     0.16667   0.71427   0.25000   0.00000  Uiso   1.00
O505   O     0.10559   0.87154   0.24999   0.00000  Uiso   1.00
O506   O     0.22774   0.79513   0.25001   0.00000  Uiso   1.00
O507   O     0.22774   0.87154   0.25000   0.00000  Uiso   1.00
O508   O     0.10559   0.79513   0.25000   0.00000  Uiso   1.00
O509   O     0.16666   0.87156   0.18392   0.00000  Uiso   1.00
O510   O     0.16667   0.79511   0.31608   0.00000  Uiso   1.00
O511   O     0.16667   0.87156   0.31608   0.00000  Uiso   1.00
O512   O     0.16666   0.79511   0.18392   0.00000  Uiso   1.00
Zn513  Zn    0.16667   0.88437   0.25000   0.00000  Uiso   1.00
Zn514  Zn    0.16667   0.78229   0.25000   0.00000  Uiso   1.00
Br515  Br    0.07760   0.84234   0.37178   0.00000  Uiso   1.00
Br516  Br    0.24315   0.77958   0.12784   0.00000  Uiso   1.00
C517   C     0.06339   0.89950   0.45444   0.00000  Uiso   1.00
C518   C     0.07055   0.93718   0.42702   0.00000  Uiso   1.00
C519   C     0.03701   0.96087   0.40677   0.00000  Uiso   1.00
C520   C     0.32950   0.94750   0.41418   0.00000  Uiso   1.00
C521   C     0.32209   0.91053   0.44200   0.00000  Uiso   1.00
C522   C     0.02219   0.88668   0.46226   0.00000  Uiso   1.00
H523   H     0.10206   0.94792   0.42111   0.00000  Uiso   1.00
H524   H     0.04268   0.98960   0.38534   0.00000  Uiso   1.00
H525   H     0.30359   0.96588   0.39847   0.00000  Uiso   1.00
H526   H     0.29044   0.90035   0.44784   0.00000  Uiso   1.00
H527   H     0.01607   0.85797   0.48357   0.00000  Uiso   1.00
C528   C     0.28675   0.81434   0.04564   0.00000  Uiso   1.00
C529   C     0.30188   0.84886   0.07388   0.00000  Uiso   1.00
C530   C     0.00772   0.84455   0.09555   0.00000  Uiso   1.00
C531   C     0.03226   0.80621   0.08864   0.00000  Uiso   1.00
C532   C     0.01803   0.77245   0.05953   0.00000  Uiso   1.00
C533   C     0.31216   0.77648   0.03794   0.00000  Uiso   1.00
H534   H     0.28305   0.87863   0.07964   0.00000  Uiso   1.00
H535   H     0.01896   0.87081   0.11786   0.00000  Uiso   1.00
H536   H     0.06232   0.80258   0.10581   0.00000  Uiso   1.00
H537   H     0.03724   0.74295   0.05400   0.00000  Uiso   1.00
H538   H     0.30126   0.74977   0.01595   0.00000  Uiso   1.00
Br539  Br    0.04637   0.73801   0.28634   0.00000  Uiso   1.00
Br540  Br    0.28782   0.92860   0.21478   0.00000  Uiso   1.00
Br541  Br    0.29071   0.73313   0.23024   0.00000  Uiso   1.00
Br542  Br    0.04258   0.93221   0.27440   0.00000  Uiso   1.00
Br543  Br    0.22637   0.72093   0.32367   0.00000  Uiso   1.00
Br544  Br    0.10562   0.94569   0.17777   0.00000  Uiso   1.00
Br545  Br    0.10478   0.72293   0.17852   0.00000  Uiso   1.00
Br546  Br    0.22851   0.94373   0.32152   0.00000  Uiso   1.00
C547   C     0.42021   0.83353   0.25454   0.00000  Uiso   1.00
C548   C     0.57983   0.83308   0.24541   0.00000  Uiso   1.00
C549   C     0.43457   0.87475   0.02297   0.00000  Uiso   1.00
C550   C     0.57594   0.81824   0.47686   0.00000  Uiso   1.00
C551   C     0.35474   0.79249   0.26030   0.00000  Uiso   1.00
C552   C     0.64555   0.87387   0.24063   0.00000  Uiso   1.00
C553   C     0.64658   0.79138   0.24693   0.00000  Uiso   1.00
C554   C     0.35356   0.87487   0.25450   0.00000  Uiso   1.00
C555   C     0.62445   0.83247   0.24126   0.00000  Uiso   1.00
C556   C     0.37572   0.83388   0.25930   0.00000  Uiso   1.00
C557   C     0.52496   0.69020   0.27998   0.00000  Uiso   1.00
C558   C     0.47479   0.97646   0.22029   0.00000  Uiso   1.00
C559   C     0.47474   0.69100   0.22033   0.00000  Uiso   1.00
C560   C     0.52522   0.97566   0.27972   0.00000  Uiso   1.00
C561   C     0.50078   0.83346   0.16352   0.00000  Uiso   1.00
C562   C     0.49979   0.83330   0.33643   0.00000  Uiso   1.00
C563   C     0.53695   0.82591   0.40724   0.00000  Uiso   1.00
C564   C     0.46982   0.85558   0.09248   0.00000  Uiso   1.00
C565   C     0.49949   0.83394   0.38414   0.00000  Uiso   1.00
C566   C     0.50269   0.83459   0.11573   0.00000  Uiso   1.00
C567   C     0.46322   0.84665   0.40578   0.00000  Uiso   1.00
C568   C     0.53788   0.81834   0.09407   0.00000  Uiso   1.00
C569   C     0.46561   0.85518   0.45234   0.00000  Uiso   1.00
C570   C     0.54104   0.82648   0.04752   0.00000  Uiso   1.00
C571   C     0.50313   0.84259   0.47640   0.00000  Uiso   1.00
C572   C     0.50478   0.84262   0.02338   0.00000  Uiso   1.00
C573   C     0.53869   0.82850   0.45352   0.00000  Uiso   1.00
C574   C     0.46956   0.85752   0.04626   0.00000  Uiso   1.00
C575   C     0.43223   0.87456   0.47618   0.00000  Uiso   1.00
C576   C     0.57803   0.81817   0.02372   0.00000  Uiso   1.00
H577   H     0.56452   0.81680   0.38899   0.00000  Uiso   1.00
H578   H     0.44336   0.86829   0.11053   0.00000  Uiso   1.00
H579   H     0.40896   0.88888   0.04143   0.00000  Uiso   1.00
H580   H     0.60378   0.81088   0.45840   0.00000  Uiso   1.00
N581   N     0.50000   0.95240   0.25000   0.00000  Uiso   1.00
N582   N     0.50000   0.71427   0.25000   0.00000  Uiso   1.00
O583   O     0.43892   0.87154   0.24999   0.00000  Uiso   1.00
O584   O     0.56108   0.79513   0.25001   0.00000  Uiso   1.00
O585   O     0.56108   0.87154   0.25000   0.00000  Uiso   1.00
O586   O     0.43892   0.79513   0.25000   0.00000  Uiso   1.00
O587   O     0.49999   0.87156   0.18392   0.00000  Uiso   1.00
O588   O     0.50001   0.79511   0.31608   0.00000  Uiso   1.00
O589   O     0.50001   0.87156   0.31608   0.00000  Uiso   1.00
O590   O     0.49999   0.79511   0.18392   0.00000  Uiso   1.00
Zn591  Zn    0.50000   0.88437   0.25000   0.00000  Uiso   1.00
Zn592  Zn    0.50000   0.78229   0.25000   0.00000  Uiso   1.00
Br593  Br    0.41094   0.84234   0.37178   0.00000  Uiso   1.00
Br594  Br    0.57649   0.77958   0.12784   0.00000  Uiso   1.00
C595   C     0.39672   0.89950   0.45444   0.00000  Uiso   1.00
C596   C     0.40389   0.93718   0.42702   0.00000  Uiso   1.00
C597   C     0.37034   0.96087   0.40677   0.00000  Uiso   1.00
C598   C     0.66283   0.94750   0.41418   0.00000  Uiso   1.00
C599   C     0.65542   0.91053   0.44200   0.00000  Uiso   1.00
C600   C     0.35552   0.88668   0.46226   0.00000  Uiso   1.00
H601   H     0.43539   0.94792   0.42111   0.00000  Uiso   1.00
H602   H     0.37601   0.98960   0.38534   0.00000  Uiso   1.00
H603   H     0.63693   0.96588   0.39847   0.00000  Uiso   1.00
H604   H     0.62377   0.90035   0.44784   0.00000  Uiso   1.00
H605   H     0.34941   0.85797   0.48357   0.00000  Uiso   1.00
C606   C     0.62008   0.81434   0.04564   0.00000  Uiso   1.00
C607   C     0.63521   0.84886   0.07388   0.00000  Uiso   1.00
C608   C     0.34105   0.84455   0.09555   0.00000  Uiso   1.00
C609   C     0.36560   0.80621   0.08864   0.00000  Uiso   1.00
C610   C     0.35136   0.77245   0.05953   0.00000  Uiso   1.00
C611   C     0.64549   0.77648   0.03794   0.00000  Uiso   1.00
H612   H     0.61638   0.87863   0.07964   0.00000  Uiso   1.00
H613   H     0.35229   0.87081   0.11786   0.00000  Uiso   1.00
H614   H     0.39566   0.80258   0.10581   0.00000  Uiso   1.00
H615   H     0.37057   0.74295   0.05400   0.00000  Uiso   1.00
H616   H     0.63460   0.74977   0.01595   0.00000  Uiso   1.00
Br617  Br    0.37970   0.73801   0.28634   0.00000  Uiso   1.00
Br618  Br    0.62115   0.92860   0.21478   0.00000  Uiso   1.00
Br619  Br    0.62404   0.73313   0.23024   0.00000  Uiso   1.00
Br620  Br    0.37592   0.93221   0.27440   0.00000  Uiso   1.00
Br621  Br    0.55970   0.72093   0.32367   0.00000  Uiso   1.00
Br622  Br    0.43895   0.94569   0.17777   0.00000  Uiso   1.00
Br623  Br    0.43811   0.72293   0.17852   0.00000  Uiso   1.00
Br624  Br    0.56185   0.94373   0.32152   0.00000  Uiso   1.00
C625   C     0.75354   0.83353   0.25454   0.00000  Uiso   1.00
C626   C     0.91317   0.83308   0.24541   0.00000  Uiso   1.00
C627   C     0.76790   0.87475   0.02297   0.00000  Uiso   1.00
C628   C     0.90927   0.81824   0.47686   0.00000  Uiso   1.00
C629   C     0.68807   0.79249   0.26030   0.00000  Uiso   1.00
C630   C     0.97889   0.87387   0.24063   0.00000  Uiso   1.00
C631   C     0.97992   0.79138   0.24693   0.00000  Uiso   1.00
C632   C     0.68690   0.87487   0.25450   0.00000  Uiso   1.00
C633   C     0.95778   0.83247   0.24126   0.00000  Uiso   1.00
C634   C     0.70906   0.83388   0.25930   0.00000  Uiso   1.00
C635   C     0.85829   0.69020   0.27998   0.00000  Uiso   1.00
C636   C     0.80812   0.97646   0.22029   0.00000  Uiso   1.00
C637   C     0.80807   0.69100   0.22033   0.00000  Uiso   1.00
C638   C     0.85855   0.97566   0.27972   0.00000  Uiso   1.00
C639   C     0.83411   0.83346   0.16352   0.00000  Uiso   1.00
C640   C     0.83312   0.83330   0.33643   0.00000  Uiso   1.00
C641   C     0.87028   0.82591   0.40724   0.00000  Uiso   1.00
C642   C     0.80315   0.85558   0.09248   0.00000  Uiso   1.00
C643   C     0.83282   0.83394   0.38414   0.00000  Uiso   1.00
C644   C     0.83602   0.83459   0.11573   0.00000  Uiso   1.00
C645   C     0.79655   0.84665   0.40578   0.00000  Uiso   1.00
C646   C     0.87121   0.81834   0.09407   0.00000  Uiso   1.00
C647   C     0.79895   0.85518   0.45234   0.00000  Uiso   1.00
C648   C     0.87437   0.82648   0.04752   0.00000  Uiso   1.00
C649   C     0.83646   0.84259   0.47640   0.00000  Uiso   1.00
C650   C     0.83811   0.84262   0.02338   0.00000  Uiso   1.00
C651   C     0.87202   0.82850   0.45352   0.00000  Uiso   1.00
C652   C     0.80289   0.85752   0.04626   0.00000  Uiso   1.00
C653   C     0.76557   0.87456   0.47618   0.00000  Uiso   1.00
C654   C     0.91137   0.81817   0.02372   0.00000  Uiso   1.00
H655   H     0.89785   0.81680   0.38899   0.00000  Uiso   1.00
H656   H     0.77669   0.86829   0.11053   0.00000  Uiso   1.00
H657   H     0.74230   0.88888   0.04143   0.00000  Uiso   1.00
H658   H     0.93712   0.81088   0.45840   0.00000  Uiso   1.00
N659   N     0.83333   0.95240   0.25000   0.00000  Uiso   1.00
N660   N     0.83333   0.71427   0.25000   0.00000  Uiso   1.00
O661   O     0.77226   0.87154   0.24999   0.00000  Uiso   1.00
O662   O     0.89441   0.79513   0.25001   0.00000  Uiso   1.00
O663   O     0.89441   0.87154   0.25000   0.00000  Uiso   1.00
O664   O     0.77226   0.79513   0.25000   0.00000  Uiso   1.00
O665   O     0.83333   0.87156   0.18392   0.00000  Uiso   1.00
O666   O     0.83334   0.79511   0.31608   0.00000  Uiso   1.00
O667   O     0.83334   0.87156   0.31608   0.00000  Uiso   1.00
O668   O     0.83333   0.79511   0.18392   0.00000  Uiso   1.00
Zn669  Zn    0.83333   0.88437   0.25000   0.00000  Uiso   1.00
Zn670  Zn    0.83333   0.78229   0.25000   0.00000  Uiso   1.00
Br671  Br    0.74427   0.84234   0.37178   0.00000  Uiso   1.00
Br672  Br    0.90982   0.77958   0.12784   0.00000  Uiso   1.00
C673   C     0.73005   0.89950   0.45444   0.00000  Uiso   1.00
C674   C     0.73722   0.93718   0.42702   0.00000  Uiso   1.00
C675   C     0.70367   0.96087   0.40677   0.00000  Uiso   1.00
C676   C     0.99616   0.94750   0.41418   0.00000  Uiso   1.00
C677   C     0.98876   0.91053   0.44200   0.00000  Uiso   1.00
C678   C     0.68886   0.88668   0.46226   0.00000  Uiso   1.00
H679   H     0.76873   0.94792   0.42111   0.00000  Uiso   1.00
H680   H     0.70934   0.98960   0.38534   0.00000  Uiso   1.00
H681   H     0.97026   0.96588   0.39847   0.00000  Uiso   1.00
H682   H     0.95710   0.90035   0.44784   0.00000  Uiso   1.00
H683   H     0.68274   0.85797   0.48357   0.00000  Uiso   1.00
C684   C     0.95342   0.81434   0.04564   0.00000  Uiso   1.00
C685   C     0.96855   0.84886   0.07388   0.00000  Uiso   1.00
C686   C     0.67438   0.84455   0.09555   0.00000  Uiso   1.00
C687   C     0.69893   0.80621   0.08864   0.00000  Uiso   1.00
C688   C     0.68470   0.77245   0.05953   0.00000  Uiso   1.00
C689   C     0.97883   0.77648   0.03794   0.00000  Uiso   1.00
H690   H     0.94972   0.87863   0.07964   0.00000  Uiso   1.00
H691   H     0.68562   0.87081   0.11786   0.00000  Uiso   1.00
H692   H     0.72899   0.80258   0.10581   0.00000  Uiso   1.00
H693   H     0.70391   0.74295   0.05400   0.00000  Uiso   1.00
H694   H     0.96793   0.74977   0.01595   0.00000  Uiso   1.00
Br695  Br    0.71303   0.73801   0.28634   0.00000  Uiso   1.00
Br696  Br    0.95449   0.92860   0.21478   0.00000  Uiso   1.00
Br697  Br    0.95738   0.73313   0.23024   0.00000  Uiso   1.00
Br698  Br    0.70925   0.93221   0.27440   0.00000  Uiso   1.00
Br699  Br    0.89303   0.72093   0.32367   0.00000  Uiso   1.00
Br700  Br    0.77228   0.94569   0.17777   0.00000  Uiso   1.00
Br701  Br    0.77145   0.72293   0.17852   0.00000  Uiso   1.00
Br702  Br    0.89518   0.94373   0.32152   0.00000  Uiso   1.00
C703   C     0.08688   0.16686   0.75454   0.00000  Uiso   1.00
C704   C     0.24650   0.16641   0.74541   0.00000  Uiso   1.00
C705   C     0.10124   0.20809   0.52297   0.00000  Uiso   1.00
C706   C     0.24260   0.15157   0.97686   0.00000  Uiso   1.00
C707   C     0.02140   0.12582   0.76030   0.00000  Uiso   1.00
C708   C     0.31222   0.20720   0.74063   0.00000  Uiso   1.00
C709   C     0.31325   0.12471   0.74693   0.00000  Uiso   1.00
C710   C     0.02023   0.20820   0.75450   0.00000  Uiso   1.00
C711   C     0.29112   0.16581   0.74126   0.00000  Uiso   1.00
C712   C     0.04239   0.16721   0.75930   0.00000  Uiso   1.00
C713   C     0.19162   0.02354   0.77998   0.00000  Uiso   1.00
C714   C     0.14146   0.30980   0.72029   0.00000  Uiso   1.00
C715   C     0.14141   0.02434   0.72033   0.00000  Uiso   1.00
C716   C     0.19188   0.30900   0.77972   0.00000  Uiso   1.00
C717   C     0.16745   0.16680   0.66352   0.00000  Uiso   1.00
C718   C     0.16645   0.16664   0.83643   0.00000  Uiso   1.00
C719   C     0.20362   0.15925   0.90724   0.00000  Uiso   1.00
C720   C     0.13649   0.18892   0.59248   0.00000  Uiso   1.00
C721   C     0.16615   0.16728   0.88414   0.00000  Uiso   1.00
C722   C     0.16936   0.16793   0.61573   0.00000  Uiso   1.00
C723   C     0.12988   0.17999   0.90578   0.00000  Uiso   1.00
C724   C     0.20454   0.15167   0.59407   0.00000  Uiso   1.00
C725   C     0.13228   0.18851   0.95234   0.00000  Uiso   1.00
C726   C     0.20770   0.15981   0.54752   0.00000  Uiso   1.00
C727   C     0.16980   0.17592   0.97640   0.00000  Uiso   1.00
C728   C     0.17144   0.17595   0.52338   0.00000  Uiso   1.00
C729   C     0.20536   0.16184   0.95352   0.00000  Uiso   1.00
C730   C     0.13623   0.19086   0.54626   0.00000  Uiso   1.00
C731   C     0.09890   0.20790   0.97618   0.00000  Uiso   1.00
C732   C     0.24470   0.15150   0.52372   0.00000  Uiso   1.00
H733   H     0.23118   0.15013   0.88899   0.00000  Uiso   1.00
H734   H     0.11003   0.20162   0.61053   0.00000  Uiso   1.00
H735   H     0.07563   0.22221   0.54143   0.00000  Uiso   1.00
H736   H     0.27045   0.14421   0.95840   0.00000  Uiso   1.00
N737   N     0.16667   0.28573   0.75000   0.00000  Uiso   1.00
N738   N     0.16667   0.04760   0.75000   0.00000  Uiso   1.00
O739   O     0.10559   0.20487   0.74999   0.00000  Uiso   1.00
O740   O     0.22774   0.12846   0.75001   0.00000  Uiso   1.00
O741   O     0.22774   0.20487   0.75000   0.00000  Uiso   1.00
O742   O     0.10559   0.12846   0.75000   0.00000  Uiso   1.00
O743   O     0.16666   0.20489   0.68392   0.00000  Uiso   1.00
O744   O     0.16667   0.12844   0.81608   0.00000  Uiso   1.00
O745   O     0.16667   0.20489   0.81608   0.00000  Uiso   1.00
O746   O     0.16666   0.12844   0.68392   0.00000  Uiso   1.00
Zn747  Zn    0.16667   0.21771   0.75000   0.00000  Uiso   1.00
Zn748  Zn    0.16667   0.11563   0.75000   0.00000  Uiso   1.00
Br749  Br    0.07760   0.17568   0.87178   0.00000  Uiso   1.00
Br750  Br    0.24315   0.11291   0.62784   0.00000  Uiso   1.00
C751   C     0.06339   0.23283   0.95444   0.00000  Uiso   1.00
C752   C     0.07055   0.27052   0.92702   0.00000  Uiso   1.00
C753   C     0.03701   0.29420   0.90677   0.00000  Uiso   1.00
C754   C     0.32950   0.28083   0.91418   0.00000  Uiso   1.00
C755   C     0.32209   0.24386   0.94200   0.00000  Uiso   1.00
C756   C     0.02219   0.22001   0.96226   0.00000  Uiso   1.00
H757   H     0.10206   0.28125   0.92111   0.00000  Uiso   1.00
H758   H     0.04268   0.32293   0.88534   0.00000  Uiso   1.00
H759   H     0.30359   0.29921   0.89847   0.00000  Uiso   1.00
H760   H     0.29044   0.23369   0.94784   0.00000  Uiso   1.00
H761   H     0.01607   0.19130   0.98357   0.00000  Uiso   1.00
C762   C     0.28675   0.14767   0.54564   0.00000  Uiso   1.00
C763   C     0.30188   0.18219   0.57388   0.00000  Uiso   1.00
C764   C     0.00772   0.17788   0.59555   0.00000  Uiso   1.00
C765   C     0.03226   0.13954   0.58864   0.00000  Uiso   1.00
C766   C     0.01803   0.10578   0.55953   0.00000  Uiso   1.00
C767   C     0.31216   0.10982   0.53794   0.00000  Uiso   1.00
H768   H     0.28305   0.21196   0.57964   0.00000  Uiso   1.00
H769   H     0.01896   0.20415   0.61786   0.00000  Uiso   1.00
H770   H     0.06232   0.13592   0.60581   0.00000  Uiso   1.00
H771   H     0.03724   0.07628   0.55400   0.00000  Uiso   1.00
H772   H     0.30126   0.08311   0.51595   0.00000  Uiso   1.00
Br773  Br    0.04637   0.07134   0.78634   0.00000  Uiso   1.00
Br774  Br    0.28782   0.26194   0.71478   0.00000  Uiso   1.00
Br775  Br    0.29071   0.06646   0.73024   0.00000  Uiso   1.00
Br776  Br    0.04258   0.26554   0.77440   0.00000  Uiso   1.00
Br777  Br    0.22637   0.05426   0.82367   0.00000  Uiso   1.00
Br778  Br    0.10562   0.27902   0.67777   0.00000  Uiso   1.00
Br779  Br    0.10478   0.05627   0.67852   0.00000  Uiso   1.00
Br780  Br    0.22851   0.27706   0.82152   0.00000  Uiso   1.00
C781   C     0.42021   0.16686   0.75454   0.00000  Uiso   1.00
C782   C     0.57983   0.16641   0.74541   0.00000  Uiso   1.00
C783   C     0.43457   0.20809   0.52297   0.00000  Uiso   1.00
C784   C     0.57594   0.15157   0.97686   0.00000  Uiso   1.00
C785   C     0.35474   0.12582   0.76030   0.00000  Uiso   1.00
C786   C     0.64555   0.20720   0.74063   0.00000  Uiso   1.00
C787   C     0.64658   0.12471   0.74693   0.00000  Uiso   1.00
C788   C     0.35356   0.20820   0.75450   0.00000  Uiso   1.00
C789   C     0.62445   0.16581   0.74126   0.00000  Uiso   1.00
C790   C     0.37572   0.16721   0.75930   0.00000  Uiso   1.00
C791   C     0.52496   0.02354   0.77998   0.00000  Uiso   1.00
C792   C     0.47479   0.30980   0.72029   0.00000  Uiso   1.00
C793   C     0.47474   0.02434   0.72033   0.00000  Uiso   1.00
C794   C     0.52522   0.30900   0.77972   0.00000  Uiso   1.00
C795   C     0.50078   0.16680   0.66352   0.00000  Uiso   1.00
C796   C     0.49979   0.16664   0.83643   0.00000  Uiso   1.00
C797   C     0.53695   0.15925   0.90724   0.00000  Uiso   1.00
C798   C     0.46982   0.18892   0.59248   0.00000  Uiso   1.00
C799   C     0.49949   0.16728   0.88414   0.00000  Uiso   1.00
C800   C     0.50269   0.16793   0.61573   0.00000  Uiso   1.00
C801   C     0.46322   0.17999   0.90578   0.00000  Uiso   1.00
C802   C     0.53788   0.15167   0.59407   0.00000  Uiso   1.00
C803   C     0.46561   0.18851   0.95234   0.00000  Uiso   1.00
C804   C     0.54104   0.15981   0.54752   0.00000  Uiso   1.00
C805   C     0.50313   0.17592   0.97640   0.00000  Uiso   1.00
C806   C     0.50478   0.17595   0.52338   0.00000  Uiso   1.00
C807   C     0.53869   0.16184   0.95352   0.00000  Uiso   1.00
C808   C     0.46956   0.19086   0.54626   0.00000  Uiso   1.00
C809   C     0.43223   0.20790   0.97618   0.00000  Uiso   1.00
C810   C     0.57803   0.15150   0.52372   0.00000  Uiso   1.00
H811   H     0.56452   0.15013   0.88899   0.00000  Uiso   1.00
H812   H     0.44336   0.20162   0.61053   0.00000  Uiso   1.00
H813   H     0.40896   0.22221   0.54143   0.00000  Uiso   1.00
H814   H     0.60378   0.14421   0.95840   0.00000  Uiso   1.00
N815   N     0.50000   0.28573   0.75000   0.00000  Uiso   1.00
N816   N     0.50000   0.04760   0.75000   0.00000  Uiso   1.00
O817   O     0.43892   0.20487   0.74999   0.00000  Uiso   1.00
O818   O     0.56108   0.12846   0.75001   0.00000  Uiso   1.00
O819   O     0.56108   0.20487   0.75000   0.00000  Uiso   1.00
O820   O     0.43892   0.12846   0.75000   0.00000  Uiso   1.00
O821   O     0.49999   0.20489   0.68392   0.00000  Uiso   1.00
O822   O     0.50001   0.12844   0.81608   0.00000  Uiso   1.00
O823   O     0.50001   0.20489   0.81608   0.00000  Uiso   1.00
O824   O     0.49999   0.12844   0.68392   0.00000  Uiso   1.00
Zn825  Zn    0.50000   0.21771   0.75000   0.00000  Uiso   1.00
Zn826  Zn    0.50000   0.11563   0.75000   0.00000  Uiso   1.00
Br827  Br    0.41094   0.17568   0.87178   0.00000  Uiso   1.00
Br828  Br    0.57649   0.11291   0.62784   0.00000  Uiso   1.00
C829   C     0.39672   0.23283   0.95444   0.00000  Uiso   1.00
C830   C     0.40389   0.27052   0.92702   0.00000  Uiso   1.00
C831   C     0.37034   0.29420   0.90677   0.00000  Uiso   1.00
C832   C     0.66283   0.28083   0.91418   0.00000  Uiso   1.00
C833   C     0.65542   0.24386   0.94200   0.00000  Uiso   1.00
C834   C     0.35552   0.22001   0.96226   0.00000  Uiso   1.00
H835   H     0.43539   0.28125   0.92111   0.00000  Uiso   1.00
H836   H     0.37601   0.32293   0.88534   0.00000  Uiso   1.00
H837   H     0.63693   0.29921   0.89847   0.00000  Uiso   1.00
H838   H     0.62377   0.23369   0.94784   0.00000  Uiso   1.00
H839   H     0.34941   0.19130   0.98357   0.00000  Uiso   1.00
C840   C     0.62008   0.14767   0.54564   0.00000  Uiso   1.00
C841   C     0.63521   0.18219   0.57388   0.00000  Uiso   1.00
C842   C     0.34105   0.17788   0.59555   0.00000  Uiso   1.00
C843   C     0.36560   0.13954   0.58864   0.00000  Uiso   1.00
C844   C     0.35136   0.10578   0.55953   0.00000  Uiso   1.00
C845   C     0.64549   0.10982   0.53794   0.00000  Uiso   1.00
H846   H     0.61638   0.21196   0.57964   0.00000  Uiso   1.00
H847   H     0.35229   0.20415   0.61786   0.00000  Uiso   1.00
H848   H     0.39566   0.13592   0.60581   0.00000  Uiso   1.00
H849   H     0.37057   0.07628   0.55400   0.00000  Uiso   1.00
H850   H     0.63460   0.08311   0.51595   0.00000  Uiso   1.00
Br851  Br    0.37970   0.07134   0.78634   0.00000  Uiso   1.00
Br852  Br    0.62115   0.26194   0.71478   0.00000  Uiso   1.00
Br853  Br    0.62404   0.06646   0.73024   0.00000  Uiso   1.00
Br854  Br    0.37592   0.26554   0.77440   0.00000  Uiso   1.00
Br855  Br    0.55970   0.05426   0.82367   0.00000  Uiso   1.00
Br856  Br    0.43895   0.27902   0.67777   0.00000  Uiso   1.00
Br857  Br    0.43811   0.05627   0.67852   0.00000  Uiso   1.00
Br858  Br    0.56185   0.27706   0.82152   0.00000  Uiso   1.00
C859   C     0.75354   0.16686   0.75454   0.00000  Uiso   1.00
C860   C     0.91317   0.16641   0.74541   0.00000  Uiso   1.00
C861   C     0.76790   0.20809   0.52297   0.00000  Uiso   1.00
C862   C     0.90927   0.15157   0.97686   0.00000  Uiso   1.00
C863   C     0.68807   0.12582   0.76030   0.00000  Uiso   1.00
C864   C     0.97889   0.20720   0.74063   0.00000  Uiso   1.00
C865   C     0.97992   0.12471   0.74693   0.00000  Uiso   1.00
C866   C     0.68690   0.20820   0.75450   0.00000  Uiso   1.00
C867   C     0.95778   0.16581   0.74126   0.00000  Uiso   1.00
C868   C     0.70906   0.16721   0.75930   0.00000  Uiso   1.00
C869   C     0.85829   0.02354   0.77998   0.00000  Uiso   1.00
C870   C     0.80812   0.30980   0.72029   0.00000  Uiso   1.00
C871   C     0.80807   0.02434   0.72033   0.00000  Uiso   1.00
C872   C     0.85855   0.30900   0.77972   0.00000  Uiso   1.00
C873   C     0.83411   0.16680   0.66352   0.00000  Uiso   1.00
C874   C     0.83312   0.16664   0.83643   0.00000  Uiso   1.00
C875   C     0.87028   0.15925   0.90724   0.00000  Uiso   1.00
C876   C     0.80315   0.18892   0.59248   0.00000  Uiso   1.00
C877   C     0.83282   0.16728   0.88414   0.00000  Uiso   1.00
C878   C     0.83602   0.16793   0.61573   0.00000  Uiso   1.00
C879   C     0.79655   0.17999   0.90578   0.00000  Uiso   1.00
C880   C     0.87121   0.15167   0.59407   0.00000  Uiso   1.00
C881   C     0.79895   0.18851   0.95234   0.00000  Uiso   1.00
C882   C     0.87437   0.15981   0.54752   0.00000  Uiso   1.00
C883   C     0.83646   0.17592   0.97640   0.00000  Uiso   1.00
C884   C     0.83811   0.17595   0.52338   0.00000  Uiso   1.00
C885   C     0.87202   0.16184   0.95352   0.00000  Uiso   1.00
C886   C     0.80289   0.19086   0.54626   0.00000  Uiso   1.00
C887   C     0.76557   0.20790   0.97618   0.00000  Uiso   1.00
C888   C     0.91137   0.15150   0.52372   0.00000  Uiso   1.00
H889   H     0.89785   0.15013   0.88899   0.00000  Uiso   1.00
H890   H     0.77669   0.20162   0.61053   0.00000  Uiso   1.00
H891   H     0.74230   0.22221   0.54143   0.00000  Uiso   1.00
H892   H     0.93712   0.14421   0.95840   0.00000  Uiso   1.00
N893   N     0.83333   0.28573   0.75000   0.00000  Uiso   1.00
N894   N     0.83333   0.04760   0.75000   0.00000  Uiso   1.00
O895   O     0.77226   0.20487   0.74999   0.00000  Uiso   1.00
O896   O     0.89441   0.12846   0.75001   0.00000  Uiso   1.00
O897   O     0.89441   0.20487   0.75000   0.00000  Uiso   1.00
O898   O     0.77226   0.12846   0.75000   0.00000  Uiso   1.00
O899   O     0.83333   0.20489   0.68392   0.00000  Uiso   1.00
O900   O     0.83334   0.12844   0.81608   0.00000  Uiso   1.00
O901   O     0.83334   0.20489   0.81608   0.00000  Uiso   1.00
O902   O     0.83333   0.12844   0.68392   0.00000  Uiso   1.00
Zn903  Zn    0.83333   0.21771   0.75000   0.00000  Uiso   1.00
Zn904  Zn    0.83333   0.11563   0.75000   0.00000  Uiso   1.00
Br905  Br    0.74427   0.17568   0.87178   0.00000  Uiso   1.00
Br906  Br    0.90982   0.11291   0.62784   0.00000  Uiso   1.00
C907   C     0.73005   0.23283   0.95444   0.00000  Uiso   1.00
C908   C     0.73722   0.27052   0.92702   0.00000  Uiso   1.00
C909   C     0.70367   0.29420   0.90677   0.00000  Uiso   1.00
C910   C     0.99616   0.28083   0.91418   0.00000  Uiso   1.00
C911   C     0.98876   0.24386   0.94200   0.00000  Uiso   1.00
C912   C     0.68886   0.22001   0.96226   0.00000  Uiso   1.00
H913   H     0.76873   0.28125   0.92111   0.00000  Uiso   1.00
H914   H     0.70934   0.32293   0.88534   0.00000  Uiso   1.00
H915   H     0.97026   0.29921   0.89847   0.00000  Uiso   1.00
H916   H     0.95710   0.23369   0.94784   0.00000  Uiso   1.00
H917   H     0.68274   0.19130   0.98357   0.00000  Uiso   1.00
C918   C     0.95342   0.14767   0.54564   0.00000  Uiso   1.00
C919   C     0.96855   0.18219   0.57388   0.00000  Uiso   1.00
C920   C     0.67438   0.17788   0.59555   0.00000  Uiso   1.00
C921   C     0.69893   0.13954   0.58864   0.00000  Uiso   1.00
C922   C     0.68470   0.10578   0.55953   0.00000  Uiso   1.00
C923   C     0.97883   0.10982   0.53794   0.00000  Uiso   1.00
H924   H     0.94972   0.21196   0.57964   0.00000  Uiso   1.00
H925   H     0.68562   0.20415   0.61786   0.00000  Uiso   1.00
H926   H     0.72899   0.13592   0.60581   0.00000  Uiso   1.00
H927   H     0.70391   0.07628   0.55400   0.00000  Uiso   1.00
H928   H     0.96793   0.08311   0.51595   0.00000  Uiso   1.00
Br929  Br    0.71303   0.07134   0.78634   0.00000  Uiso   1.00
Br930  Br    0.95449   0.26194   0.71478   0.00000  Uiso   1.00
Br931  Br    0.95738   0.06646   0.73024   0.00000  Uiso   1.00
Br932  Br    0.70925   0.26554   0.77440   0.00000  Uiso   1.00
Br933  Br    0.89303   0.05426   0.82367   0.00000  Uiso   1.00
Br934  Br    0.77228   0.27902   0.67777   0.00000  Uiso   1.00
Br935  Br    0.77145   0.05627   0.67852   0.00000  Uiso   1.00
Br936  Br    0.89518   0.27706   0.82152   0.00000  Uiso   1.00
C937   C     0.08688   0.50020   0.75454   0.00000  Uiso   1.00
C938   C     0.24650   0.49974   0.74541   0.00000  Uiso   1.00
C939   C     0.10124   0.54142   0.52297   0.00000  Uiso   1.00
C940   C     0.24260   0.48491   0.97686   0.00000  Uiso   1.00
C941   C     0.02140   0.45915   0.76030   0.00000  Uiso   1.00
C942   C     0.31222   0.54053   0.74063   0.00000  Uiso   1.00
C943   C     0.31325   0.45804   0.74693   0.00000  Uiso   1.00
C944   C     0.02023   0.54154   0.75450   0.00000  Uiso   1.00
C945   C     0.29112   0.49914   0.74126   0.00000  Uiso   1.00
C946   C     0.04239   0.50054   0.75930   0.00000  Uiso   1.00
C947   C     0.19162   0.35687   0.77998   0.00000  Uiso   1.00
C948   C     0.14146   0.64313   0.72029   0.00000  Uiso   1.00
C949   C     0.14141   0.35767   0.72033   0.00000  Uiso   1.00
C950   C     0.19188   0.64233   0.77972   0.00000  Uiso   1.00
C951   C     0.16745   0.50013   0.66352   0.00000  Uiso   1.00
C952   C     0.16645   0.49997   0.83643   0.00000  Uiso   1.00
C953   C     0.20362   0.49258   0.90724   0.00000  Uiso   1.00
C954   C     0.13649   0.52225   0.59248   0.00000  Uiso   1.00
C955   C     0.16615   0.50061   0.88414   0.00000  Uiso   1.00
C956   C     0.16936   0.50126   0.61573   0.00000  Uiso   1.00
C957   C     0.12988   0.51332   0.90578   0.00000  Uiso   1.00
C958   C     0.20454   0.48500   0.59407   0.00000  Uiso   1.00
C959   C     0.13228   0.52184   0.95234   0.00000  Uiso   1.00
C960   C     0.20770   0.49315   0.54752   0.00000  Uiso   1.00
C961   C     0.16980   0.50926   0.97640   0.00000  Uiso   1.00
C962   C     0.17144   0.50928   0.52338   0.00000  Uiso   1.00
C963   C     0.20536   0.49517   0.95352   0.00000  Uiso   1.00
C964   C     0.13623   0.52419   0.54626   0.00000  Uiso   1.00
C965   C     0.09890   0.54123   0.97618   0.00000  Uiso   1.00
C966   C     0.24470   0.48484   0.52372   0.00000  Uiso   1.00
H967   H     0.23118   0.48347   0.88899   0.00000  Uiso   1.00
H968   H     0.11003   0.53496   0.61053   0.00000  Uiso   1.00
H969   H     0.07563   0.55555   0.54143   0.00000  Uiso   1.00
H970   H     0.27045   0.47755   0.95840   0.00000  Uiso   1.00
N971   N     0.16667   0.61907   0.75000   0.00000  Uiso   1.00
N972   N     0.16667   0.38093   0.75000   0.00000  Uiso   1.00
O973   O     0.10559   0.53821   0.74999   0.00000  Uiso   1.00
O974   O     0.22774   0.46179   0.75001   0.00000  Uiso   1.00
O975   O     0.22774   0.53821   0.75000   0.00000  Uiso   1.00
O976   O     0.10559   0.46179   0.75000   0.00000  Uiso   1.00
O977   O     0.16666   0.53823   0.68392   0.00000  Uiso   1.00
O978   O     0.16667   0.46177   0.81608   0.00000  Uiso   1.00
O979   O     0.16667   0.53823   0.81608   0.00000  Uiso   1.00
O980   O     0.16666   0.46177   0.68392   0.00000  Uiso   1.00
Zn981  Zn    0.16667   0.55104   0.75000   0.00000  Uiso   1.00
Zn982  Zn    0.16667   0.44896   0.75000   0.00000  Uiso   1.00
Br983  Br    0.07760   0.50901   0.87178   0.00000  Uiso   1.00
Br984  Br    0.24315   0.44624   0.62784   0.00000  Uiso   1.00
C985   C     0.06339   0.56617   0.95444   0.00000  Uiso   1.00
C986   C     0.07055   0.60385   0.92702   0.00000  Uiso   1.00
C987   C     0.03701   0.62754   0.90677   0.00000  Uiso   1.00
C988   C     0.32950   0.61416   0.91418   0.00000  Uiso   1.00
C989   C     0.32209   0.57719   0.94200   0.00000  Uiso   1.00
C990   C     0.02219   0.55335   0.96226   0.00000  Uiso   1.00
H991   H     0.10206   0.61459   0.92111   0.00000  Uiso   1.00
H992   H     0.04268   0.65627   0.88534   0.00000  Uiso   1.00
H993   H     0.30359   0.63254   0.89847   0.00000  Uiso   1.00
H994   H     0.29044   0.56702   0.94784   0.00000  Uiso   1.00
H995   H     0.01607   0.52463   0.98357   0.00000  Uiso   1.00
C996   C     0.28675   0.48101   0.54564   0.00000  Uiso   1.00
C997   C     0.30188   0.51552   0.57388   0.00000  Uiso   1.00
C998   C     0.00772   0.51122   0.59555   0.00000  Uiso   1.00
C999   C     0.03226   0.47287   0.58864   0.00000  Uiso   1.00
C1000  C     0.01803   0.43911   0.55953   0.00000  Uiso   1.00
C1001  C     0.31216   0.44315   0.53794   0.00000  Uiso   1.00
H1002  H     0.28305   0.54529   0.57964   0.00000  Uiso   1.00
H1003  H     0.01896   0.53748   0.61786   0.00000  Uiso   1.00
H1004  H     0.06232   0.46925   0.60581   0.00000  Uiso   1.00
H1005  H     0.03724   0.40961   0.55400   0.00000  Uiso   1.00
H1006  H     0.30126   0.41644   0.51595   0.00000  Uiso   1.00
Br1007 Br    0.04637   0.40468   0.78634   0.00000  Uiso   1.00
Br1008 Br    0.28782   0.59527   0.71478   0.00000  Uiso   1.00
Br1009 Br    0.29071   0.39979   0.73024   0.00000  Uiso   1.00
Br1010 Br    0.04258   0.59888   0.77440   0.00000  Uiso   1.00
Br1011 Br    0.22637   0.38759   0.82367   0.00000  Uiso   1.00
Br1012 Br    0.10562   0.61235   0.67777   0.00000  Uiso   1.00
Br1013 Br    0.10478   0.38960   0.67852   0.00000  Uiso   1.00
Br1014 Br    0.22851   0.61040   0.82152   0.00000  Uiso   1.00
C1015  C     0.42021   0.50020   0.75454   0.00000  Uiso   1.00
C1016  C     0.57983   0.49974   0.74541   0.00000  Uiso   1.00
C1017  C     0.43457   0.54142   0.52297   0.00000  Uiso   1.00
C1018  C     0.57594   0.48491   0.97686   0.00000  Uiso   1.00
C1019  C     0.35474   0.45915   0.76030   0.00000  Uiso   1.00
C1020  C     0.64555   0.54053   0.74063   0.00000  Uiso   1.00
C1021  C     0.64658   0.45804   0.74693   0.00000  Uiso   1.00
C1022  C     0.35356   0.54154   0.75450   0.00000  Uiso   1.00
C1023  C     0.62445   0.49914   0.74126   0.00000  Uiso   1.00
C1024  C     0.37572   0.50054   0.75930   0.00000  Uiso   1.00
C1025  C     0.52496   0.35687   0.77998   0.00000  Uiso   1.00
C1026  C     0.47479   0.64313   0.72029   0.00000  Uiso   1.00
C1027  C     0.47474   0.35767   0.72033   0.00000  Uiso   1.00
C1028  C     0.52522   0.64233   0.77972   0.00000  Uiso   1.00
C1029  C     0.50078   0.50013   0.66352   0.00000  Uiso   1.00
C1030  C     0.49979   0.49997   0.83643   0.00000  Uiso   1.00
C1031  C     0.53695   0.49258   0.90724   0.00000  Uiso   1.00
C1032  C     0.46982   0.52225   0.59248   0.00000  Uiso   1.00
C1033  C     0.49949   0.50061   0.88414   0.00000  Uiso   1.00
C1034  C     0.50269   0.50126   0.61573   0.00000  Uiso   1.00
C1035  C     0.46322   0.51332   0.90578   0.00000  Uiso   1.00
C1036  C     0.53788   0.48500   0.59407   0.00000  Uiso   1.00
C1037  C     0.46561   0.52184   0.95234   0.00000  Uiso   1.00
C1038  C     0.54104   0.49315   0.54752   0.00000  Uiso   1.00
C1039  C     0.50313   0.50926   0.97640   0.00000  Uiso   1.00
C1040  C     0.50478   0.50928   0.52338   0.00000  Uiso   1.00
C1041  C     0.53869   0.49517   0.95352   0.00000  Uiso   1.00
C1042  C     0.46956   0.52419   0.54626   0.00000  Uiso   1.00
C1043  C     0.43223   0.54123   0.97618   0.00000  Uiso   1.00
C1044  C     0.57803   0.48484   0.52372   0.00000  Uiso   1.00
H1045  H     0.56452   0.48347   0.88899   0.00000  Uiso   1.00
H1046  H     0.44336   0.53496   0.61053   0.00000  Uiso   1.00
H1047  H     0.40896   0.55555   0.54143   0.00000  Uiso   1.00
H1048  H     0.60378   0.47755   0.95840   0.00000  Uiso   1.00
N1049  N     0.50000   0.61907   0.75000   0.00000  Uiso   1.00
N1050  N     0.50000   0.38093   0.75000   0.00000  Uiso   1.00
O1051  O     0.43892   0.53821   0.74999   0.00000  Uiso   1.00
O1052  O     0.56108   0.46179   0.75001   0.00000  Uiso   1.00
O1053  O     0.56108   0.53821   0.75000   0.00000  Uiso   1.00
O1054  O     0.43892   0.46179   0.75000   0.00000  Uiso   1.00
O1055  O     0.49999   0.53823   0.68392   0.00000  Uiso   1.00
O1056  O     0.50001   0.46177   0.81608   0.00000  Uiso   1.00
O1057  O     0.50001   0.53823   0.81608   0.00000  Uiso   1.00
O1058  O     0.49999   0.46177   0.68392   0.00000  Uiso   1.00
Zn1059 Zn    0.50000   0.55104   0.75000   0.00000  Uiso   1.00
Zn1060 Zn    0.50000   0.44896   0.75000   0.00000  Uiso   1.00
Br1061 Br    0.41094   0.50901   0.87178   0.00000  Uiso   1.00
Br1062 Br    0.57649   0.44624   0.62784   0.00000  Uiso   1.00
C1063  C     0.39672   0.56617   0.95444   0.00000  Uiso   1.00
C1064  C     0.40389   0.60385   0.92702   0.00000  Uiso   1.00
C1065  C     0.37034   0.62754   0.90677   0.00000  Uiso   1.00
C1066  C     0.66283   0.61416   0.91418   0.00000  Uiso   1.00
C1067  C     0.65542   0.57719   0.94200   0.00000  Uiso   1.00
C1068  C     0.35552   0.55335   0.96226   0.00000  Uiso   1.00
H1069  H     0.43539   0.61459   0.92111   0.00000  Uiso   1.00
H1070  H     0.37601   0.65627   0.88534   0.00000  Uiso   1.00
H1071  H     0.63693   0.63254   0.89847   0.00000  Uiso   1.00
H1072  H     0.62377   0.56702   0.94784   0.00000  Uiso   1.00
H1073  H     0.34941   0.52463   0.98357   0.00000  Uiso   1.00
C1074  C     0.62008   0.48101   0.54564   0.00000  Uiso   1.00
C1075  C     0.63521   0.51552   0.57388   0.00000  Uiso   1.00
C1076  C     0.34105   0.51122   0.59555   0.00000  Uiso   1.00
C1077  C     0.36560   0.47287   0.58864   0.00000  Uiso   1.00
C1078  C     0.35136   0.43911   0.55953   0.00000  Uiso   1.00
C1079  C     0.64549   0.44315   0.53794   0.00000  Uiso   1.00
H1080  H     0.61638   0.54529   0.57964   0.00000  Uiso   1.00
H1081  H     0.35229   0.53748   0.61786   0.00000  Uiso   1.00
H1082  H     0.39566   0.46925   0.60581   0.00000  Uiso   1.00
H1083  H     0.37057   0.40961   0.55400   0.00000  Uiso   1.00
H1084  H     0.63460   0.41644   0.51595   0.00000  Uiso   1.00
Br1085 Br    0.37970   0.40468   0.78634   0.00000  Uiso   1.00
Br1086 Br    0.62115   0.59527   0.71478   0.00000  Uiso   1.00
Br1087 Br    0.62404   0.39979   0.73024   0.00000  Uiso   1.00
Br1088 Br    0.37592   0.59888   0.77440   0.00000  Uiso   1.00
Br1089 Br    0.55970   0.38759   0.82367   0.00000  Uiso   1.00
Br1090 Br    0.43895   0.61235   0.67777   0.00000  Uiso   1.00
Br1091 Br    0.43811   0.38960   0.67852   0.00000  Uiso   1.00
Br1092 Br    0.56185   0.61040   0.82152   0.00000  Uiso   1.00
C1093  C     0.75354   0.50020   0.75454   0.00000  Uiso   1.00
C1094  C     0.91317   0.49974   0.74541   0.00000  Uiso   1.00
C1095  C     0.76790   0.54142   0.52297   0.00000  Uiso   1.00
C1096  C     0.90927   0.48491   0.97686   0.00000  Uiso   1.00
C1097  C     0.68807   0.45915   0.76030   0.00000  Uiso   1.00
C1098  C     0.97889   0.54053   0.74063   0.00000  Uiso   1.00
C1099  C     0.97992   0.45804   0.74693   0.00000  Uiso   1.00
C1100  C     0.68690   0.54154   0.75450   0.00000  Uiso   1.00
C1101  C     0.95778   0.49914   0.74126   0.00000  Uiso   1.00
C1102  C     0.70906   0.50054   0.75930   0.00000  Uiso   1.00
C1103  C     0.85829   0.35687   0.77998   0.00000  Uiso   1.00
C1104  C     0.80812   0.64313   0.72029   0.00000  Uiso   1.00
C1105  C     0.80807   0.35767   0.72033   0.00000  Uiso   1.00
C1106  C     0.85855   0.64233   0.77972   0.00000  Uiso   1.00
C1107  C     0.83411   0.50013   0.66352   0.00000  Uiso   1.00
C1108  C     0.83312   0.49997   0.83643   0.00000  Uiso   1.00
C1109  C     0.87028   0.49258   0.90724   0.00000  Uiso   1.00
C1110  C     0.80315   0.52225   0.59248   0.00000  Uiso   1.00
C1111  C     0.83282   0.50061   0.88414   0.00000  Uiso   1.00
C1112  C     0.83602   0.50126   0.61573   0.00000  Uiso   1.00
C1113  C     0.79655   0.51332   0.90578   0.00000  Uiso   1.00
C1114  C     0.87121   0.48500   0.59407   0.00000  Uiso   1.00
C1115  C     0.79895   0.52184   0.95234   0.00000  Uiso   1.00
C1116  C     0.87437   0.49315   0.54752   0.00000  Uiso   1.00
C1117  C     0.83646   0.50926   0.97640   0.00000  Uiso   1.00
C1118  C     0.83811   0.50928   0.52338   0.00000  Uiso   1.00
C1119  C     0.87202   0.49517   0.95352   0.00000  Uiso   1.00
C1120  C     0.80289   0.52419   0.54626   0.00000  Uiso   1.00
C1121  C     0.76557   0.54123   0.97618   0.00000  Uiso   1.00
C1122  C     0.91137   0.48484   0.52372   0.00000  Uiso   1.00
H1123  H     0.89785   0.48347   0.88899   0.00000  Uiso   1.00
H1124  H     0.77669   0.53496   0.61053   0.00000  Uiso   1.00
H1125  H     0.74230   0.55555   0.54143   0.00000  Uiso   1.00
H1126  H     0.93712   0.47755   0.95840   0.00000  Uiso   1.00
N1127  N     0.83333   0.61907   0.75000   0.00000  Uiso   1.00
N1128  N     0.83333   0.38093   0.75000   0.00000  Uiso   1.00
O1129  O     0.77226   0.53821   0.74999   0.00000  Uiso   1.00
O1130  O     0.89441   0.46179   0.75001   0.00000  Uiso   1.00
O1131  O     0.89441   0.53821   0.75000   0.00000  Uiso   1.00
O1132  O     0.77226   0.46179   0.75000   0.00000  Uiso   1.00
O1133  O     0.83333   0.53823   0.68392   0.00000  Uiso   1.00
O1134  O     0.83334   0.46177   0.81608   0.00000  Uiso   1.00
O1135  O     0.83334   0.53823   0.81608   0.00000  Uiso   1.00
O1136  O     0.83333   0.46177   0.68392   0.00000  Uiso   1.00
Zn1137 Zn    0.83333   0.55104   0.75000   0.00000  Uiso   1.00
Zn1138 Zn    0.83333   0.44896   0.75000   0.00000  Uiso   1.00
Br1139 Br    0.74427   0.50901   0.87178   0.00000  Uiso   1.00
Br1140 Br    0.90982   0.44624   0.62784   0.00000  Uiso   1.00
C1141  C     0.73005   0.56617   0.95444   0.00000  Uiso   1.00
C1142  C     0.73722   0.60385   0.92702   0.00000  Uiso   1.00
C1143  C     0.70367   0.62754   0.90677   0.00000  Uiso   1.00
C1144  C     0.99616   0.61416   0.91418   0.00000  Uiso   1.00
C1145  C     0.98876   0.57719   0.94200   0.00000  Uiso   1.00
C1146  C     0.68886   0.55335   0.96226   0.00000  Uiso   1.00
H1147  H     0.76873   0.61459   0.92111   0.00000  Uiso   1.00
H1148  H     0.70934   0.65627   0.88534   0.00000  Uiso   1.00
H1149  H     0.97026   0.63254   0.89847   0.00000  Uiso   1.00
H1150  H     0.95710   0.56702   0.94784   0.00000  Uiso   1.00
H1151  H     0.68274   0.52463   0.98357   0.00000  Uiso   1.00
C1152  C     0.95342   0.48101   0.54564   0.00000  Uiso   1.00
C1153  C     0.96855   0.51552   0.57388   0.00000  Uiso   1.00
C1154  C     0.67438   0.51122   0.59555   0.00000  Uiso   1.00
C1155  C     0.69893   0.47287   0.58864   0.00000  Uiso   1.00
C1156  C     0.68470   0.43911   0.55953   0.00000  Uiso   1.00
C1157  C     0.97883   0.44315   0.53794   0.00000  Uiso   1.00
H1158  H     0.94972   0.54529   0.57964   0.00000  Uiso   1.00
H1159  H     0.68562   0.53748   0.61786   0.00000  Uiso   1.00
H1160  H     0.72899   0.46925   0.60581   0.00000  Uiso   1.00
H1161  H     0.70391   0.40961   0.55400   0.00000  Uiso   1.00
H1162  H     0.96793   0.41644   0.51595   0.00000  Uiso   1.00
Br1163 Br    0.71303   0.40468   0.78634   0.00000  Uiso   1.00
Br1164 Br    0.95449   0.59527   0.71478   0.00000  Uiso   1.00
Br1165 Br    0.95738   0.39979   0.73024   0.00000  Uiso   1.00
Br1166 Br    0.70925   0.59888   0.77440   0.00000  Uiso   1.00
Br1167 Br    0.89303   0.38759   0.82367   0.00000  Uiso   1.00
Br1168 Br    0.77228   0.61235   0.67777   0.00000  Uiso   1.00
Br1169 Br    0.77145   0.38960   0.67852   0.00000  Uiso   1.00
Br1170 Br    0.89518   0.61040   0.82152   0.00000  Uiso   1.00
C1171  C     0.08688   0.83353   0.75454   0.00000  Uiso   1.00
C1172  C     0.24650   0.83308   0.74541   0.00000  Uiso   1.00
C1173  C     0.10124   0.87475   0.52297   0.00000  Uiso   1.00
C1174  C     0.24260   0.81824   0.97686   0.00000  Uiso   1.00
C1175  C     0.02140   0.79249   0.76030   0.00000  Uiso   1.00
C1176  C     0.31222   0.87387   0.74063   0.00000  Uiso   1.00
C1177  C     0.31325   0.79138   0.74693   0.00000  Uiso   1.00
C1178  C     0.02023   0.87487   0.75450   0.00000  Uiso   1.00
C1179  C     0.29112   0.83247   0.74126   0.00000  Uiso   1.00
C1180  C     0.04239   0.83388   0.75930   0.00000  Uiso   1.00
C1181  C     0.19162   0.69020   0.77998   0.00000  Uiso   1.00
C1182  C     0.14146   0.97646   0.72029   0.00000  Uiso   1.00
C1183  C     0.14141   0.69100   0.72033   0.00000  Uiso   1.00
C1184  C     0.19188   0.97566   0.77972   0.00000  Uiso   1.00
C1185  C     0.16745   0.83346   0.66352   0.00000  Uiso   1.00
C1186  C     0.16645   0.83330   0.83643   0.00000  Uiso   1.00
C1187  C     0.20362   0.82591   0.90724   0.00000  Uiso   1.00
C1188  C     0.13649   0.85558   0.59248   0.00000  Uiso   1.00
C1189  C     0.16615   0.83394   0.88414   0.00000  Uiso   1.00
C1190  C     0.16936   0.83459   0.61573   0.00000  Uiso   1.00
C1191  C     0.12988   0.84665   0.90578   0.00000  Uiso   1.00
C1192  C     0.20454   0.81834   0.59407   0.00000  Uiso   1.00
C1193  C     0.13228   0.85518   0.95234   0.00000  Uiso   1.00
C1194  C     0.20770   0.82648   0.54752   0.00000  Uiso   1.00
C1195  C     0.16980   0.84259   0.97640   0.00000  Uiso   1.00
C1196  C     0.17144   0.84262   0.52338   0.00000  Uiso   1.00
C1197  C     0.20536   0.82850   0.95352   0.00000  Uiso   1.00
C1198  C     0.13623   0.85752   0.54626   0.00000  Uiso   1.00
C1199  C     0.09890   0.87456   0.97618   0.00000  Uiso   1.00
C1200  C     0.24470   0.81817   0.52372   0.00000  Uiso   1.00
H1201  H     0.23118   0.81680   0.88899   0.00000  Uiso   1.00
H1202  H     0.11003   0.86829   0.61053   0.00000  Uiso   1.00
H1203  H     0.07563   0.88888   0.54143   0.00000  Uiso   1.00
H1204  H     0.27045   0.81088   0.95840   0.00000  Uiso   1.00
N1205  N     0.16667   0.95240   0.75000   0.00000  Uiso   1.00
N1206  N     0.16667   0.71427   0.75000   0.00000  Uiso   1.00
O1207  O     0.10559   0.87154   0.74999   0.00000  Uiso   1.00
O1208  O     0.22774   0.79513   0.75001   0.00000  Uiso   1.00
O1209  O     0.22774   0.87154   0.75000   0.00000  Uiso   1.00
O1210  O     0.10559   0.79513   0.75000   0.00000  Uiso   1.00
O1211  O     0.16666   0.87156   0.68392   0.00000  Uiso   1.00
O1212  O     0.16667   0.79511   0.81608   0.00000  Uiso   1.00
O1213  O     0.16667   0.87156   0.81608   0.00000  Uiso   1.00
O1214  O     0.16666   0.79511   0.68392   0.00000  Uiso   1.00
Zn1215 Zn    0.16667   0.88437   0.75000   0.00000  Uiso   1.00
Zn1216 Zn    0.16667   0.78229   0.75000   0.00000  Uiso   1.00
Br1217 Br    0.07760   0.84234   0.87178   0.00000  Uiso   1.00
Br1218 Br    0.24315   0.77958   0.62784   0.00000  Uiso   1.00
C1219  C     0.06339   0.89950   0.95444   0.00000  Uiso   1.00
C1220  C     0.07055   0.93718   0.92702   0.00000  Uiso   1.00
C1221  C     0.03701   0.96087   0.90677   0.00000  Uiso   1.00
C1222  C     0.32950   0.94750   0.91418   0.00000  Uiso   1.00
C1223  C     0.32209   0.91053   0.94200   0.00000  Uiso   1.00
C1224  C     0.02219   0.88668   0.96226   0.00000  Uiso   1.00
H1225  H     0.10206   0.94792   0.92111   0.00000  Uiso   1.00
H1226  H     0.04268   0.98960   0.88534   0.00000  Uiso   1.00
H1227  H     0.30359   0.96588   0.89847   0.00000  Uiso   1.00
H1228  H     0.29044   0.90035   0.94784   0.00000  Uiso   1.00
H1229  H     0.01607   0.85797   0.98357   0.00000  Uiso   1.00
C1230  C     0.28675   0.81434   0.54564   0.00000  Uiso   1.00
C1231  C     0.30188   0.84886   0.57388   0.00000  Uiso   1.00
C1232  C     0.00772   0.84455   0.59555   0.00000  Uiso   1.00
C1233  C     0.03226   0.80621   0.58864   0.00000  Uiso   1.00
C1234  C     0.01803   0.77245   0.55953   0.00000  Uiso   1.00
C1235  C     0.31216   0.77648   0.53794   0.00000  Uiso   1.00
H1236  H     0.28305   0.87863   0.57964   0.00000  Uiso   1.00
H1237  H     0.01896   0.87081   0.61786   0.00000  Uiso   1.00
H1238  H     0.06232   0.80258   0.60581   0.00000  Uiso   1.00
H1239  H     0.03724   0.74295   0.55400   0.00000  Uiso   1.00
H1240  H     0.30126   0.74977   0.51595   0.00000  Uiso   1.00
Br1241 Br    0.04637   0.73801   0.78634   0.00000  Uiso   1.00
Br1242 Br    0.28782   0.92860   0.71478   0.00000  Uiso   1.00
Br1243 Br    0.29071   0.73313   0.73024   0.00000  Uiso   1.00
Br1244 Br    0.04258   0.93221   0.77440   0.00000  Uiso   1.00
Br1245 Br    0.22637   0.72093   0.82367   0.00000  Uiso   1.00
Br1246 Br    0.10562   0.94569   0.67777   0.00000  Uiso   1.00
Br1247 Br    0.10478   0.72293   0.67852   0.00000  Uiso   1.00
Br1248 Br    0.22851   0.94373   0.82152   0.00000  Uiso   1.00
C1249  C     0.42021   0.83353   0.75454   0.00000  Uiso   1.00
C1250  C     0.57983   0.83308   0.74541   0.00000  Uiso   1.00
C1251  C     0.43457   0.87475   0.52297   0.00000  Uiso   1.00
C1252  C     0.57594   0.81824   0.97686   0.00000  Uiso   1.00
C1253  C     0.35474   0.79249   0.76030   0.00000  Uiso   1.00
C1254  C     0.64555   0.87387   0.74063   0.00000  Uiso   1.00
C1255  C     0.64658   0.79138   0.74693   0.00000  Uiso   1.00
C1256  C     0.35356   0.87487   0.75450   0.00000  Uiso   1.00
C1257  C     0.62445   0.83247   0.74126   0.00000  Uiso   1.00
C1258  C     0.37572   0.83388   0.75930   0.00000  Uiso   1.00
C1259  C     0.52496   0.69020   0.77998   0.00000  Uiso   1.00
C1260  C     0.47479   0.97646   0.72029   0.00000  Uiso   1.00
C1261  C     0.47474   0.69100   0.72033   0.00000  Uiso   1.00
C1262  C     0.52522   0.97566   0.77972   0.00000  Uiso   1.00
C1263  C     0.50078   0.83346   0.66352   0.00000  Uiso   1.00
C1264  C     0.49979   0.83330   0.83643   0.00000  Uiso   1.00
C1265  C     0.53695   0.82591   0.90724   0.00000  Uiso   1.00
C1266  C     0.46982   0.85558   0.59248   0.00000  Uiso   1.00
C1267  C     0.49949   0.83394   0.88414   0.00000  Uiso   1.00
C1268  C     0.50269   0.83459   0.61573   0.00000  Uiso   1.00
C1269  C     0.46322   0.84665   0.90578   0.00000  Uiso   1.00
C1270  C     0.53788   0.81834   0.59407   0.00000  Uiso   1.00
C1271  C     0.46561   0.85518   0.95234   0.00000  Uiso   1.00
C1272  C     0.54104   0.82648   0.54752   0.00000  Uiso   1.00
C1273  C     0.50313   0.84259   0.97640   0.00000  Uiso   1.00
C1274  C     0.50478   0.84262   0.52338   0.00000  Uiso   1.00
C1275  C     0.53869   0.82850   0.95352   0.00000  Uiso   1.00
C1276  C     0.46956   0.85752   0.54626   0.00000  Uiso   1.00
C1277  C     0.43223   0.87456   0.97618   0.00000  Uiso   1.00
C1278  C     0.57803   0.81817   0.52372   0.00000  Uiso   1.00
H1279  H     0.56452   0.81680   0.88899   0.00000  Uiso   1.00
H1280  H     0.44336   0.86829   0.61053   0.00000  Uiso   1.00
H1281  H     0.40896   0.88888   0.54143   0.00000  Uiso   1.00
H1282  H     0.60378   0.81088   0.95840   0.00000  Uiso   1.00
N1283  N     0.50000   0.95240   0.75000   0.00000  Uiso   1.00
N1284  N     0.50000   0.71427   0.75000   0.00000  Uiso   1.00
O1285  O     0.43892   0.87154   0.74999   0.00000  Uiso   1.00
O1286  O     0.56108   0.79513   0.75001   0.00000  Uiso   1.00
O1287  O     0.56108   0.87154   0.75000   0.00000  Uiso   1.00
O1288  O     0.43892   0.79513   0.75000   0.00000  Uiso   1.00
O1289  O     0.49999   0.87156   0.68392   0.00000  Uiso   1.00
O1290  O     0.50001   0.79511   0.81608   0.00000  Uiso   1.00
O1291  O     0.50001   0.87156   0.81608   0.00000  Uiso   1.00
O1292  O     0.49999   0.79511   0.68392   0.00000  Uiso   1.00
Zn1293 Zn    0.50000   0.88437   0.75000   0.00000  Uiso   1.00
Zn1294 Zn    0.50000   0.78229   0.75000   0.00000  Uiso   1.00
Br1295 Br    0.41094   0.84234   0.87178   0.00000  Uiso   1.00
Br1296 Br    0.57649   0.77958   0.62784   0.00000  Uiso   1.00
C1297  C     0.39672   0.89950   0.95444   0.00000  Uiso   1.00
C1298  C     0.40389   0.93718   0.92702   0.00000  Uiso   1.00
C1299  C     0.37034   0.96087   0.90677   0.00000  Uiso   1.00
C1300  C     0.66283   0.94750   0.91418   0.00000  Uiso   1.00
C1301  C     0.65542   0.91053   0.94200   0.00000  Uiso   1.00
C1302  C     0.35552   0.88668   0.96226   0.00000  Uiso   1.00
H1303  H     0.43539   0.94792   0.92111   0.00000  Uiso   1.00
H1304  H     0.37601   0.98960   0.88534   0.00000  Uiso   1.00
H1305  H     0.63693   0.96588   0.89847   0.00000  Uiso   1.00
H1306  H     0.62377   0.90035   0.94784   0.00000  Uiso   1.00
H1307  H     0.34941   0.85797   0.98357   0.00000  Uiso   1.00
C1308  C     0.62008   0.81434   0.54564   0.00000  Uiso   1.00
C1309  C     0.63521   0.84886   0.57388   0.00000  Uiso   1.00
C1310  C     0.34105   0.84455   0.59555   0.00000  Uiso   1.00
C1311  C     0.36560   0.80621   0.58864   0.00000  Uiso   1.00
C1312  C     0.35136   0.77245   0.55953   0.00000  Uiso   1.00
C1313  C     0.64549   0.77648   0.53794   0.00000  Uiso   1.00
H1314  H     0.61638   0.87863   0.57964   0.00000  Uiso   1.00
H1315  H     0.35229   0.87081   0.61786   0.00000  Uiso   1.00
H1316  H     0.39566   0.80258   0.60581   0.00000  Uiso   1.00
H1317  H     0.37057   0.74295   0.55400   0.00000  Uiso   1.00
H1318  H     0.63460   0.74977   0.51595   0.00000  Uiso   1.00
Br1319 Br    0.37970   0.73801   0.78634   0.00000  Uiso   1.00
Br1320 Br    0.62115   0.92860   0.71478   0.00000  Uiso   1.00
Br1321 Br    0.62404   0.73313   0.73024   0.00000  Uiso   1.00
Br1322 Br    0.37592   0.93221   0.77440   0.00000  Uiso   1.00
Br1323 Br    0.55970   0.72093   0.82367   0.00000  Uiso   1.00
Br1324 Br    0.43895   0.94569   0.67777   0.00000  Uiso   1.00
Br1325 Br    0.43811   0.72293   0.67852   0.00000  Uiso   1.00
Br1326 Br    0.56185   0.94373   0.82152   0.00000  Uiso   1.00
C1327  C     0.75354   0.83353   0.75454   0.00000  Uiso   1.00
C1328  C     0.91317   0.83308   0.74541   0.00000  Uiso   1.00
C1329  C     0.76790   0.87475   0.52297   0.00000  Uiso   1.00
C1330  C     0.90927   0.81824   0.97686   0.00000  Uiso   1.00
C1331  C     0.68807   0.79249   0.76030   0.00000  Uiso   1.00
C1332  C     0.97889   0.87387   0.74063   0.00000  Uiso   1.00
C1333  C     0.97992   0.79138   0.74693   0.00000  Uiso   1.00
C1334  C     0.68690   0.87487   0.75450   0.00000  Uiso   1.00
C1335  C     0.95778   0.83247   0.74126   0.00000  Uiso   1.00
C1336  C     0.70906   0.83388   0.75930   0.00000  Uiso   1.00
C1337  C     0.85829   0.69020   0.77998   0.00000  Uiso   1.00
C1338  C     0.80812   0.97646   0.72029   0.00000  Uiso   1.00
C1339  C     0.80807   0.69100   0.72033   0.00000  Uiso   1.00
C1340  C     0.85855   0.97566   0.77972   0.00000  Uiso   1.00
C1341  C     0.83411   0.83346   0.66352   0.00000  Uiso   1.00
C1342  C     0.83312   0.83330   0.83643   0.00000  Uiso   1.00
C1343  C     0.87028   0.82591   0.90724   0.00000  Uiso   1.00
C1344  C     0.80315   0.85558   0.59248   0.00000  Uiso   1.00
C1345  C     0.83282   0.83394   0.88414   0.00000  Uiso   1.00
C1346  C     0.83602   0.83459   0.61573   0.00000  Uiso   1.00
C1347  C     0.79655   0.84665   0.90578   0.00000  Uiso   1.00
C1348  C     0.87121   0.81834   0.59407   0.00000  Uiso   1.00
C1349  C     0.79895   0.85518   0.95234   0.00000  Uiso   1.00
C1350  C     0.87437   0.82648   0.54752   0.00000  Uiso   1.00
C1351  C     0.83646   0.84259   0.97640   0.00000  Uiso   1.00
C1352  C     0.83811   0.84262   0.52338   0.00000  Uiso   1.00
C1353  C     0.87202   0.82850   0.95352   0.00000  Uiso   1.00
C1354  C     0.80289   0.85752   0.54626   0.00000  Uiso   1.00
C1355  C     0.76557   0.87456   0.97618   0.00000  Uiso   1.00
C1356  C     0.91137   0.81817   0.52372   0.00000  Uiso   1.00
H1357  H     0.89785   0.81680   0.88899   0.00000  Uiso   1.00
H1358  H     0.77669   0.86829   0.61053   0.00000  Uiso   1.00
H1359  H     0.74230   0.88888   0.54143   0.00000  Uiso   1.00
H1360  H     0.93712   0.81088   0.95840   0.00000  Uiso   1.00
N1361  N     0.83333   0.95240   0.75000   0.00000  Uiso   1.00
N1362  N     0.83333   0.71427   0.75000   0.00000  Uiso   1.00
O1363  O     0.77226   0.87154   0.74999   0.00000  Uiso   1.00
O1364  O     0.89441   0.79513   0.75001   0.00000  Uiso   1.00
O1365  O     0.89441   0.87154   0.75000   0.00000  Uiso   1.00
O1366  O     0.77226   0.79513   0.75000   0.00000  Uiso   1.00
O1367  O     0.83333   0.87156   0.68392   0.00000  Uiso   1.00
O1368  O     0.83334   0.79511   0.81608   0.00000  Uiso   1.00
O1369  O     0.83334   0.87156   0.81608   0.00000  Uiso   1.00
O1370  O     0.83333   0.79511   0.68392   0.00000  Uiso   1.00
Zn1371 Zn    0.83333   0.88437   0.75000   0.00000  Uiso   1.00
Zn1372 Zn    0.83333   0.78229   0.75000   0.00000  Uiso   1.00
Br1373 Br    0.74427   0.84234   0.87178   0.00000  Uiso   1.00
Br1374 Br    0.90982   0.77958   0.62784   0.00000  Uiso   1.00
C1375  C     0.73005   0.89950   0.95444   0.00000  Uiso   1.00
C1376  C     0.73722   0.93718   0.92702   0.00000  Uiso   1.00
C1377  C     0.70367   0.96087   0.90677   0.00000  Uiso   1.00
C1378  C     0.99616   0.94750   0.91418   0.00000  Uiso   1.00
C1379  C     0.98876   0.91053   0.94200   0.00000  Uiso   1.00
C1380  C     0.68886   0.88668   0.96226   0.00000  Uiso   1.00
H1381  H     0.76873   0.94792   0.92111   0.00000  Uiso   1.00
H1382  H     0.70934   0.98960   0.88534   0.00000  Uiso   1.00
H1383  H     0.97026   0.96588   0.89847   0.00000  Uiso   1.00
H1384  H     0.95710   0.90035   0.94784   0.00000  Uiso   1.00
H1385  H     0.68274   0.85797   0.98357   0.00000  Uiso   1.00
C1386  C     0.95342   0.81434   0.54564   0.00000  Uiso   1.00
C1387  C     0.96855   0.84886   0.57388   0.00000  Uiso   1.00
C1388  C     0.67438   0.84455   0.59555   0.00000  Uiso   1.00
C1389  C     0.69893   0.80621   0.58864   0.00000  Uiso   1.00
C1390  C     0.68470   0.77245   0.55953   0.00000  Uiso   1.00
C1391  C     0.97883   0.77648   0.53794   0.00000  Uiso   1.00
H1392  H     0.94972   0.87863   0.57964   0.00000  Uiso   1.00
H1393  H     0.68562   0.87081   0.61786   0.00000  Uiso   1.00
H1394  H     0.72899   0.80258   0.60581   0.00000  Uiso   1.00
H1395  H     0.70391   0.74295   0.55400   0.00000  Uiso   1.00
H1396  H     0.96793   0.74977   0.51595   0.00000  Uiso   1.00
Br1397 Br    0.71303   0.73801   0.78634   0.00000  Uiso   1.00
Br1398 Br    0.95449   0.92860   0.71478   0.00000  Uiso   1.00
Br1399 Br    0.95738   0.73313   0.73024   0.00000  Uiso   1.00
Br1400 Br    0.70925   0.93221   0.77440   0.00000  Uiso   1.00
Br1401 Br    0.89303   0.72093   0.82367   0.00000  Uiso   1.00
Br1402 Br    0.77228   0.94569   0.67777   0.00000  Uiso   1.00
Br1403 Br    0.77145   0.72293   0.67852   0.00000  Uiso   1.00
Br1404 Br    0.89518   0.94373   0.82152   0.00000  Uiso   1.00
loop_
_geom_bond_atom_site_label_1
_geom_bond_atom_site_label_2
_geom_bond_distance
_geom_bond_site_symmetry_2
_ccdc_geom_bond_type
C1     O40     1.293   .     A
C1     O37     1.291   .     A
C1     C10     1.440   .     S
C2     O39     1.295   .     A
C2     O38     1.291   .     A
C2     C9      1.442   .     S
C3     H33     1.086   .     S
C3     C28     1.392   .     A
C3     C731    1.392   1_554 S
C4     H34     1.086   .     S
C4     C27     1.394   .     A
C4     C732    1.393   .     S
C5     C10     1.407   .     A
C5     Br71    1.944   .     S
C5     C163    1.378   1_455 S
C6     C9      1.408   .     A
C6     Br72    1.941   .     S
C6     C86     1.378   .     S
C7     Br73    1.940   .     S
C7     C9      1.412   .     A
C7     C83     1.378   .     S
C8     Br74    1.940   .     S
C8     C10     1.408   .     A
C8     C162    1.378   1_455 S
C11    N36     1.372   .     A
C11    Br75    1.923   .     S
C11    C482    1.420   1_545 S
C12    N35     1.372   .     A
C12    Br76    1.921   .     S
C12    C247    1.420   .     S
C13    Br77    1.924   .     S
C13    N36     1.372   .     A
C13    C480    1.420   1_545 S
C14    Br78    1.924   .     S
C14    N35     1.372   .     A
C14    C245    1.420   .     S
C15    O44     1.288   .     A
C15    C20     1.425   .     S
C15    O41     1.286   .     A
C16    O43     1.284   .     A
C16    O42     1.287   .     A
C16    C19     1.420   .     S
C17    C27     1.378   .     A
C17    H31     1.086   .     S
C17    C19     1.384   .     A
C18    C28     1.376   .     A
C18    H32     1.085   .     S
C18    C20     1.384   .     A
C19    C21     1.399   .     A
C20    C22     1.402   .     A
C21    C23     1.409   .     A
C21    Br47    1.937   .     S
C22    Br48    1.936   .     S
C22    C24     1.412   .     A
C23    C29     1.423   .     A
C23    C25     1.427   .     A
C24    C26     1.426   .     A
C24    C30     1.423   .     A
C25    C27     1.410   .     A
C25    C728    1.397   .     S
C26    C28     1.408   .     A
C26    C727    1.397   1_554 S
C29    C49     1.482   .     S
C29    C705    1.392   .     S
C30    C60     1.483   .     S
C30    C706    1.393   1_554 S
N35    Zn45    2.018   .     S
N36    Zn46    2.018   .     S
O37    Zn45    2.001   .     S
O38    Zn46    2.001   .     S
O39    Zn45    1.994   .     S
O40    Zn46    1.994   .     S
O41    Zn45    2.004   .     S
O42    Zn46    2.004   .     S
O43    Zn45    2.000   .     S
O44    Zn46    2.000   .     S
C49    C50     1.406   .     A
C49    C54     1.406   .     A
C50    C51     1.399   .     A
C50    H55     1.083   .     S
C51    H56     1.082   .     S
C51    C208    1.398   1_455 S
C52    C53     1.398   .     A
C52    H57     1.082   .     S
C52    C129    1.398   .     S
C53    H58     1.082   .     S
C53    C132    1.399   .     S
C54    H59     1.083   .     S
C54    C209    1.399   1_455 S
C60    C61     1.407   .     A
C60    C65     1.406   .     A
C61    H66     1.083   .     S
C61    C140    1.399   .     S
C62    H67     1.083   .     S
C62    C63     1.398   .     A
C62    C217    1.399   1_455 S
C63    H68     1.081   .     S
C63    C64     1.397   .     A
C64    H69     1.082   .     S
C64    C221    1.398   1_455 S
C65    H70     1.083   .     S
C65    C142    1.398   .     S
C79    O118    1.293   .     A
C79    O115    1.291   .     A
C79    C88     1.440   .     S
C80    O117    1.295   .     A
C80    O116    1.291   .     A
C80    C87     1.442   .     S
C81    H111    1.086   .     S
C81    C106    1.392   .     A
C81    C809    1.392   1_554 S
C82    H112    1.086   .     S
C82    C105    1.394   .     A
C82    C810    1.393   .     S
C83    C88     1.407   .     A
C83    Br149   1.944   .     S
C84    C87     1.408   .     A
C84    Br150   1.941   .     S
C84    C164    1.378   .     S
C85    Br151   1.940   .     S
C85    C87     1.412   .     A
C85    C161    1.378   .     S
C86    Br152   1.940   .     S
C86    C88     1.408   .     A
C89    N114    1.372   .     A
C89    Br153   1.923   .     S
C89    C560    1.420   1_545 S
C90    N113    1.372   .     A
C90    Br154   1.921   .     S
C90    C325    1.420   .     S
C91    Br155   1.924   .     S
C91    N114    1.372   .     A
C91    C558    1.420   1_545 S
C92    Br156   1.924   .     S
C92    N113    1.372   .     A
C92    C323    1.420   .     S
C93    O122    1.288   .     A
C93    C98     1.425   .     S
C93    O119    1.286   .     A
C94    O121    1.284   .     A
C94    O120    1.287   .     A
C94    C97     1.420   .     S
C95    C105    1.378   .     A
C95    H109    1.086   .     S
C95    C97     1.384   .     A
C96    C106    1.376   .     A
C96    H110    1.085   .     S
C96    C98     1.384   .     A
C97    C99     1.399   .     A
C98    C100    1.402   .     A
C99    C101    1.409   .     A
C99    Br125   1.937   .     S
C100   Br126   1.936   .     S
C100   C102    1.412   .     A
C101   C107    1.423   .     A
C101   C103    1.427   .     A
C102   C104    1.426   .     A
C102   C108    1.423   .     A
C103   C105    1.410   .     A
C103   C806    1.397   .     S
C104   C106    1.408   .     A
C104   C805    1.397   1_554 S
C107   C127    1.482   .     S
C107   C783    1.392   .     S
C108   C138    1.483   .     S
C108   C784    1.393   1_554 S
N113   Zn123   2.018   .     S
N114   Zn124   2.018   .     S
O115   Zn123   2.001   .     S
O116   Zn124   2.001   .     S
O117   Zn123   1.994   .     S
O118   Zn124   1.994   .     S
O119   Zn123   2.004   .     S
O120   Zn124   2.004   .     S
O121   Zn123   2.000   .     S
O122   Zn124   2.000   .     S
C127   C128    1.406   .     A
C127   C132    1.406   .     A
C128   C129    1.399   .     A
C128   H133    1.083   .     S
C129   H134    1.082   .     S
C130   C131    1.398   .     A
C130   H135    1.082   .     S
C130   C207    1.398   .     S
C131   H136    1.082   .     S
C131   C210    1.399   .     S
C132   H137    1.083   .     S
C138   C139    1.407   .     A
C138   C143    1.406   .     A
C139   H144    1.083   .     S
C139   C218    1.399   .     S
C140   H145    1.083   .     S
C140   C141    1.398   .     A
C141   H146    1.081   .     S
C141   C142    1.397   .     A
C142   H147    1.082   .     S
C143   H148    1.083   .     S
C143   C220    1.398   .     S
C157   O196    1.293   .     A
C157   O193    1.291   .     A
C157   C166    1.440   .     S
C158   O195    1.295   .     A
C158   O194    1.291   .     A
C158   C165    1.442   .     S
C159   H189    1.086   .     S
C159   C184    1.392   .     A
C159   C887    1.392   1_554 S
C160   H190    1.086   .     S
C160   C183    1.394   .     A
C160   C888    1.393   .     S
C161   C166    1.407   .     A
C161   Br227   1.944   .     S
C162   C165    1.408   .     A
C162   Br228   1.941   .     S
C162   C8      1.378   1_655 S
C163   Br229   1.940   .     S
C163   C165    1.412   .     A
C163   C5      1.378   1_655 S
C164   Br230   1.940   .     S
C164   C166    1.408   .     A
C167   N192    1.372   .     A
C167   Br231   1.923   .     S
C167   C638    1.420   1_545 S
C168   N191    1.372   .     A
C168   Br232   1.921   .     S
C168   C403    1.420   .     S
C169   Br233   1.924   .     S
C169   N192    1.372   .     A
C169   C636    1.420   1_545 S
C170   Br234   1.924   .     S
C170   N191    1.372   .     A
C170   C401    1.420   .     S
C171   O200    1.288   .     A
C171   C176    1.425   .     S
C171   O197    1.286   .     A
C172   O199    1.284   .     A
C172   O198    1.287   .     A
C172   C175    1.420   .     S
C173   C183    1.378   .     A
C173   H187    1.086   .     S
C173   C175    1.384   .     A
C174   C184    1.376   .     A
C174   H188    1.085   .     S
C174   C176    1.384   .     A
C175   C177    1.399   .     A
C176   C178    1.402   .     A
C177   C179    1.409   .     A
C177   Br203   1.937   .     S
C178   Br204   1.936   .     S
C178   C180    1.412   .     A
C179   C185    1.423   .     A
C179   C181    1.427   .     A
C180   C182    1.426   .     A
C180   C186    1.423   .     A
C181   C183    1.410   .     A
C181   C884    1.397   .     S
C182   C184    1.408   .     A
C182   C883    1.397   1_554 S
C185   C205    1.482   .     S
C185   C861    1.392   .     S
C186   C216    1.483   .     S
C186   C862    1.393   1_554 S
N191   Zn201   2.018   .     S
N192   Zn202   2.018   .     S
O193   Zn201   2.001   .     S
O194   Zn202   2.001   .     S
O195   Zn201   1.994   .     S
O196   Zn202   1.994   .     S
O197   Zn201   2.004   .     S
O198   Zn202   2.004   .     S
O199   Zn201   2.000   .     S
O200   Zn202   2.000   .     S
C205   C206    1.406   .     A
C205   C210    1.406   .     A
C206   C207    1.399   .     A
C206   H211    1.083   .     S
C207   H212    1.082   .     S
C208   C209    1.398   .     A
C208   H213    1.082   .     S
C208   C51     1.398   1_655 S
C209   H214    1.082   .     S
C209   C54     1.399   1_655 S
C210   H215    1.083   .     S
C216   C217    1.407   .     A
C216   C221    1.406   .     A
C217   H222    1.083   .     S
C217   C62     1.399   1_655 S
C218   H223    1.083   .     S
C218   C219    1.398   .     A
C219   H224    1.081   .     S
C219   C220    1.397   .     A
C220   H225    1.082   .     S
C221   H226    1.083   .     S
C221   C64     1.398   1_655 S
C235   O274    1.293   .     A
C235   O271    1.291   .     A
C235   C244    1.440   .     S
C236   O273    1.295   .     A
C236   O272    1.291   .     A
C236   C243    1.442   .     S
C237   H267    1.086   .     S
C237   C262    1.392   .     A
C237   C965    1.392   1_554 S
C238   H268    1.086   .     S
C238   C261    1.394   .     A
C238   C966    1.393   .     S
C239   C244    1.407   .     A
C239   Br305   1.944   .     S
C239   C397    1.378   1_455 S
C240   C243    1.408   .     A
C240   Br306   1.941   .     S
C240   C320    1.378   .     S
C241   Br307   1.940   .     S
C241   C243    1.412   .     A
C241   C317    1.378   .     S
C242   Br308   1.940   .     S
C242   C244    1.408   .     A
C242   C396    1.378   1_455 S
C245   N270    1.372   .     A
C245   Br309   1.923   .     S
C246   N269    1.372   .     A
C246   Br310   1.921   .     S
C246   C481    1.420   .     S
C247   Br311   1.924   .     S
C247   N270    1.372   .     A
C248   Br312   1.924   .     S
C248   N269    1.372   .     A
C248   C479    1.420   .     S
C249   O278    1.288   .     A
C249   C254    1.425   .     S
C249   O275    1.286   .     A
C250   O277    1.284   .     A
C250   O276    1.287   .     A
C250   C253    1.420   .     S
C251   C261    1.378   .     A
C251   H265    1.086   .     S
C251   C253    1.384   .     A
C252   C262    1.376   .     A
C252   H266    1.085   .     S
C252   C254    1.384   .     A
C253   C255    1.399   .     A
C254   C256    1.402   .     A
C255   C257    1.409   .     A
C255   Br281   1.937   .     S
C256   Br282   1.936   .     S
C256   C258    1.412   .     A
C257   C263    1.423   .     A
C257   C259    1.427   .     A
C258   C260    1.426   .     A
C258   C264    1.423   .     A
C259   C261    1.410   .     A
C259   C962    1.397   .     S
C260   C262    1.408   .     A
C260   C961    1.397   1_554 S
C263   C283    1.482   .     S
C263   C939    1.392   .     S
C264   C294    1.483   .     S
C264   C940    1.393   1_554 S
N269   Zn279   2.018   .     S
N270   Zn280   2.018   .     S
O271   Zn279   2.001   .     S
O272   Zn280   2.001   .     S
O273   Zn279   1.994   .     S
O274   Zn280   1.994   .     S
O275   Zn279   2.004   .     S
O276   Zn280   2.004   .     S
O277   Zn279   2.000   .     S
O278   Zn280   2.000   .     S
C283   C284    1.406   .     A
C283   C288    1.406   .     A
C284   C285    1.399   .     A
C284   H289    1.083   .     S
C285   H290    1.082   .     S
C285   C442    1.398   1_455 S
C286   C287    1.398   .     A
C286   H291    1.082   .     S
C286   C363    1.398   .     S
C287   H292    1.082   .     S
C287   C366    1.399   .     S
C288   H293    1.083   .     S
C288   C443    1.399   1_455 S
C294   C295    1.407   .     A
C294   C299    1.406   .     A
C295   H300    1.083   .     S
C295   C374    1.399   .     S
C296   H301    1.083   .     S
C296   C297    1.398   .     A
C296   C451    1.399   1_455 S
C297   H302    1.081   .     S
C297   C298    1.397   .     A
C298   H303    1.082   .     S
C298   C455    1.398   1_455 S
C299   H304    1.083   .     S
C299   C376    1.398   .     S
C313   O352    1.293   .     A
C313   O349    1.291   .     A
C313   C322    1.440   .     S
C314   O351    1.295   .     A
C314   O350    1.291   .     A
C314   C321    1.442   .     S
C315   H345    1.086   .     S
C315   C340    1.392   .     A
C315   C1043   1.392   1_554 S
C316   H346    1.086   .     S
C316   C339    1.394   .     A
C316   C1044   1.393   .     S
C317   C322    1.407   .     A
C317   Br383   1.944   .     S
C318   C321    1.408   .     A
C318   Br384   1.941   .     S
C318   C398    1.378   .     S
C319   Br385   1.940   .     S
C319   C321    1.412   .     A
C319   C395    1.378   .     S
C320   Br386   1.940   .     S
C320   C322    1.408   .     A
C323   N348    1.372   .     A
C323   Br387   1.923   .     S
C324   N347    1.372   .     A
C324   Br388   1.921   .     S
C324   C559    1.420   .     S
C325   Br389   1.924   .     S
C325   N348    1.372   .     A
C326   Br390   1.924   .     S
C326   N347    1.372   .     A
C326   C557    1.420   .     S
C327   O356    1.288   .     A
C327   C332    1.425   .     S
C327   O353    1.286   .     A
C328   O355    1.284   .     A
C328   O354    1.287   .     A
C328   C331    1.420   .     S
C329   C339    1.378   .     A
C329   H343    1.086   .     S
C329   C331    1.384   .     A
C330   C340    1.376   .     A
C330   H344    1.085   .     S
C330   C332    1.384   .     A
C331   C333    1.399   .     A
C332   C334    1.402   .     A
C333   C335    1.409   .     A
C333   Br359   1.937   .     S
C334   Br360   1.936   .     S
C334   C336    1.412   .     A
C335   C341    1.423   .     A
C335   C337    1.427   .     A
C336   C338    1.426   .     A
C336   C342    1.423   .     A
C337   C339    1.410   .     A
C337   C1040   1.397   .     S
C338   C340    1.408   .     A
C338   C1039   1.397   1_554 S
C341   C361    1.482   .     S
C341   C1017   1.392   .     S
C342   C372    1.483   .     S
C342   C1018   1.393   1_554 S
N347   Zn357   2.018   .     S
N348   Zn358   2.018   .     S
O349   Zn357   2.001   .     S
O350   Zn358   2.001   .     S
O351   Zn357   1.994   .     S
O352   Zn358   1.994   .     S
O353   Zn357   2.004   .     S
O354   Zn358   2.004   .     S
O355   Zn357   2.000   .     S
O356   Zn358   2.000   .     S
C361   C362    1.406   .     A
C361   C366    1.406   .     A
C362   C363    1.399   .     A
C362   H367    1.083   .     S
C363   H368    1.082   .     S
C364   C365    1.398   .     A
C364   H369    1.082   .     S
C364   C441    1.398   .     S
C365   H370    1.082   .     S
C365   C444    1.399   .     S
C366   H371    1.083   .     S
C372   C373    1.407   .     A
C372   C377    1.406   .     A
C373   H378    1.083   .     S
C373   C452    1.399   .     S
C374   H379    1.083   .     S
C374   C375    1.398   .     A
C375   H380    1.081   .     S
C375   C376    1.397   .     A
C376   H381    1.082   .     S
C377   H382    1.083   .     S
C377   C454    1.398   .     S
C391   O430    1.293   .     A
C391   O427    1.291   .     A
C391   C400    1.440   .     S
C392   O429    1.295   .     A
C392   O428    1.291   .     A
C392   C399    1.442   .     S
C393   H423    1.086   .     S
C393   C418    1.392   .     A
C393   C1121   1.392   1_554 S
C394   H424    1.086   .     S
C394   C417    1.394   .     A
C394   C1122   1.393   .     S
C395   C400    1.407   .     A
C395   Br461   1.944   .     S
C396   C399    1.408   .     A
C396   Br462   1.941   .     S
C396   C242    1.378   1_655 S
C397   Br463   1.940   .     S
C397   C399    1.412   .     A
C397   C239    1.378   1_655 S
C398   Br464   1.940   .     S
C398   C400    1.408   .     A
C401   N426    1.372   .     A
C401   Br465   1.923   .     S
C402   N425    1.372   .     A
C402   Br466   1.921   .     S
C402   C637    1.420   .     S
C403   Br467   1.924   .     S
C403   N426    1.372   .     A
C404   Br468   1.924   .     S
C404   N425    1.372   .     A
C404   C635    1.420   .     S
C405   O434    1.288   .     A
C405   C410    1.425   .     S
C405   O431    1.286   .     A
C406   O433    1.284   .     A
C406   O432    1.287   .     A
C406   C409    1.420   .     S
C407   C417    1.378   .     A
C407   H421    1.086   .     S
C407   C409    1.384   .     A
C408   C418    1.376   .     A
C408   H422    1.085   .     S
C408   C410    1.384   .     A
C409   C411    1.399   .     A
C410   C412    1.402   .     A
C411   C413    1.409   .     A
C411   Br437   1.937   .     S
C412   Br438   1.936   .     S
C412   C414    1.412   .     A
C413   C419    1.423   .     A
C413   C415    1.427   .     A
C414   C416    1.426   .     A
C414   C420    1.423   .     A
C415   C417    1.410   .     A
C415   C1118   1.397   .     S
C416   C418    1.408   .     A
C416   C1117   1.397   1_554 S
C419   C439    1.482   .     S
C419   C1095   1.392   .     S
C420   C450    1.483   .     S
C420   C1096   1.393   1_554 S
N425   Zn435   2.018   .     S
N426   Zn436   2.018   .     S
O427   Zn435   2.001   .     S
O428   Zn436   2.001   .     S
O429   Zn435   1.994   .     S
O430   Zn436   1.994   .     S
O431   Zn435   2.004   .     S
O432   Zn436   2.004   .     S
O433   Zn435   2.000   .     S
O434   Zn436   2.000   .     S
C439   C440    1.406   .     A
C439   C444    1.406   .     A
C440   C441    1.399   .     A
C440   H445    1.083   .     S
C441   H446    1.082   .     S
C442   C443    1.398   .     A
C442   H447    1.082   .     S
C442   C285    1.398   1_655 S
C443   H448    1.082   .     S
C443   C288    1.399   1_655 S
C444   H449    1.083   .     S
C450   C451    1.407   .     A
C450   C455    1.406   .     A
C451   H456    1.083   .     S
C451   C296    1.399   1_655 S
C452   H457    1.083   .     S
C452   C453    1.398   .     A
C453   H458    1.081   .     S
C453   C454    1.397   .     A
C454   H459    1.082   .     S
C455   H460    1.083   .     S
C455   C298    1.398   1_655 S
C469   O508    1.293   .     A
C469   O505    1.291   .     A
C469   C478    1.440   .     S
C470   O507    1.295   .     A
C470   O506    1.291   .     A
C470   C477    1.442   .     S
C471   H501    1.086   .     S
C471   C496    1.392   .     A
C471   C1199   1.392   1_554 S
C472   H502    1.086   .     S
C472   C495    1.394   .     A
C472   C1200   1.393   .     S
C473   C478    1.407   .     A
C473   Br539   1.944   .     S
C473   C631    1.378   1_455 S
C474   C477    1.408   .     A
C474   Br540   1.941   .     S
C474   C554    1.378   .     S
C475   Br541   1.940   .     S
C475   C477    1.412   .     A
C475   C551    1.378   .     S
C476   Br542   1.940   .     S
C476   C478    1.408   .     A
C476   C630    1.378   1_455 S
C479   N504    1.372   .     A
C479   Br543   1.923   .     S
C480   N503    1.372   .     A
C480   Br544   1.921   .     S
C480   C13     1.420   1_565 S
C481   Br545   1.924   .     S
C481   N504    1.372   .     A
C482   Br546   1.924   .     S
C482   N503    1.372   .     A
C482   C11     1.420   1_565 S
C483   O512    1.288   .     A
C483   C488    1.425   .     S
C483   O509    1.286   .     A
C484   O511    1.284   .     A
C484   O510    1.287   .     A
C484   C487    1.420   .     S
C485   C495    1.378   .     A
C485   H499    1.086   .     S
C485   C487    1.384   .     A
C486   C496    1.376   .     A
C486   H500    1.085   .     S
C486   C488    1.384   .     A
C487   C489    1.399   .     A
C488   C490    1.402   .     A
C489   C491    1.409   .     A
C489   Br515   1.937   .     S
C490   Br516   1.936   .     S
C490   C492    1.412   .     A
C491   C497    1.423   .     A
C491   C493    1.427   .     A
C492   C494    1.426   .     A
C492   C498    1.423   .     A
C493   C495    1.410   .     A
C493   C1196   1.397   .     S
C494   C496    1.408   .     A
C494   C1195   1.397   1_554 S
C497   C517    1.482   .     S
C497   C1173   1.392   .     S
C498   C528    1.483   .     S
C498   C1174   1.393   1_554 S
N503   Zn513   2.018   .     S
N504   Zn514   2.018   .     S
O505   Zn513   2.001   .     S
O506   Zn514   2.001   .     S
O507   Zn513   1.994   .     S
O508   Zn514   1.994   .     S
O509   Zn513   2.004   .     S
O510   Zn514   2.004   .     S
O511   Zn513   2.000   .     S
O512   Zn514   2.000   .     S
C517   C518    1.406   .     A
C517   C522    1.406   .     A
C518   C519    1.399   .     A
C518   H523    1.083   .     S
C519   H524    1.082   .     S
C519   C676    1.398   1_455 S
C520   C521    1.398   .     A
C520   H525    1.082   .     S
C520   C597    1.398   .     S
C521   H526    1.082   .     S
C521   C600    1.399   .     S
C522   H527    1.083   .     S
C522   C677    1.399   1_455 S
C528   C529    1.407   .     A
C528   C533    1.406   .     A
C529   H534    1.083   .     S
C529   C608    1.399   .     S
C530   H535    1.083   .     S
C530   C531    1.398   .     A
C530   C685    1.399   1_455 S
C531   H536    1.081   .     S
C531   C532    1.397   .     A
C532   H537    1.082   .     S
C532   C689    1.398   1_455 S
C533   H538    1.083   .     S
C533   C610    1.398   .     S
C547   O586    1.293   .     A
C547   O583    1.291   .     A
C547   C556    1.440   .     S
C548   O585    1.295   .     A
C548   O584    1.291   .     A
C548   C555    1.442   .     S
C549   H579    1.086   .     S
C549   C574    1.392   .     A
C549   C1277   1.392   1_554 S
C550   H580    1.086   .     S
C550   C573    1.394   .     A
C550   C1278   1.393   .     S
C551   C556    1.407   .     A
C551   Br617   1.944   .     S
C552   C555    1.408   .     A
C552   Br618   1.941   .     S
C552   C632    1.378   .     S
C553   Br619   1.940   .     S
C553   C555    1.412   .     A
C553   C629    1.378   .     S
C554   Br620   1.940   .     S
C554   C556    1.408   .     A
C557   N582    1.372   .     A
C557   Br621   1.923   .     S
C558   N581    1.372   .     A
C558   Br622   1.921   .     S
C558   C91     1.420   1_565 S
C559   Br623   1.924   .     S
C559   N582    1.372   .     A
C560   Br624   1.924   .     S
C560   N581    1.372   .     A
C560   C89     1.420   1_565 S
C561   O590    1.288   .     A
C561   C566    1.425   .     S
C561   O587    1.286   .     A
C562   O589    1.284   .     A
C562   O588    1.287   .     A
C562   C565    1.420   .     S
C563   C573    1.378   .     A
C563   H577    1.086   .     S
C563   C565    1.384   .     A
C564   C574    1.376   .     A
C564   H578    1.085   .     S
C564   C566    1.384   .     A
C565   C567    1.399   .     A
C566   C568    1.402   .     A
C567   C569    1.409   .     A
C567   Br593   1.937   .     S
C568   Br594   1.936   .     S
C568   C570    1.412   .     A
C569   C575    1.423   .     A
C569   C571    1.427   .     A
C570   C572    1.426   .     A
C570   C576    1.423   .     A
C571   C573    1.410   .     A
C571   C1274   1.397   .     S
C572   C574    1.408   .     A
C572   C1273   1.397   1_554 S
C575   C595    1.482   .     S
C575   C1251   1.392   .     S
C576   C606    1.483   .     S
C576   C1252   1.393   1_554 S
N581   Zn591   2.018   .     S
N582   Zn592   2.018   .     S
O583   Zn591   2.001   .     S
O584   Zn592   2.001   .     S
O585   Zn591   1.994   .     S
O586   Zn592   1.994   .     S
O587   Zn591   2.004   .     S
O588   Zn592   2.004   .     S
O589   Zn591   2.000   .     S
O590   Zn592   2.000   .     S
C595   C596    1.406   .     A
C595   C600    1.406   .     A
C596   C597    1.399   .     A
C596   H601    1.083   .     S
C597   H602    1.082   .     S
C598   C599    1.398   .     A
C598   H603    1.082   .     S
C598   C675    1.398   .     S
C599   H604    1.082   .     S
C599   C678    1.399   .     S
C600   H605    1.083   .     S
C606   C607    1.407   .     A
C606   C611    1.406   .     A
C607   H612    1.083   .     S
C607   C686    1.399   .     S
C608   H613    1.083   .     S
C608   C609    1.398   .     A
C609   H614    1.081   .     S
C609   C610    1.397   .     A
C610   H615    1.082   .     S
C611   H616    1.083   .     S
C611   C688    1.398   .     S
C625   O664    1.293   .     A
C625   O661    1.291   .     A
C625   C634    1.440   .     S
C626   O663    1.295   .     A
C626   O662    1.291   .     A
C626   C633    1.442   .     S
C627   H657    1.086   .     S
C627   C652    1.392   .     A
C627   C1355   1.392   1_554 S
C628   H658    1.086   .     S
C628   C651    1.394   .     A
C628   C1356   1.393   .     S
C629   C634    1.407   .     A
C629   Br695   1.944   .     S
C630   C633    1.408   .     A
C630   Br696   1.941   .     S
C630   C476    1.378   1_655 S
C631   Br697   1.940   .     S
C631   C633    1.412   .     A
C631   C473    1.378   1_655 S
C632   Br698   1.940   .     S
C632   C634    1.408   .     A
C635   N660    1.372   .     A
C635   Br699   1.923   .     S
C636   N659    1.372   .     A
C636   Br700   1.921   .     S
C636   C169    1.420   1_565 S
C637   Br701   1.924   .     S
C637   N660    1.372   .     A
C638   Br702   1.924   .     S
C638   N659    1.372   .     A
C638   C167    1.420   1_565 S
C639   O668    1.288   .     A
C639   C644    1.425   .     S
C639   O665    1.286   .     A
C640   O667    1.284   .     A
C640   O666    1.287   .     A
C640   C643    1.420   .     S
C641   C651    1.378   .     A
C641   H655    1.086   .     S
C641   C643    1.384   .     A
C642   C652    1.376   .     A
C642   H656    1.085   .     S
C642   C644    1.384   .     A
C643   C645    1.399   .     A
C644   C646    1.402   .     A
C645   C647    1.409   .     A
C645   Br671   1.937   .     S
C646   Br672   1.936   .     S
C646   C648    1.412   .     A
C647   C653    1.423   .     A
C647   C649    1.427   .     A
C648   C650    1.426   .     A
C648   C654    1.423   .     A
C649   C651    1.410   .     A
C649   C1352   1.397   .     S
C650   C652    1.408   .     A
C650   C1351   1.397   1_554 S
C653   C673    1.482   .     S
C653   C1329   1.392   .     S
C654   C684    1.483   .     S
C654   C1330   1.393   1_554 S
N659   Zn669   2.018   .     S
N660   Zn670   2.018   .     S
O661   Zn669   2.001   .     S
O662   Zn670   2.001   .     S
O663   Zn669   1.994   .     S
O664   Zn670   1.994   .     S
O665   Zn669   2.004   .     S
O666   Zn670   2.004   .     S
O667   Zn669   2.000   .     S
O668   Zn670   2.000   .     S
C673   C674    1.406   .     A
C673   C678    1.406   .     A
C674   C675    1.399   .     A
C674   H679    1.083   .     S
C675   H680    1.082   .     S
C676   C677    1.398   .     A
C676   H681    1.082   .     S
C676   C519    1.398   1_655 S
C677   H682    1.082   .     S
C677   C522    1.399   1_655 S
C678   H683    1.083   .     S
C684   C685    1.407   .     A
C684   C689    1.406   .     A
C685   H690    1.083   .     S
C685   C530    1.399   1_655 S
C686   H691    1.083   .     S
C686   C687    1.398   .     A
C687   H692    1.081   .     S
C687   C688    1.397   .     A
C688   H693    1.082   .     S
C689   H694    1.083   .     S
C689   C532    1.398   1_655 S
C703   O742    1.293   .     A
C703   O739    1.291   .     A
C703   C712    1.440   .     S
C704   O741    1.295   .     A
C704   O740    1.291   .     A
C704   C711    1.442   .     S
C705   H735    1.086   .     S
C705   C730    1.392   .     A
C706   H736    1.086   .     S
C706   C729    1.394   .     A
C706   C30     1.393   1_556 S
C707   C712    1.407   .     A
C707   Br773   1.944   .     S
C707   C865    1.378   1_455 S
C708   C711    1.408   .     A
C708   Br774   1.941   .     S
C708   C788    1.378   .     S
C709   Br775   1.940   .     S
C709   C711    1.412   .     A
C709   C785    1.378   .     S
C710   Br776   1.940   .     S
C710   C712    1.408   .     A
C710   C864    1.378   1_455 S
C713   N738    1.372   .     A
C713   Br777   1.923   .     S
C713   C1184   1.420   1_545 S
C714   N737    1.372   .     A
C714   Br778   1.921   .     S
C714   C949    1.420   .     S
C715   Br779   1.924   .     S
C715   N738    1.372   .     A
C715   C1182   1.420   1_545 S
C716   Br780   1.924   .     S
C716   N737    1.372   .     A
C716   C947    1.420   .     S
C717   O746    1.288   .     A
C717   C722    1.425   .     S
C717   O743    1.286   .     A
C718   O745    1.284   .     A
C718   O744    1.287   .     A
C718   C721    1.420   .     S
C719   C729    1.378   .     A
C719   H733    1.086   .     S
C719   C721    1.384   .     A
C720   C730    1.376   .     A
C720   H734    1.085   .     S
C720   C722    1.384   .     A
C721   C723    1.399   .     A
C722   C724    1.402   .     A
C723   C725    1.409   .     A
C723   Br749   1.937   .     S
C724   Br750   1.936   .     S
C724   C726    1.412   .     A
C725   C731    1.423   .     A
C725   C727    1.427   .     A
C726   C728    1.426   .     A
C726   C732    1.423   .     A
C727   C729    1.410   .     A
C727   C26     1.397   1_556 S
C728   C730    1.408   .     A
C731   C751    1.482   .     S
C731   C3      1.392   1_556 S
C732   C762    1.483   .     S
N737   Zn747   2.018   .     S
N738   Zn748   2.018   .     S
O739   Zn747   2.001   .     S
O740   Zn748   2.001   .     S
O741   Zn747   1.994   .     S
O742   Zn748   1.994   .     S
O743   Zn747   2.004   .     S
O744   Zn748   2.004   .     S
O745   Zn747   2.000   .     S
O746   Zn748   2.000   .     S
C751   C752    1.406   .     A
C751   C756    1.406   .     A
C752   C753    1.399   .     A
C752   H757    1.083   .     S
C753   H758    1.082   .     S
C753   C910    1.398   1_455 S
C754   C755    1.398   .     A
C754   H759    1.082   .     S
C754   C831    1.398   .     S
C755   H760    1.082   .     S
C755   C834    1.399   .     S
C756   H761    1.083   .     S
C756   C911    1.399   1_455 S
C762   C763    1.407   .     A
C762   C767    1.406   .     A
C763   H768    1.083   .     S
C763   C842    1.399   .     S
C764   H769    1.083   .     S
C764   C765    1.398   .     A
C764   C919    1.399   1_455 S
C765   H770    1.081   .     S
C765   C766    1.397   .     A
C766   H771    1.082   .     S
C766   C923    1.398   1_455 S
C767   H772    1.083   .     S
C767   C844    1.398   .     S
C781   O820    1.293   .     A
C781   O817    1.291   .     A
C781   C790    1.440   .     S
C782   O819    1.295   .     A
C782   O818    1.291   .     A
C782   C789    1.442   .     S
C783   H813    1.086   .     S
C783   C808    1.392   .     A
C784   H814    1.086   .     S
C784   C807    1.394   .     A
C784   C108    1.393   1_556 S
C785   C790    1.407   .     A
C785   Br851   1.944   .     S
C786   C789    1.408   .     A
C786   Br852   1.941   .     S
C786   C866    1.378   .     S
C787   Br853   1.940   .     S
C787   C789    1.412   .     A
C787   C863    1.378   .     S
C788   Br854   1.940   .     S
C788   C790    1.408   .     A
C791   N816    1.372   .     A
C791   Br855   1.923   .     S
C791   C1262   1.420   1_545 S
C792   N815    1.372   .     A
C792   Br856   1.921   .     S
C792   C1027   1.420   .     S
C793   Br857   1.924   .     S
C793   N816    1.372   .     A
C793   C1260   1.420   1_545 S
C794   Br858   1.924   .     S
C794   N815    1.372   .     A
C794   C1025   1.420   .     S
C795   O824    1.288   .     A
C795   C800    1.425   .     S
C795   O821    1.286   .     A
C796   O823    1.284   .     A
C796   O822    1.287   .     A
C796   C799    1.420   .     S
C797   C807    1.378   .     A
C797   H811    1.086   .     S
C797   C799    1.384   .     A
C798   C808    1.376   .     A
C798   H812    1.085   .     S
C798   C800    1.384   .     A
C799   C801    1.399   .     A
C800   C802    1.402   .     A
C801   C803    1.409   .     A
C801   Br827   1.937   .     S
C802   Br828   1.936   .     S
C802   C804    1.412   .     A
C803   C809    1.423   .     A
C803   C805    1.427   .     A
C804   C806    1.426   .     A
C804   C810    1.423   .     A
C805   C807    1.410   .     A
C805   C104    1.397   1_556 S
C806   C808    1.408   .     A
C809   C829    1.482   .     S
C809   C81     1.392   1_556 S
C810   C840    1.483   .     S
N815   Zn825   2.018   .     S
N816   Zn826   2.018   .     S
O817   Zn825   2.001   .     S
O818   Zn826   2.001   .     S
O819   Zn825   1.994   .     S
O820   Zn826   1.994   .     S
O821   Zn825   2.004   .     S
O822   Zn826   2.004   .     S
O823   Zn825   2.000   .     S
O824   Zn826   2.000   .     S
C829   C830    1.406   .     A
C829   C834    1.406   .     A
C830   C831    1.399   .     A
C830   H835    1.083   .     S
C831   H836    1.082   .     S
C832   C833    1.398   .     A
C832   H837    1.082   .     S
C832   C909    1.398   .     S
C833   H838    1.082   .     S
C833   C912    1.399   .     S
C834   H839    1.083   .     S
C840   C841    1.407   .     A
C840   C845    1.406   .     A
C841   H846    1.083   .     S
C841   C920    1.399   .     S
C842   H847    1.083   .     S
C842   C843    1.398   .     A
C843   H848    1.081   .     S
C843   C844    1.397   .     A
C844   H849    1.082   .     S
C845   H850    1.083   .     S
C845   C922    1.398   .     S
C859   O898    1.293   .     A
C859   O895    1.291   .     A
C859   C868    1.440   .     S
C860   O897    1.295   .     A
C860   O896    1.291   .     A
C860   C867    1.442   .     S
C861   H891    1.086   .     S
C861   C886    1.392   .     A
C862   H892    1.086   .     S
C862   C885    1.394   .     A
C862   C186    1.393   1_556 S
C863   C868    1.407   .     A
C863   Br929   1.944   .     S
C864   C867    1.408   .     A
C864   Br930   1.941   .     S
C864   C710    1.378   1_655 S
C865   Br931   1.940   .     S
C865   C867    1.412   .     A
C865   C707    1.378   1_655 S
C866   Br932   1.940   .     S
C866   C868    1.408   .     A
C869   N894    1.372   .     A
C869   Br933   1.923   .     S
C869   C1340   1.420   1_545 S
C870   N893    1.372   .     A
C870   Br934   1.921   .     S
C870   C1105   1.420   .     S
C871   Br935   1.924   .     S
C871   N894    1.372   .     A
C871   C1338   1.420   1_545 S
C872   Br936   1.924   .     S
C872   N893    1.372   .     A
C872   C1103   1.420   .     S
C873   O902    1.288   .     A
C873   C878    1.425   .     S
C873   O899    1.286   .     A
C874   O901    1.284   .     A
C874   O900    1.287   .     A
C874   C877    1.420   .     S
C875   C885    1.378   .     A
C875   H889    1.086   .     S
C875   C877    1.384   .     A
C876   C886    1.376   .     A
C876   H890    1.085   .     S
C876   C878    1.384   .     A
C877   C879    1.399   .     A
C878   C880    1.402   .     A
C879   C881    1.409   .     A
C879   Br905   1.937   .     S
C880   Br906   1.936   .     S
C880   C882    1.412   .     A
C881   C887    1.423   .     A
C881   C883    1.427   .     A
C882   C884    1.426   .     A
C882   C888    1.423   .     A
C883   C885    1.410   .     A
C883   C182    1.397   1_556 S
C884   C886    1.408   .     A
C887   C907    1.482   .     S
C887   C159    1.392   1_556 S
C888   C918    1.483   .     S
N893   Zn903   2.018   .     S
N894   Zn904   2.018   .     S
O895   Zn903   2.001   .     S
O896   Zn904   2.001   .     S
O897   Zn903   1.994   .     S
O898   Zn904   1.994   .     S
O899   Zn903   2.004   .     S
O900   Zn904   2.004   .     S
O901   Zn903   2.000   .     S
O902   Zn904   2.000   .     S
C907   C908    1.406   .     A
C907   C912    1.406   .     A
C908   C909    1.399   .     A
C908   H913    1.083   .     S
C909   H914    1.082   .     S
C910   C911    1.398   .     A
C910   H915    1.082   .     S
C910   C753    1.398   1_655 S
C911   H916    1.082   .     S
C911   C756    1.399   1_655 S
C912   H917    1.083   .     S
C918   C919    1.407   .     A
C918   C923    1.406   .     A
C919   H924    1.083   .     S
C919   C764    1.399   1_655 S
C920   H925    1.083   .     S
C920   C921    1.398   .     A
C921   H926    1.081   .     S
C921   C922    1.397   .     A
C922   H927    1.082   .     S
C923   H928    1.083   .     S
C923   C766    1.398   1_655 S
C937   O976    1.293   .     A
C937   O973    1.291   .     A
C937   C946    1.440   .     S
C938   O975    1.295   .     A
C938   O974    1.291   .     A
C938   C945    1.442   .     S
C939   H969    1.086   .     S
C939   C964    1.392   .     A
C940   H970    1.086   .     S
C940   C963    1.394   .     A
C940   C264    1.393   1_556 S
C941   C946    1.407   .     A
C941   Br1007  1.944   .     S
C941   C1099   1.378   1_455 S
C942   C945    1.408   .     A
C942   Br1008  1.941   .     S
C942   C1022   1.378   .     S
C943   Br1009  1.940   .     S
C943   C945    1.412   .     A
C943   C1019   1.378   .     S
C944   Br1010  1.940   .     S
C944   C946    1.408   .     A
C944   C1098   1.378   1_455 S
C947   N972    1.372   .     A
C947   Br1011  1.923   .     S
C948   N971    1.372   .     A
C948   Br1012  1.921   .     S
C948   C1183   1.420   .     S
C949   Br1013  1.924   .     S
C949   N972    1.372   .     A
C950   Br1014  1.924   .     S
C950   N971    1.372   .     A
C950   C1181   1.420   .     S
C951   O980    1.288   .     A
C951   C956    1.425   .     S
C951   O977    1.286   .     A
C952   O979    1.284   .     A
C952   O978    1.287   .     A
C952   C955    1.420   .     S
C953   C963    1.378   .     A
C953   H967    1.086   .     S
C953   C955    1.384   .     A
C954   C964    1.376   .     A
C954   H968    1.085   .     S
C954   C956    1.384   .     A
C955   C957    1.399   .     A
C956   C958    1.402   .     A
C957   C959    1.409   .     A
C957   Br983   1.937   .     S
C958   Br984   1.936   .     S
C958   C960    1.412   .     A
C959   C965    1.423   .     A
C959   C961    1.427   .     A
C960   C962    1.426   .     A
C960   C966    1.423   .     A
C961   C963    1.410   .     A
C961   C260    1.397   1_556 S
C962   C964    1.408   .     A
C965   C985    1.482   .     S
C965   C237    1.392   1_556 S
C966   C996    1.483   .     S
N971   Zn981   2.018   .     S
N972   Zn982   2.018   .     S
O973   Zn981   2.001   .     S
O974   Zn982   2.001   .     S
O975   Zn981   1.994   .     S
O976   Zn982   1.994   .     S
O977   Zn981   2.004   .     S
O978   Zn982   2.004   .     S
O979   Zn981   2.000   .     S
O980   Zn982   2.000   .     S
C985   C986    1.406   .     A
C985   C990    1.406   .     A
C986   C987    1.399   .     A
C986   H991    1.083   .     S
C987   H992    1.082   .     S
C987   C1144   1.398   1_455 S
C988   C989    1.398   .     A
C988   H993    1.082   .     S
C988   C1065   1.398   .     S
C989   H994    1.082   .     S
C989   C1068   1.399   .     S
C990   H995    1.083   .     S
C990   C1145   1.399   1_455 S
C996   C997    1.407   .     A
C996   C1001   1.406   .     A
C997   H1002   1.083   .     S
C997   C1076   1.399   .     S
C998   H1003   1.083   .     S
C998   C999    1.398   .     A
C998   C1153   1.399   1_455 S
C999   H1004   1.081   .     S
C999   C1000   1.397   .     A
C1000  H1005   1.082   .     S
C1000  C1157   1.398   1_455 S
C1001  H1006   1.083   .     S
C1001  C1078   1.398   .     S
C1015  O1054   1.293   .     A
C1015  O1051   1.291   .     A
C1015  C1024   1.440   .     S
C1016  O1053   1.295   .     A
C1016  O1052   1.291   .     A
C1016  C1023   1.442   .     S
C1017  H1047   1.086   .     S
C1017  C1042   1.392   .     A
C1018  H1048   1.086   .     S
C1018  C1041   1.394   .     A
C1018  C342    1.393   1_556 S
C1019  C1024   1.407   .     A
C1019  Br1085  1.944   .     S
C1020  C1023   1.408   .     A
C1020  Br1086  1.941   .     S
C1020  C1100   1.378   .     S
C1021  Br1087  1.940   .     S
C1021  C1023   1.412   .     A
C1021  C1097   1.378   .     S
C1022  Br1088  1.940   .     S
C1022  C1024   1.408   .     A
C1025  N1050   1.372   .     A
C1025  Br1089  1.923   .     S
C1026  N1049   1.372   .     A
C1026  Br1090  1.921   .     S
C1026  C1261   1.420   .     S
C1027  Br1091  1.924   .     S
C1027  N1050   1.372   .     A
C1028  Br1092  1.924   .     S
C1028  N1049   1.372   .     A
C1028  C1259   1.420   .     S
C1029  O1058   1.288   .     A
C1029  C1034   1.425   .     S
C1029  O1055   1.286   .     A
C1030  O1057   1.284   .     A
C1030  O1056   1.287   .     A
C1030  C1033   1.420   .     S
C1031  C1041   1.378   .     A
C1031  H1045   1.086   .     S
C1031  C1033   1.384   .     A
C1032  C1042   1.376   .     A
C1032  H1046   1.085   .     S
C1032  C1034   1.384   .     A
C1033  C1035   1.399   .     A
C1034  C1036   1.402   .     A
C1035  C1037   1.409   .     A
C1035  Br1061  1.937   .     S
C1036  Br1062  1.936   .     S
C1036  C1038   1.412   .     A
C1037  C1043   1.423   .     A
C1037  C1039   1.427   .     A
C1038  C1040   1.426   .     A
C1038  C1044   1.423   .     A
C1039  C1041   1.410   .     A
C1039  C338    1.397   1_556 S
C1040  C1042   1.408   .     A
C1043  C1063   1.482   .     S
C1043  C315    1.392   1_556 S
C1044  C1074   1.483   .     S
N1049  Zn1059  2.018   .     S
N1050  Zn1060  2.018   .     S
O1051  Zn1059  2.001   .     S
O1052  Zn1060  2.001   .     S
O1053  Zn1059  1.994   .     S
O1054  Zn1060  1.994   .     S
O1055  Zn1059  2.004   .     S
O1056  Zn1060  2.004   .     S
O1057  Zn1059  2.000   .     S
O1058  Zn1060  2.000   .     S
C1063  C1064   1.406   .     A
C1063  C1068   1.406   .     A
C1064  C1065   1.399   .     A
C1064  H1069   1.083   .     S
C1065  H1070   1.082   .     S
C1066  C1067   1.398   .     A
C1066  H1071   1.082   .     S
C1066  C1143   1.398   .     S
C1067  H1072   1.082   .     S
C1067  C1146   1.399   .     S
C1068  H1073   1.083   .     S
C1074  C1075   1.407   .     A
C1074  C1079   1.406   .     A
C1075  H1080   1.083   .     S
C1075  C1154   1.399   .     S
C1076  H1081   1.083   .     S
C1076  C1077   1.398   .     A
C1077  H1082   1.081   .     S
C1077  C1078   1.397   .     A
C1078  H1083   1.082   .     S
C1079  H1084   1.083   .     S
C1079  C1156   1.398   .     S
C1093  O1132   1.293   .     A
C1093  O1129   1.291   .     A
C1093  C1102   1.440   .     S
C1094  O1131   1.295   .     A
C1094  O1130   1.291   .     A
C1094  C1101   1.442   .     S
C1095  H1125   1.086   .     S
C1095  C1120   1.392   .     A
C1096  H1126   1.086   .     S
C1096  C1119   1.394   .     A
C1096  C420    1.393   1_556 S
C1097  C1102   1.407   .     A
C1097  Br1163  1.944   .     S
C1098  C1101   1.408   .     A
C1098  Br1164  1.941   .     S
C1098  C944    1.378   1_655 S
C1099  Br1165  1.940   .     S
C1099  C1101   1.412   .     A
C1099  C941    1.378   1_655 S
C1100  Br1166  1.940   .     S
C1100  C1102   1.408   .     A
C1103  N1128   1.372   .     A
C1103  Br1167  1.923   .     S
C1104  N1127   1.372   .     A
C1104  Br1168  1.921   .     S
C1104  C1339   1.420   .     S
C1105  Br1169  1.924   .     S
C1105  N1128   1.372   .     A
C1106  Br1170  1.924   .     S
C1106  N1127   1.372   .     A
C1106  C1337   1.420   .     S
C1107  O1136   1.288   .     A
C1107  C1112   1.425   .     S
C1107  O1133   1.286   .     A
C1108  O1135   1.284   .     A
C1108  O1134   1.287   .     A
C1108  C1111   1.420   .     S
C1109  C1119   1.378   .     A
C1109  H1123   1.086   .     S
C1109  C1111   1.384   .     A
C1110  C1120   1.376   .     A
C1110  H1124   1.085   .     S
C1110  C1112   1.384   .     A
C1111  C1113   1.399   .     A
C1112  C1114   1.402   .     A
C1113  C1115   1.409   .     A
C1113  Br1139  1.937   .     S
C1114  Br1140  1.936   .     S
C1114  C1116   1.412   .     A
C1115  C1121   1.423   .     A
C1115  C1117   1.427   .     A
C1116  C1118   1.426   .     A
C1116  C1122   1.423   .     A
C1117  C1119   1.410   .     A
C1117  C416    1.397   1_556 S
C1118  C1120   1.408   .     A
C1121  C1141   1.482   .     S
C1121  C393    1.392   1_556 S
C1122  C1152   1.483   .     S
N1127  Zn1137  2.018   .     S
N1128  Zn1138  2.018   .     S
O1129  Zn1137  2.001   .     S
O1130  Zn1138  2.001   .     S
O1131  Zn1137  1.994   .     S
O1132  Zn1138  1.994   .     S
O1133  Zn1137  2.004   .     S
O1134  Zn1138  2.004   .     S
O1135  Zn1137  2.000   .     S
O1136  Zn1138  2.000   .     S
C1141  C1142   1.406   .     A
C1141  C1146   1.406   .     A
C1142  C1143   1.399   .     A
C1142  H1147   1.083   .     S
C1143  H1148   1.082   .     S
C1144  C1145   1.398   .     A
C1144  H1149   1.082   .     S
C1144  C987    1.398   1_655 S
C1145  H1150   1.082   .     S
C1145  C990    1.399   1_655 S
C1146  H1151   1.083   .     S
C1152  C1153   1.407   .     A
C1152  C1157   1.406   .     A
C1153  H1158   1.083   .     S
C1153  C998    1.399   1_655 S
C1154  H1159   1.083   .     S
C1154  C1155   1.398   .     A
C1155  H1160   1.081   .     S
C1155  C1156   1.397   .     A
C1156  H1161   1.082   .     S
C1157  H1162   1.083   .     S
C1157  C1000   1.398   1_655 S
C1171  O1210   1.293   .     A
C1171  O1207   1.291   .     A
C1171  C1180   1.440   .     S
C1172  O1209   1.295   .     A
C1172  O1208   1.291   .     A
C1172  C1179   1.442   .     S
C1173  H1203   1.086   .     S
C1173  C1198   1.392   .     A
C1174  H1204   1.086   .     S
C1174  C1197   1.394   .     A
C1174  C498    1.393   1_556 S
C1175  C1180   1.407   .     A
C1175  Br1241  1.944   .     S
C1175  C1333   1.378   1_455 S
C1176  C1179   1.408   .     A
C1176  Br1242  1.941   .     S
C1176  C1256   1.378   .     S
C1177  Br1243  1.940   .     S
C1177  C1179   1.412   .     A
C1177  C1253   1.378   .     S
C1178  Br1244  1.940   .     S
C1178  C1180   1.408   .     A
C1178  C1332   1.378   1_455 S
C1181  N1206   1.372   .     A
C1181  Br1245  1.923   .     S
C1182  N1205   1.372   .     A
C1182  Br1246  1.921   .     S
C1182  C715    1.420   1_565 S
C1183  Br1247  1.924   .     S
C1183  N1206   1.372   .     A
C1184  Br1248  1.924   .     S
C1184  N1205   1.372   .     A
C1184  C713    1.420   1_565 S
C1185  O1214   1.288   .     A
C1185  C1190   1.425   .     S
C1185  O1211   1.286   .     A
C1186  O1213   1.284   .     A
C1186  O1212   1.287   .     A
C1186  C1189   1.420   .     S
C1187  C1197   1.378   .     A
C1187  H1201   1.086   .     S
C1187  C1189   1.384   .     A
C1188  C1198   1.376   .     A
C1188  H1202   1.085   .     S
C1188  C1190   1.384   .     A
C1189  C1191   1.399   .     A
C1190  C1192   1.402   .     A
C1191  C1193   1.409   .     A
C1191  Br1217  1.937   .     S
C1192  Br1218  1.936   .     S
C1192  C1194   1.412   .     A
C1193  C1199   1.423   .     A
C1193  C1195   1.427   .     A
C1194  C1196   1.426   .     A
C1194  C1200   1.423   .     A
C1195  C1197   1.410   .     A
C1195  C494    1.397   1_556 S
C1196  C1198   1.408   .     A
C1199  C1219   1.482   .     S
C1199  C471    1.392   1_556 S
C1200  C1230   1.483   .     S
N1205  Zn1215  2.018   .     S
N1206  Zn1216  2.018   .     S
O1207  Zn1215  2.001   .     S
O1208  Zn1216  2.001   .     S
O1209  Zn1215  1.994   .     S
O1210  Zn1216  1.994   .     S
O1211  Zn1215  2.004   .     S
O1212  Zn1216  2.004   .     S
O1213  Zn1215  2.000   .     S
O1214  Zn1216  2.000   .     S
C1219  C1220   1.406   .     A
C1219  C1224   1.406   .     A
C1220  C1221   1.399   .     A
C1220  H1225   1.083   .     S
C1221  H1226   1.082   .     S
C1221  C1378   1.398   1_455 S
C1222  C1223   1.398   .     A
C1222  H1227   1.082   .     S
C1222  C1299   1.398   .     S
C1223  H1228   1.082   .     S
C1223  C1302   1.399   .     S
C1224  H1229   1.083   .     S
C1224  C1379   1.399   1_455 S
C1230  C1231   1.407   .     A
C1230  C1235   1.406   .     A
C1231  H1236   1.083   .     S
C1231  C1310   1.399   .     S
C1232  H1237   1.083   .     S
C1232  C1233   1.398   .     A
C1232  C1387   1.399   1_455 S
C1233  H1238   1.081   .     S
C1233  C1234   1.397   .     A
C1234  H1239   1.082   .     S
C1234  C1391   1.398   1_455 S
C1235  H1240   1.083   .     S
C1235  C1312   1.398   .     S
C1249  O1288   1.293   .     A
C1249  O1285   1.291   .     A
C1249  C1258   1.440   .     S
C1250  O1287   1.295   .     A
C1250  O1286   1.291   .     A
C1250  C1257   1.442   .     S
C1251  H1281   1.086   .     S
C1251  C1276   1.392   .     A
C1252  H1282   1.086   .     S
C1252  C1275   1.394   .     A
C1252  C576    1.393   1_556 S
C1253  C1258   1.407   .     A
C1253  Br1319  1.944   .     S
C1254  C1257   1.408   .     A
C1254  Br1320  1.941   .     S
C1254  C1334   1.378   .     S
C1255  Br1321  1.940   .     S
C1255  C1257   1.412   .     A
C1255  C1331   1.378   .     S
C1256  Br1322  1.940   .     S
C1256  C1258   1.408   .     A
C1259  N1284   1.372   .     A
C1259  Br1323  1.923   .     S
C1260  N1283   1.372   .     A
C1260  Br1324  1.921   .     S
C1260  C793    1.420   1_565 S
C1261  Br1325  1.924   .     S
C1261  N1284   1.372   .     A
C1262  Br1326  1.924   .     S
C1262  N1283   1.372   .     A
C1262  C791    1.420   1_565 S
C1263  O1292   1.288   .     A
C1263  C1268   1.425   .     S
C1263  O1289   1.286   .     A
C1264  O1291   1.284   .     A
C1264  O1290   1.287   .     A
C1264  C1267   1.420   .     S
C1265  C1275   1.378   .     A
C1265  H1279   1.086   .     S
C1265  C1267   1.384   .     A
C1266  C1276   1.376   .     A
C1266  H1280   1.085   .     S
C1266  C1268   1.384   .     A
C1267  C1269   1.399   .     A
C1268  C1270   1.402   .     A
C1269  C1271   1.409   .     A
C1269  Br1295  1.937   .     S
C1270  Br1296  1.936   .     S
C1270  C1272   1.412   .     A
C1271  C1277   1.423   .     A
C1271  C1273   1.427   .     A
C1272  C1274   1.426   .     A
C1272  C1278   1.423   .     A
C1273  C1275   1.410   .     A
C1273  C572    1.397   1_556 S
C1274  C1276   1.408   .     A
C1277  C1297   1.482   .     S
C1277  C549    1.392   1_556 S
C1278  C1308   1.483   .     S
N1283  Zn1293  2.018   .     S
N1284  Zn1294  2.018   .     S
O1285  Zn1293  2.001   .     S
O1286  Zn1294  2.001   .     S
O1287  Zn1293  1.994   .     S
O1288  Zn1294  1.994   .     S
O1289  Zn1293  2.004   .     S
O1290  Zn1294  2.004   .     S
O1291  Zn1293  2.000   .     S
O1292  Zn1294  2.000   .     S
C1297  C1298   1.406   .     A
C1297  C1302   1.406   .     A
C1298  C1299   1.399   .     A
C1298  H1303   1.083   .     S
C1299  H1304   1.082   .     S
C1300  C1301   1.398   .     A
C1300  H1305   1.082   .     S
C1300  C1377   1.398   .     S
C1301  H1306   1.082   .     S
C1301  C1380   1.399   .     S
C1302  H1307   1.083   .     S
C1308  C1309   1.407   .     A
C1308  C1313   1.406   .     A
C1309  H1314   1.083   .     S
C1309  C1388   1.399   .     S
C1310  H1315   1.083   .     S
C1310  C1311   1.398   .     A
C1311  H1316   1.081   .     S
C1311  C1312   1.397   .     A
C1312  H1317   1.082   .     S
C1313  H1318   1.083   .     S
C1313  C1390   1.398   .     S
C1327  O1366   1.293   .     A
C1327  O1363   1.291   .     A
C1327  C1336   1.440   .     S
C1328  O1365   1.295   .     A
C1328  O1364   1.291   .     A
C1328  C1335   1.442   .     S
C1329  H1359   1.086   .     S
C1329  C1354   1.392   .     A
C1330  H1360   1.086   .     S
C1330  C1353   1.394   .     A
C1330  C654    1.393   1_556 S
C1331  C1336   1.407   .     A
C1331  Br1397  1.944   .     S
C1332  C1335   1.408   .     A
C1332  Br1398  1.941   .     S
C1332  C1178   1.378   1_655 S
C1333  Br1399  1.940   .     S
C1333  C1335   1.412   .     A
C1333  C1175   1.378   1_655 S
C1334  Br1400  1.940   .     S
C1334  C1336   1.408   .     A
C1337  N1362   1.372   .     A
C1337  Br1401  1.923   .     S
C1338  N1361   1.372   .     A
C1338  Br1402  1.921   .     S
C1338  C871    1.420   1_565 S
C1339  Br1403  1.924   .     S
C1339  N1362   1.372   .     A
C1340  Br1404  1.924   .     S
C1340  N1361   1.372   .     A
C1340  C869    1.420   1_565 S
C1341  O1370   1.288   .     A
C1341  C1346   1.425   .     S
C1341  O1367   1.286   .     A
C1342  O1369   1.284   .     A
C1342  O1368   1.287   .     A
C1342  C1345   1.420   .     S
C1343  C1353   1.378   .     A
C1343  H1357   1.086   .     S
C1343  C1345   1.384   .     A
C1344  C1354   1.376   .     A
C1344  H1358   1.085   .     S
C1344  C1346   1.384   .     A
C1345  C1347   1.399   .     A
C1346  C1348   1.402   .     A
C1347  C1349   1.409   .     A
C1347  Br1373  1.937   .     S
C1348  Br1374  1.936   .     S
C1348  C1350   1.412   .     A
C1349  C1355   1.423   .     A
C1349  C1351   1.427   .     A
C1350  C1352   1.426   .     A
C1350  C1356   1.423   .     A
C1351  C1353   1.410   .     A
C1351  C650    1.397   1_556 S
C1352  C1354   1.408   .     A
C1355  C1375   1.482   .     S
C1355  C627    1.392   1_556 S
C1356  C1386   1.483   .     S
N1361  Zn1371  2.018   .     S
N1362  Zn1372  2.018   .     S
O1363  Zn1371  2.001   .     S
O1364  Zn1372  2.001   .     S
O1365  Zn1371  1.994   .     S
O1366  Zn1372  1.994   .     S
O1367  Zn1371  2.004   .     S
O1368  Zn1372  2.004   .     S
O1369  Zn1371  2.000   .     S
O1370  Zn1372  2.000   .     S
C1375  C1376   1.406   .     A
C1375  C1380   1.406   .     A
C1376  C1377   1.399   .     A
C1376  H1381   1.083   .     S
C1377  H1382   1.082   .     S
C1378  C1379   1.398   .     A
C1378  H1383   1.082   .     S
C1378  C1221   1.398   1_655 S
C1379  H1384   1.082   .     S
C1379  C1224   1.399   1_655 S
C1380  H1385   1.083   .     S
C1386  C1387   1.407   .     A
C1386  C1391   1.406   .     A
C1387  H1392   1.083   .     S
C1387  C1232   1.399   1_655 S
C1388  H1393   1.083   .     S
C1388  C1389   1.398   .     A
C1389  H1394   1.081   .     S
C1389  C1390   1.397   .     A
C1390  H1395   1.082   .     S
C1391  H1396   1.083   .     S
C1391  C1234   1.398   1_655 S
