data_str_m3_o1_o10_pcu_sym.17
_audit_creation_date              2020-01-03
_audit_creation_method            'Materials Studio'
_symmetry_space_group_name_H-M    'P1'
_symmetry_Int_Tables_number       1
_symmetry_cell_setting            triclinic
loop_
_symmetry_equiv_pos_as_xyz
  x,y,z
_cell_length_a                    25.7656
_cell_length_b                    31.8978
_cell_length_c                    30.0742
_cell_angle_alpha                 90.6829
_cell_angle_beta                  98.3835
_cell_angle_gamma                 92.3169
loop_
_atom_site_label
_atom_site_type_symbol
_atom_site_fract_x
_atom_site_fract_y
_atom_site_fract_z
_atom_site_U_iso_or_equiv
_atom_site_adp_type
_atom_site_occupancy
C1     C     0.16746   0.08694   0.16664   0.00000  Uiso   1.00
C2     C     0.20597   0.02253   0.19584   0.00000  Uiso   1.00
C3     C     0.16541   0.29057   0.16661   0.00000  Uiso   1.00
C4     C     0.16792   0.04277   0.16672   0.00000  Uiso   1.00
C5     C     0.19936   0.19379   0.02843   0.00000  Uiso   1.00
C6     C     0.13398   0.13954   0.30490   0.00000  Uiso   1.00
C7     C     0.19921   0.19378   0.31417   0.00000  Uiso   1.00
C8     C     0.13413   0.13956   0.01916   0.00000  Uiso   1.00
C9     C     0.16587   0.24639   0.16670   0.00000  Uiso   1.00
C10    C     0.06724   0.16465   0.15519   0.00000  Uiso   1.00
C11    C     0.26609   0.16868   0.17814   0.00000  Uiso   1.00
C12    C     0.01251   0.15630   0.15213   0.00000  Uiso   1.00
C13    C     0.32082   0.17703   0.18120   0.00000  Uiso   1.00
C14    C     0.12864   0.02055   0.13819   0.00000  Uiso   1.00
C15    C     0.20470   0.31278   0.19514   0.00000  Uiso   1.00
C16    C     0.12737   0.31081   0.13749   0.00000  Uiso   1.00
H17    H     0.09825   0.03660   0.11738   0.00000  Uiso   1.00
H18    H     0.23508   0.29673   0.21596   0.00000  Uiso   1.00
I19    I     0.31577   0.09800   0.12030   0.00000  Uiso   1.00
I20    I     0.01756   0.23533   0.21303   0.00000  Uiso   1.00
I21    I     0.06666   0.27916   0.09267   0.00000  Uiso   1.00
I22    I     0.26668   0.05418   0.24066   0.00000  Uiso   1.00
I23    I     0.25151   0.23672   0.07004   0.00000  Uiso   1.00
I24    I     0.08182   0.09661   0.26329   0.00000  Uiso   1.00
I25    I     0.25046   0.23706   0.28804   0.00000  Uiso   1.00
I26    I     0.08287   0.09627   0.04530   0.00000  Uiso   1.00
N27    N     0.16665   0.16666   0.28573   0.00000  Uiso   1.00
N28    N     0.16668   0.16668   0.04760   0.00000  Uiso   1.00
O29    O     0.16666   0.10558   0.20487   0.00000  Uiso   1.00
O30    O     0.16667   0.22775   0.12846   0.00000  Uiso   1.00
O31    O     0.16666   0.10559   0.12843   0.00000  Uiso   1.00
O32    O     0.16667   0.22774   0.20490   0.00000  Uiso   1.00
O33    O     0.09058   0.16666   0.19595   0.00000  Uiso   1.00
O34    O     0.24275   0.16667   0.13739   0.00000  Uiso   1.00
O35    O     0.09058   0.16667   0.11950   0.00000  Uiso   1.00
O36    O     0.24275   0.16666   0.21383   0.00000  Uiso   1.00
Zn37   Zn    0.16667   0.16666   0.21771   0.00000  Uiso   1.00
Zn38   Zn    0.16667   0.16667   0.11563   0.00000  Uiso   1.00
C39    C     0.50080   0.08694   0.16664   0.00000  Uiso   1.00
C40    C     0.53930   0.02253   0.19584   0.00000  Uiso   1.00
C41    C     0.49875   0.29057   0.16661   0.00000  Uiso   1.00
C42    C     0.50125   0.04277   0.16672   0.00000  Uiso   1.00
C43    C     0.53269   0.19379   0.02843   0.00000  Uiso   1.00
C44    C     0.46731   0.13954   0.30490   0.00000  Uiso   1.00
C45    C     0.53254   0.19378   0.31417   0.00000  Uiso   1.00
C46    C     0.46746   0.13956   0.01916   0.00000  Uiso   1.00
C47    C     0.49920   0.24639   0.16670   0.00000  Uiso   1.00
C48    C     0.40058   0.16465   0.15519   0.00000  Uiso   1.00
C49    C     0.59942   0.16868   0.17814   0.00000  Uiso   1.00
C50    C     0.34584   0.15630   0.15213   0.00000  Uiso   1.00
C51    C     0.65415   0.17703   0.18120   0.00000  Uiso   1.00
C52    C     0.46197   0.02055   0.13819   0.00000  Uiso   1.00
C53    C     0.53803   0.31278   0.19514   0.00000  Uiso   1.00
C54    C     0.46070   0.31081   0.13749   0.00000  Uiso   1.00
H55    H     0.43159   0.03660   0.11738   0.00000  Uiso   1.00
H56    H     0.56841   0.29673   0.21596   0.00000  Uiso   1.00
I57    I     0.64911   0.09800   0.12030   0.00000  Uiso   1.00
I58    I     0.35089   0.23533   0.21303   0.00000  Uiso   1.00
I59    I     0.39999   0.27916   0.09267   0.00000  Uiso   1.00
I60    I     0.60001   0.05418   0.24066   0.00000  Uiso   1.00
I61    I     0.58484   0.23672   0.07004   0.00000  Uiso   1.00
I62    I     0.41515   0.09661   0.26329   0.00000  Uiso   1.00
I63    I     0.58380   0.23706   0.28804   0.00000  Uiso   1.00
I64    I     0.41620   0.09627   0.04530   0.00000  Uiso   1.00
N65    N     0.49999   0.16666   0.28573   0.00000  Uiso   1.00
N66    N     0.50001   0.16668   0.04760   0.00000  Uiso   1.00
O67    O     0.50000   0.10558   0.20487   0.00000  Uiso   1.00
O68    O     0.50000   0.22775   0.12846   0.00000  Uiso   1.00
O69    O     0.50000   0.10559   0.12843   0.00000  Uiso   1.00
O70    O     0.50000   0.22774   0.20490   0.00000  Uiso   1.00
O71    O     0.42392   0.16666   0.19595   0.00000  Uiso   1.00
O72    O     0.57608   0.16667   0.13739   0.00000  Uiso   1.00
O73    O     0.42392   0.16667   0.11950   0.00000  Uiso   1.00
O74    O     0.57608   0.16666   0.21383   0.00000  Uiso   1.00
Zn75   Zn    0.50000   0.16666   0.21771   0.00000  Uiso   1.00
Zn76   Zn    0.50000   0.16667   0.11563   0.00000  Uiso   1.00
C77    C     0.83413   0.08694   0.16664   0.00000  Uiso   1.00
C78    C     0.87263   0.02253   0.19584   0.00000  Uiso   1.00
C79    C     0.83208   0.29057   0.16661   0.00000  Uiso   1.00
C80    C     0.83459   0.04277   0.16672   0.00000  Uiso   1.00
C81    C     0.86602   0.19379   0.02843   0.00000  Uiso   1.00
C82    C     0.80064   0.13954   0.30490   0.00000  Uiso   1.00
C83    C     0.86587   0.19378   0.31417   0.00000  Uiso   1.00
C84    C     0.80079   0.13956   0.01916   0.00000  Uiso   1.00
C85    C     0.83254   0.24639   0.16670   0.00000  Uiso   1.00
C86    C     0.73391   0.16465   0.15519   0.00000  Uiso   1.00
C87    C     0.93276   0.16868   0.17814   0.00000  Uiso   1.00
C88    C     0.67918   0.15630   0.15213   0.00000  Uiso   1.00
C89    C     0.98749   0.17703   0.18120   0.00000  Uiso   1.00
C90    C     0.79530   0.02055   0.13819   0.00000  Uiso   1.00
C91    C     0.87136   0.31278   0.19514   0.00000  Uiso   1.00
C92    C     0.79403   0.31081   0.13749   0.00000  Uiso   1.00
H93    H     0.76492   0.03660   0.11738   0.00000  Uiso   1.00
H94    H     0.90174   0.29673   0.21596   0.00000  Uiso   1.00
I95    I     0.98244   0.09800   0.12030   0.00000  Uiso   1.00
I96    I     0.68422   0.23533   0.21303   0.00000  Uiso   1.00
I97    I     0.73332   0.27916   0.09267   0.00000  Uiso   1.00
I98    I     0.93334   0.05418   0.24066   0.00000  Uiso   1.00
I99    I     0.91818   0.23672   0.07004   0.00000  Uiso   1.00
I100   I     0.74849   0.09661   0.26329   0.00000  Uiso   1.00
I101   I     0.91713   0.23706   0.28804   0.00000  Uiso   1.00
I102   I     0.74954   0.09627   0.04530   0.00000  Uiso   1.00
N103   N     0.83332   0.16666   0.28573   0.00000  Uiso   1.00
N104   N     0.83335   0.16668   0.04760   0.00000  Uiso   1.00
O105   O     0.83333   0.10558   0.20487   0.00000  Uiso   1.00
O106   O     0.83334   0.22775   0.12846   0.00000  Uiso   1.00
O107   O     0.83333   0.10559   0.12843   0.00000  Uiso   1.00
O108   O     0.83334   0.22774   0.20490   0.00000  Uiso   1.00
O109   O     0.75725   0.16666   0.19595   0.00000  Uiso   1.00
O110   O     0.90942   0.16667   0.13739   0.00000  Uiso   1.00
O111   O     0.75725   0.16667   0.11950   0.00000  Uiso   1.00
O112   O     0.90942   0.16666   0.21383   0.00000  Uiso   1.00
Zn113  Zn    0.83333   0.16666   0.21771   0.00000  Uiso   1.00
Zn114  Zn    0.83333   0.16667   0.11563   0.00000  Uiso   1.00
C115   C     0.16746   0.42027   0.16664   0.00000  Uiso   1.00
C116   C     0.20597   0.35586   0.19584   0.00000  Uiso   1.00
C117   C     0.16541   0.62390   0.16661   0.00000  Uiso   1.00
C118   C     0.16792   0.37610   0.16672   0.00000  Uiso   1.00
C119   C     0.19936   0.52713   0.02843   0.00000  Uiso   1.00
C120   C     0.13398   0.47287   0.30490   0.00000  Uiso   1.00
C121   C     0.19921   0.52711   0.31417   0.00000  Uiso   1.00
C122   C     0.13413   0.47289   0.01916   0.00000  Uiso   1.00
C123   C     0.16587   0.57972   0.16670   0.00000  Uiso   1.00
C124   C     0.06724   0.49799   0.15519   0.00000  Uiso   1.00
C125   C     0.26609   0.50201   0.17814   0.00000  Uiso   1.00
C126   C     0.01251   0.48963   0.15213   0.00000  Uiso   1.00
C127   C     0.32082   0.51037   0.18120   0.00000  Uiso   1.00
C128   C     0.12864   0.35388   0.13819   0.00000  Uiso   1.00
C129   C     0.20470   0.64612   0.19514   0.00000  Uiso   1.00
C130   C     0.12737   0.64414   0.13749   0.00000  Uiso   1.00
H131   H     0.09825   0.36993   0.11738   0.00000  Uiso   1.00
H132   H     0.23508   0.63007   0.21596   0.00000  Uiso   1.00
I133   I     0.31577   0.43133   0.12030   0.00000  Uiso   1.00
I134   I     0.01756   0.56867   0.21303   0.00000  Uiso   1.00
I135   I     0.06666   0.61249   0.09267   0.00000  Uiso   1.00
I136   I     0.26668   0.38751   0.24066   0.00000  Uiso   1.00
I137   I     0.25151   0.57006   0.07004   0.00000  Uiso   1.00
I138   I     0.08182   0.42994   0.26329   0.00000  Uiso   1.00
I139   I     0.25046   0.57040   0.28804   0.00000  Uiso   1.00
I140   I     0.08287   0.42960   0.04530   0.00000  Uiso   1.00
N141   N     0.16665   0.49999   0.28573   0.00000  Uiso   1.00
N142   N     0.16668   0.50001   0.04760   0.00000  Uiso   1.00
O143   O     0.16666   0.43892   0.20487   0.00000  Uiso   1.00
O144   O     0.16667   0.56108   0.12846   0.00000  Uiso   1.00
O145   O     0.16666   0.43893   0.12843   0.00000  Uiso   1.00
O146   O     0.16667   0.56107   0.20490   0.00000  Uiso   1.00
O147   O     0.09058   0.50000   0.19595   0.00000  Uiso   1.00
O148   O     0.24275   0.50000   0.13739   0.00000  Uiso   1.00
O149   O     0.09058   0.50000   0.11950   0.00000  Uiso   1.00
O150   O     0.24275   0.50000   0.21383   0.00000  Uiso   1.00
Zn151  Zn    0.16667   0.49999   0.21771   0.00000  Uiso   1.00
Zn152  Zn    0.16667   0.50001   0.11563   0.00000  Uiso   1.00
C153   C     0.50080   0.42027   0.16664   0.00000  Uiso   1.00
C154   C     0.53930   0.35586   0.19584   0.00000  Uiso   1.00
C155   C     0.49875   0.62390   0.16661   0.00000  Uiso   1.00
C156   C     0.50125   0.37610   0.16672   0.00000  Uiso   1.00
C157   C     0.53269   0.52713   0.02843   0.00000  Uiso   1.00
C158   C     0.46731   0.47287   0.30490   0.00000  Uiso   1.00
C159   C     0.53254   0.52711   0.31417   0.00000  Uiso   1.00
C160   C     0.46746   0.47289   0.01916   0.00000  Uiso   1.00
C161   C     0.49920   0.57972   0.16670   0.00000  Uiso   1.00
C162   C     0.40058   0.49799   0.15519   0.00000  Uiso   1.00
C163   C     0.59942   0.50201   0.17814   0.00000  Uiso   1.00
C164   C     0.34584   0.48963   0.15213   0.00000  Uiso   1.00
C165   C     0.65415   0.51037   0.18120   0.00000  Uiso   1.00
C166   C     0.46197   0.35388   0.13819   0.00000  Uiso   1.00
C167   C     0.53803   0.64612   0.19514   0.00000  Uiso   1.00
C168   C     0.46070   0.64414   0.13749   0.00000  Uiso   1.00
H169   H     0.43159   0.36993   0.11738   0.00000  Uiso   1.00
H170   H     0.56841   0.63007   0.21596   0.00000  Uiso   1.00
I171   I     0.64911   0.43133   0.12030   0.00000  Uiso   1.00
I172   I     0.35089   0.56867   0.21303   0.00000  Uiso   1.00
I173   I     0.39999   0.61249   0.09267   0.00000  Uiso   1.00
I174   I     0.60001   0.38751   0.24066   0.00000  Uiso   1.00
I175   I     0.58484   0.57006   0.07004   0.00000  Uiso   1.00
I176   I     0.41515   0.42994   0.26329   0.00000  Uiso   1.00
I177   I     0.58380   0.57040   0.28804   0.00000  Uiso   1.00
I178   I     0.41620   0.42960   0.04530   0.00000  Uiso   1.00
N179   N     0.49999   0.49999   0.28573   0.00000  Uiso   1.00
N180   N     0.50001   0.50001   0.04760   0.00000  Uiso   1.00
O181   O     0.50000   0.43892   0.20487   0.00000  Uiso   1.00
O182   O     0.50000   0.56108   0.12846   0.00000  Uiso   1.00
O183   O     0.50000   0.43893   0.12843   0.00000  Uiso   1.00
O184   O     0.50000   0.56107   0.20490   0.00000  Uiso   1.00
O185   O     0.42392   0.50000   0.19595   0.00000  Uiso   1.00
O186   O     0.57608   0.50000   0.13739   0.00000  Uiso   1.00
O187   O     0.42392   0.50000   0.11950   0.00000  Uiso   1.00
O188   O     0.57608   0.50000   0.21383   0.00000  Uiso   1.00
Zn189  Zn    0.50000   0.49999   0.21771   0.00000  Uiso   1.00
Zn190  Zn    0.50000   0.50001   0.11563   0.00000  Uiso   1.00
C191   C     0.83413   0.42027   0.16664   0.00000  Uiso   1.00
C192   C     0.87263   0.35586   0.19584   0.00000  Uiso   1.00
C193   C     0.83208   0.62390   0.16661   0.00000  Uiso   1.00
C194   C     0.83459   0.37610   0.16672   0.00000  Uiso   1.00
C195   C     0.86602   0.52713   0.02843   0.00000  Uiso   1.00
C196   C     0.80064   0.47287   0.30490   0.00000  Uiso   1.00
C197   C     0.86587   0.52711   0.31417   0.00000  Uiso   1.00
C198   C     0.80079   0.47289   0.01916   0.00000  Uiso   1.00
C199   C     0.83254   0.57972   0.16670   0.00000  Uiso   1.00
C200   C     0.73391   0.49799   0.15519   0.00000  Uiso   1.00
C201   C     0.93276   0.50201   0.17814   0.00000  Uiso   1.00
C202   C     0.67918   0.48963   0.15213   0.00000  Uiso   1.00
C203   C     0.98749   0.51037   0.18120   0.00000  Uiso   1.00
C204   C     0.79530   0.35388   0.13819   0.00000  Uiso   1.00
C205   C     0.87136   0.64612   0.19514   0.00000  Uiso   1.00
C206   C     0.79403   0.64414   0.13749   0.00000  Uiso   1.00
H207   H     0.76492   0.36993   0.11738   0.00000  Uiso   1.00
H208   H     0.90174   0.63007   0.21596   0.00000  Uiso   1.00
I209   I     0.98244   0.43133   0.12030   0.00000  Uiso   1.00
I210   I     0.68422   0.56867   0.21303   0.00000  Uiso   1.00
I211   I     0.73332   0.61249   0.09267   0.00000  Uiso   1.00
I212   I     0.93334   0.38751   0.24066   0.00000  Uiso   1.00
I213   I     0.91818   0.57006   0.07004   0.00000  Uiso   1.00
I214   I     0.74849   0.42994   0.26329   0.00000  Uiso   1.00
I215   I     0.91713   0.57040   0.28804   0.00000  Uiso   1.00
I216   I     0.74954   0.42960   0.04530   0.00000  Uiso   1.00
N217   N     0.83332   0.49999   0.28573   0.00000  Uiso   1.00
N218   N     0.83335   0.50001   0.04760   0.00000  Uiso   1.00
O219   O     0.83333   0.43892   0.20487   0.00000  Uiso   1.00
O220   O     0.83334   0.56108   0.12846   0.00000  Uiso   1.00
O221   O     0.83333   0.43893   0.12843   0.00000  Uiso   1.00
O222   O     0.83334   0.56107   0.20490   0.00000  Uiso   1.00
O223   O     0.75725   0.50000   0.19595   0.00000  Uiso   1.00
O224   O     0.90942   0.50000   0.13739   0.00000  Uiso   1.00
O225   O     0.75725   0.50000   0.11950   0.00000  Uiso   1.00
O226   O     0.90942   0.50000   0.21383   0.00000  Uiso   1.00
Zn227  Zn    0.83333   0.49999   0.21771   0.00000  Uiso   1.00
Zn228  Zn    0.83333   0.50001   0.11563   0.00000  Uiso   1.00
C229   C     0.16746   0.75361   0.16664   0.00000  Uiso   1.00
C230   C     0.20597   0.68919   0.19584   0.00000  Uiso   1.00
C231   C     0.16541   0.95723   0.16661   0.00000  Uiso   1.00
C232   C     0.16792   0.70943   0.16672   0.00000  Uiso   1.00
C233   C     0.19936   0.86046   0.02843   0.00000  Uiso   1.00
C234   C     0.13398   0.80620   0.30490   0.00000  Uiso   1.00
C235   C     0.19921   0.86044   0.31417   0.00000  Uiso   1.00
C236   C     0.13413   0.80622   0.01916   0.00000  Uiso   1.00
C237   C     0.16587   0.91306   0.16670   0.00000  Uiso   1.00
C238   C     0.06724   0.83132   0.15519   0.00000  Uiso   1.00
C239   C     0.26609   0.83535   0.17814   0.00000  Uiso   1.00
C240   C     0.01251   0.82297   0.15213   0.00000  Uiso   1.00
C241   C     0.32082   0.84370   0.18120   0.00000  Uiso   1.00
C242   C     0.12864   0.68722   0.13819   0.00000  Uiso   1.00
C243   C     0.20470   0.97945   0.19514   0.00000  Uiso   1.00
C244   C     0.12737   0.97747   0.13749   0.00000  Uiso   1.00
H245   H     0.09825   0.70327   0.11738   0.00000  Uiso   1.00
H246   H     0.23508   0.96340   0.21596   0.00000  Uiso   1.00
I247   I     0.31577   0.76467   0.12030   0.00000  Uiso   1.00
I248   I     0.01756   0.90200   0.21303   0.00000  Uiso   1.00
I249   I     0.06666   0.94582   0.09267   0.00000  Uiso   1.00
I250   I     0.26668   0.72084   0.24066   0.00000  Uiso   1.00
I251   I     0.25151   0.90339   0.07004   0.00000  Uiso   1.00
I252   I     0.08182   0.76328   0.26329   0.00000  Uiso   1.00
I253   I     0.25046   0.90373   0.28804   0.00000  Uiso   1.00
I254   I     0.08287   0.76293   0.04530   0.00000  Uiso   1.00
N255   N     0.16665   0.83332   0.28573   0.00000  Uiso   1.00
N256   N     0.16668   0.83334   0.04760   0.00000  Uiso   1.00
O257   O     0.16666   0.77225   0.20487   0.00000  Uiso   1.00
O258   O     0.16667   0.89442   0.12846   0.00000  Uiso   1.00
O259   O     0.16666   0.77226   0.12843   0.00000  Uiso   1.00
O260   O     0.16667   0.89441   0.20490   0.00000  Uiso   1.00
O261   O     0.09058   0.83333   0.19595   0.00000  Uiso   1.00
O262   O     0.24275   0.83334   0.13739   0.00000  Uiso   1.00
O263   O     0.09058   0.83334   0.11950   0.00000  Uiso   1.00
O264   O     0.24275   0.83333   0.21383   0.00000  Uiso   1.00
Zn265  Zn    0.16667   0.83333   0.21771   0.00000  Uiso   1.00
Zn266  Zn    0.16667   0.83334   0.11563   0.00000  Uiso   1.00
C267   C     0.50080   0.75361   0.16664   0.00000  Uiso   1.00
C268   C     0.53930   0.68919   0.19584   0.00000  Uiso   1.00
C269   C     0.49875   0.95723   0.16661   0.00000  Uiso   1.00
C270   C     0.50125   0.70943   0.16672   0.00000  Uiso   1.00
C271   C     0.53269   0.86046   0.02843   0.00000  Uiso   1.00
C272   C     0.46731   0.80620   0.30490   0.00000  Uiso   1.00
C273   C     0.53254   0.86044   0.31417   0.00000  Uiso   1.00
C274   C     0.46746   0.80622   0.01916   0.00000  Uiso   1.00
C275   C     0.49920   0.91306   0.16670   0.00000  Uiso   1.00
C276   C     0.40058   0.83132   0.15519   0.00000  Uiso   1.00
C277   C     0.59942   0.83535   0.17814   0.00000  Uiso   1.00
C278   C     0.34584   0.82297   0.15213   0.00000  Uiso   1.00
C279   C     0.65415   0.84370   0.18120   0.00000  Uiso   1.00
C280   C     0.46197   0.68722   0.13819   0.00000  Uiso   1.00
C281   C     0.53803   0.97945   0.19514   0.00000  Uiso   1.00
C282   C     0.46070   0.97747   0.13749   0.00000  Uiso   1.00
H283   H     0.43159   0.70327   0.11738   0.00000  Uiso   1.00
H284   H     0.56841   0.96340   0.21596   0.00000  Uiso   1.00
I285   I     0.64911   0.76467   0.12030   0.00000  Uiso   1.00
I286   I     0.35089   0.90200   0.21303   0.00000  Uiso   1.00
I287   I     0.39999   0.94582   0.09267   0.00000  Uiso   1.00
I288   I     0.60001   0.72084   0.24066   0.00000  Uiso   1.00
I289   I     0.58484   0.90339   0.07004   0.00000  Uiso   1.00
I290   I     0.41515   0.76328   0.26329   0.00000  Uiso   1.00
I291   I     0.58380   0.90373   0.28804   0.00000  Uiso   1.00
I292   I     0.41620   0.76293   0.04530   0.00000  Uiso   1.00
N293   N     0.49999   0.83332   0.28573   0.00000  Uiso   1.00
N294   N     0.50001   0.83334   0.04760   0.00000  Uiso   1.00
O295   O     0.50000   0.77225   0.20487   0.00000  Uiso   1.00
O296   O     0.50000   0.89442   0.12846   0.00000  Uiso   1.00
O297   O     0.50000   0.77226   0.12843   0.00000  Uiso   1.00
O298   O     0.50000   0.89441   0.20490   0.00000  Uiso   1.00
O299   O     0.42392   0.83333   0.19595   0.00000  Uiso   1.00
O300   O     0.57608   0.83334   0.13739   0.00000  Uiso   1.00
O301   O     0.42392   0.83334   0.11950   0.00000  Uiso   1.00
O302   O     0.57608   0.83333   0.21383   0.00000  Uiso   1.00
Zn303  Zn    0.50000   0.83333   0.21771   0.00000  Uiso   1.00
Zn304  Zn    0.50000   0.83334   0.11563   0.00000  Uiso   1.00
C305   C     0.83413   0.75361   0.16664   0.00000  Uiso   1.00
C306   C     0.87263   0.68919   0.19584   0.00000  Uiso   1.00
C307   C     0.83208   0.95723   0.16661   0.00000  Uiso   1.00
C308   C     0.83459   0.70943   0.16672   0.00000  Uiso   1.00
C309   C     0.86602   0.86046   0.02843   0.00000  Uiso   1.00
C310   C     0.80064   0.80620   0.30490   0.00000  Uiso   1.00
C311   C     0.86587   0.86044   0.31417   0.00000  Uiso   1.00
C312   C     0.80079   0.80622   0.01916   0.00000  Uiso   1.00
C313   C     0.83254   0.91306   0.16670   0.00000  Uiso   1.00
C314   C     0.73391   0.83132   0.15519   0.00000  Uiso   1.00
C315   C     0.93276   0.83535   0.17814   0.00000  Uiso   1.00
C316   C     0.67918   0.82297   0.15213   0.00000  Uiso   1.00
C317   C     0.98749   0.84370   0.18120   0.00000  Uiso   1.00
C318   C     0.79530   0.68722   0.13819   0.00000  Uiso   1.00
C319   C     0.87136   0.97945   0.19514   0.00000  Uiso   1.00
C320   C     0.79403   0.97747   0.13749   0.00000  Uiso   1.00
H321   H     0.76492   0.70327   0.11738   0.00000  Uiso   1.00
H322   H     0.90174   0.96340   0.21596   0.00000  Uiso   1.00
I323   I     0.98244   0.76467   0.12030   0.00000  Uiso   1.00
I324   I     0.68422   0.90200   0.21303   0.00000  Uiso   1.00
I325   I     0.73332   0.94582   0.09267   0.00000  Uiso   1.00
I326   I     0.93334   0.72084   0.24066   0.00000  Uiso   1.00
I327   I     0.91818   0.90339   0.07004   0.00000  Uiso   1.00
I328   I     0.74849   0.76328   0.26329   0.00000  Uiso   1.00
I329   I     0.91713   0.90373   0.28804   0.00000  Uiso   1.00
I330   I     0.74954   0.76293   0.04530   0.00000  Uiso   1.00
N331   N     0.83332   0.83332   0.28573   0.00000  Uiso   1.00
N332   N     0.83335   0.83334   0.04760   0.00000  Uiso   1.00
O333   O     0.83333   0.77225   0.20487   0.00000  Uiso   1.00
O334   O     0.83334   0.89442   0.12846   0.00000  Uiso   1.00
O335   O     0.83333   0.77226   0.12843   0.00000  Uiso   1.00
O336   O     0.83334   0.89441   0.20490   0.00000  Uiso   1.00
O337   O     0.75725   0.83333   0.19595   0.00000  Uiso   1.00
O338   O     0.90942   0.83334   0.13739   0.00000  Uiso   1.00
O339   O     0.75725   0.83334   0.11950   0.00000  Uiso   1.00
O340   O     0.90942   0.83333   0.21383   0.00000  Uiso   1.00
Zn341  Zn    0.83333   0.83333   0.21771   0.00000  Uiso   1.00
Zn342  Zn    0.83333   0.83334   0.11563   0.00000  Uiso   1.00
C343   C     0.16746   0.08694   0.49997   0.00000  Uiso   1.00
C344   C     0.20597   0.02253   0.52917   0.00000  Uiso   1.00
C345   C     0.16541   0.29057   0.49994   0.00000  Uiso   1.00
C346   C     0.16792   0.04277   0.50006   0.00000  Uiso   1.00
C347   C     0.19936   0.19379   0.36176   0.00000  Uiso   1.00
C348   C     0.13398   0.13954   0.63824   0.00000  Uiso   1.00
C349   C     0.19921   0.19378   0.64751   0.00000  Uiso   1.00
C350   C     0.13413   0.13956   0.35249   0.00000  Uiso   1.00
C351   C     0.16587   0.24639   0.50003   0.00000  Uiso   1.00
C352   C     0.06724   0.16465   0.48852   0.00000  Uiso   1.00
C353   C     0.26609   0.16868   0.51148   0.00000  Uiso   1.00
C354   C     0.01251   0.15630   0.48546   0.00000  Uiso   1.00
C355   C     0.32082   0.17703   0.51454   0.00000  Uiso   1.00
C356   C     0.12864   0.02055   0.47152   0.00000  Uiso   1.00
C357   C     0.20470   0.31278   0.52848   0.00000  Uiso   1.00
C358   C     0.12737   0.31081   0.47083   0.00000  Uiso   1.00
H359   H     0.09825   0.03660   0.45071   0.00000  Uiso   1.00
H360   H     0.23508   0.29673   0.54929   0.00000  Uiso   1.00
I361   I     0.31577   0.09800   0.45364   0.00000  Uiso   1.00
I362   I     0.01756   0.23533   0.54636   0.00000  Uiso   1.00
I363   I     0.06666   0.27916   0.42601   0.00000  Uiso   1.00
I364   I     0.26668   0.05418   0.57399   0.00000  Uiso   1.00
I365   I     0.25151   0.23672   0.40338   0.00000  Uiso   1.00
I366   I     0.08182   0.09661   0.59662   0.00000  Uiso   1.00
I367   I     0.25046   0.23706   0.62137   0.00000  Uiso   1.00
I368   I     0.08287   0.09627   0.37863   0.00000  Uiso   1.00
N369   N     0.16665   0.16666   0.61907   0.00000  Uiso   1.00
N370   N     0.16668   0.16668   0.38093   0.00000  Uiso   1.00
O371   O     0.16666   0.10558   0.53821   0.00000  Uiso   1.00
O372   O     0.16667   0.22775   0.46179   0.00000  Uiso   1.00
O373   O     0.16666   0.10559   0.46176   0.00000  Uiso   1.00
O374   O     0.16667   0.22774   0.53824   0.00000  Uiso   1.00
O375   O     0.09058   0.16666   0.52928   0.00000  Uiso   1.00
O376   O     0.24275   0.16667   0.47072   0.00000  Uiso   1.00
O377   O     0.09058   0.16667   0.45284   0.00000  Uiso   1.00
O378   O     0.24275   0.16666   0.54716   0.00000  Uiso   1.00
Zn379  Zn    0.16667   0.16666   0.55104   0.00000  Uiso   1.00
Zn380  Zn    0.16667   0.16667   0.44896   0.00000  Uiso   1.00
C381   C     0.50080   0.08694   0.49997   0.00000  Uiso   1.00
C382   C     0.53930   0.02253   0.52917   0.00000  Uiso   1.00
C383   C     0.49875   0.29057   0.49994   0.00000  Uiso   1.00
C384   C     0.50125   0.04277   0.50006   0.00000  Uiso   1.00
C385   C     0.53269   0.19379   0.36176   0.00000  Uiso   1.00
C386   C     0.46731   0.13954   0.63824   0.00000  Uiso   1.00
C387   C     0.53254   0.19378   0.64751   0.00000  Uiso   1.00
C388   C     0.46746   0.13956   0.35249   0.00000  Uiso   1.00
C389   C     0.49920   0.24639   0.50003   0.00000  Uiso   1.00
C390   C     0.40058   0.16465   0.48852   0.00000  Uiso   1.00
C391   C     0.59942   0.16868   0.51148   0.00000  Uiso   1.00
C392   C     0.34584   0.15630   0.48546   0.00000  Uiso   1.00
C393   C     0.65415   0.17703   0.51454   0.00000  Uiso   1.00
C394   C     0.46197   0.02055   0.47152   0.00000  Uiso   1.00
C395   C     0.53803   0.31278   0.52848   0.00000  Uiso   1.00
C396   C     0.46070   0.31081   0.47083   0.00000  Uiso   1.00
H397   H     0.43159   0.03660   0.45071   0.00000  Uiso   1.00
H398   H     0.56841   0.29673   0.54929   0.00000  Uiso   1.00
I399   I     0.64911   0.09800   0.45364   0.00000  Uiso   1.00
I400   I     0.35089   0.23533   0.54636   0.00000  Uiso   1.00
I401   I     0.39999   0.27916   0.42601   0.00000  Uiso   1.00
I402   I     0.60001   0.05418   0.57399   0.00000  Uiso   1.00
I403   I     0.58484   0.23672   0.40338   0.00000  Uiso   1.00
I404   I     0.41515   0.09661   0.59662   0.00000  Uiso   1.00
I405   I     0.58380   0.23706   0.62137   0.00000  Uiso   1.00
I406   I     0.41620   0.09627   0.37863   0.00000  Uiso   1.00
N407   N     0.49999   0.16666   0.61907   0.00000  Uiso   1.00
N408   N     0.50001   0.16668   0.38093   0.00000  Uiso   1.00
O409   O     0.50000   0.10558   0.53821   0.00000  Uiso   1.00
O410   O     0.50000   0.22775   0.46179   0.00000  Uiso   1.00
O411   O     0.50000   0.10559   0.46176   0.00000  Uiso   1.00
O412   O     0.50000   0.22774   0.53824   0.00000  Uiso   1.00
O413   O     0.42392   0.16666   0.52928   0.00000  Uiso   1.00
O414   O     0.57608   0.16667   0.47072   0.00000  Uiso   1.00
O415   O     0.42392   0.16667   0.45284   0.00000  Uiso   1.00
O416   O     0.57608   0.16666   0.54716   0.00000  Uiso   1.00
Zn417  Zn    0.50000   0.16666   0.55104   0.00000  Uiso   1.00
Zn418  Zn    0.50000   0.16667   0.44896   0.00000  Uiso   1.00
C419   C     0.83413   0.08694   0.49997   0.00000  Uiso   1.00
C420   C     0.87263   0.02253   0.52917   0.00000  Uiso   1.00
C421   C     0.83208   0.29057   0.49994   0.00000  Uiso   1.00
C422   C     0.83459   0.04277   0.50006   0.00000  Uiso   1.00
C423   C     0.86602   0.19379   0.36176   0.00000  Uiso   1.00
C424   C     0.80064   0.13954   0.63824   0.00000  Uiso   1.00
C425   C     0.86587   0.19378   0.64751   0.00000  Uiso   1.00
C426   C     0.80079   0.13956   0.35249   0.00000  Uiso   1.00
C427   C     0.83254   0.24639   0.50003   0.00000  Uiso   1.00
C428   C     0.73391   0.16465   0.48852   0.00000  Uiso   1.00
C429   C     0.93276   0.16868   0.51148   0.00000  Uiso   1.00
C430   C     0.67918   0.15630   0.48546   0.00000  Uiso   1.00
C431   C     0.98749   0.17703   0.51454   0.00000  Uiso   1.00
C432   C     0.79530   0.02055   0.47152   0.00000  Uiso   1.00
C433   C     0.87136   0.31278   0.52848   0.00000  Uiso   1.00
C434   C     0.79403   0.31081   0.47083   0.00000  Uiso   1.00
H435   H     0.76492   0.03660   0.45071   0.00000  Uiso   1.00
H436   H     0.90174   0.29673   0.54929   0.00000  Uiso   1.00
I437   I     0.98244   0.09800   0.45364   0.00000  Uiso   1.00
I438   I     0.68422   0.23533   0.54636   0.00000  Uiso   1.00
I439   I     0.73332   0.27916   0.42601   0.00000  Uiso   1.00
I440   I     0.93334   0.05418   0.57399   0.00000  Uiso   1.00
I441   I     0.91818   0.23672   0.40338   0.00000  Uiso   1.00
I442   I     0.74849   0.09661   0.59662   0.00000  Uiso   1.00
I443   I     0.91713   0.23706   0.62137   0.00000  Uiso   1.00
I444   I     0.74954   0.09627   0.37863   0.00000  Uiso   1.00
N445   N     0.83332   0.16666   0.61907   0.00000  Uiso   1.00
N446   N     0.83335   0.16668   0.38093   0.00000  Uiso   1.00
O447   O     0.83333   0.10558   0.53821   0.00000  Uiso   1.00
O448   O     0.83334   0.22775   0.46179   0.00000  Uiso   1.00
O449   O     0.83333   0.10559   0.46176   0.00000  Uiso   1.00
O450   O     0.83334   0.22774   0.53824   0.00000  Uiso   1.00
O451   O     0.75725   0.16666   0.52928   0.00000  Uiso   1.00
O452   O     0.90942   0.16667   0.47072   0.00000  Uiso   1.00
O453   O     0.75725   0.16667   0.45284   0.00000  Uiso   1.00
O454   O     0.90942   0.16666   0.54716   0.00000  Uiso   1.00
Zn455  Zn    0.83333   0.16666   0.55104   0.00000  Uiso   1.00
Zn456  Zn    0.83333   0.16667   0.44896   0.00000  Uiso   1.00
C457   C     0.16746   0.42027   0.49997   0.00000  Uiso   1.00
C458   C     0.20597   0.35586   0.52917   0.00000  Uiso   1.00
C459   C     0.16541   0.62390   0.49994   0.00000  Uiso   1.00
C460   C     0.16792   0.37610   0.50006   0.00000  Uiso   1.00
C461   C     0.19936   0.52713   0.36176   0.00000  Uiso   1.00
C462   C     0.13398   0.47287   0.63824   0.00000  Uiso   1.00
C463   C     0.19921   0.52711   0.64751   0.00000  Uiso   1.00
C464   C     0.13413   0.47289   0.35249   0.00000  Uiso   1.00
C465   C     0.16587   0.57972   0.50003   0.00000  Uiso   1.00
C466   C     0.06724   0.49799   0.48852   0.00000  Uiso   1.00
C467   C     0.26609   0.50201   0.51148   0.00000  Uiso   1.00
C468   C     0.01251   0.48963   0.48546   0.00000  Uiso   1.00
C469   C     0.32082   0.51037   0.51454   0.00000  Uiso   1.00
C470   C     0.12864   0.35388   0.47152   0.00000  Uiso   1.00
C471   C     0.20470   0.64612   0.52848   0.00000  Uiso   1.00
C472   C     0.12737   0.64414   0.47083   0.00000  Uiso   1.00
H473   H     0.09825   0.36993   0.45071   0.00000  Uiso   1.00
H474   H     0.23508   0.63007   0.54929   0.00000  Uiso   1.00
I475   I     0.31577   0.43133   0.45364   0.00000  Uiso   1.00
I476   I     0.01756   0.56867   0.54636   0.00000  Uiso   1.00
I477   I     0.06666   0.61249   0.42601   0.00000  Uiso   1.00
I478   I     0.26668   0.38751   0.57399   0.00000  Uiso   1.00
I479   I     0.25151   0.57006   0.40338   0.00000  Uiso   1.00
I480   I     0.08182   0.42994   0.59662   0.00000  Uiso   1.00
I481   I     0.25046   0.57040   0.62137   0.00000  Uiso   1.00
I482   I     0.08287   0.42960   0.37863   0.00000  Uiso   1.00
N483   N     0.16665   0.49999   0.61907   0.00000  Uiso   1.00
N484   N     0.16668   0.50001   0.38093   0.00000  Uiso   1.00
O485   O     0.16666   0.43892   0.53821   0.00000  Uiso   1.00
O486   O     0.16667   0.56108   0.46179   0.00000  Uiso   1.00
O487   O     0.16666   0.43893   0.46176   0.00000  Uiso   1.00
O488   O     0.16667   0.56107   0.53824   0.00000  Uiso   1.00
O489   O     0.09058   0.50000   0.52928   0.00000  Uiso   1.00
O490   O     0.24275   0.50000   0.47072   0.00000  Uiso   1.00
O491   O     0.09058   0.50000   0.45284   0.00000  Uiso   1.00
O492   O     0.24275   0.50000   0.54716   0.00000  Uiso   1.00
Zn493  Zn    0.16667   0.49999   0.55104   0.00000  Uiso   1.00
Zn494  Zn    0.16667   0.50001   0.44896   0.00000  Uiso   1.00
C495   C     0.50080   0.42027   0.49997   0.00000  Uiso   1.00
C496   C     0.53930   0.35586   0.52917   0.00000  Uiso   1.00
C497   C     0.49875   0.62390   0.49994   0.00000  Uiso   1.00
C498   C     0.50125   0.37610   0.50006   0.00000  Uiso   1.00
C499   C     0.53269   0.52713   0.36176   0.00000  Uiso   1.00
C500   C     0.46731   0.47287   0.63824   0.00000  Uiso   1.00
C501   C     0.53254   0.52711   0.64751   0.00000  Uiso   1.00
C502   C     0.46746   0.47289   0.35249   0.00000  Uiso   1.00
C503   C     0.49920   0.57972   0.50003   0.00000  Uiso   1.00
C504   C     0.40058   0.49799   0.48852   0.00000  Uiso   1.00
C505   C     0.59942   0.50201   0.51148   0.00000  Uiso   1.00
C506   C     0.34584   0.48963   0.48546   0.00000  Uiso   1.00
C507   C     0.65415   0.51037   0.51454   0.00000  Uiso   1.00
C508   C     0.46197   0.35388   0.47152   0.00000  Uiso   1.00
C509   C     0.53803   0.64612   0.52848   0.00000  Uiso   1.00
C510   C     0.46070   0.64414   0.47083   0.00000  Uiso   1.00
H511   H     0.43159   0.36993   0.45071   0.00000  Uiso   1.00
H512   H     0.56841   0.63007   0.54929   0.00000  Uiso   1.00
I513   I     0.64911   0.43133   0.45364   0.00000  Uiso   1.00
I514   I     0.35089   0.56867   0.54636   0.00000  Uiso   1.00
I515   I     0.39999   0.61249   0.42601   0.00000  Uiso   1.00
I516   I     0.60001   0.38751   0.57399   0.00000  Uiso   1.00
I517   I     0.58484   0.57006   0.40338   0.00000  Uiso   1.00
I518   I     0.41515   0.42994   0.59662   0.00000  Uiso   1.00
I519   I     0.58380   0.57040   0.62137   0.00000  Uiso   1.00
I520   I     0.41620   0.42960   0.37863   0.00000  Uiso   1.00
N521   N     0.49999   0.49999   0.61907   0.00000  Uiso   1.00
N522   N     0.50001   0.50001   0.38093   0.00000  Uiso   1.00
O523   O     0.50000   0.43892   0.53821   0.00000  Uiso   1.00
O524   O     0.50000   0.56108   0.46179   0.00000  Uiso   1.00
O525   O     0.50000   0.43893   0.46176   0.00000  Uiso   1.00
O526   O     0.50000   0.56107   0.53824   0.00000  Uiso   1.00
O527   O     0.42392   0.50000   0.52928   0.00000  Uiso   1.00
O528   O     0.57608   0.50000   0.47072   0.00000  Uiso   1.00
O529   O     0.42392   0.50000   0.45284   0.00000  Uiso   1.00
O530   O     0.57608   0.50000   0.54716   0.00000  Uiso   1.00
Zn531  Zn    0.50000   0.49999   0.55104   0.00000  Uiso   1.00
Zn532  Zn    0.50000   0.50001   0.44896   0.00000  Uiso   1.00
C533   C     0.83413   0.42027   0.49997   0.00000  Uiso   1.00
C534   C     0.87263   0.35586   0.52917   0.00000  Uiso   1.00
C535   C     0.83208   0.62390   0.49994   0.00000  Uiso   1.00
C536   C     0.83459   0.37610   0.50006   0.00000  Uiso   1.00
C537   C     0.86602   0.52713   0.36176   0.00000  Uiso   1.00
C538   C     0.80064   0.47287   0.63824   0.00000  Uiso   1.00
C539   C     0.86587   0.52711   0.64751   0.00000  Uiso   1.00
C540   C     0.80079   0.47289   0.35249   0.00000  Uiso   1.00
C541   C     0.83254   0.57972   0.50003   0.00000  Uiso   1.00
C542   C     0.73391   0.49799   0.48852   0.00000  Uiso   1.00
C543   C     0.93276   0.50201   0.51148   0.00000  Uiso   1.00
C544   C     0.67918   0.48963   0.48546   0.00000  Uiso   1.00
C545   C     0.98749   0.51037   0.51454   0.00000  Uiso   1.00
C546   C     0.79530   0.35388   0.47152   0.00000  Uiso   1.00
C547   C     0.87136   0.64612   0.52848   0.00000  Uiso   1.00
C548   C     0.79403   0.64414   0.47083   0.00000  Uiso   1.00
H549   H     0.76492   0.36993   0.45071   0.00000  Uiso   1.00
H550   H     0.90174   0.63007   0.54929   0.00000  Uiso   1.00
I551   I     0.98244   0.43133   0.45364   0.00000  Uiso   1.00
I552   I     0.68422   0.56867   0.54636   0.00000  Uiso   1.00
I553   I     0.73332   0.61249   0.42601   0.00000  Uiso   1.00
I554   I     0.93334   0.38751   0.57399   0.00000  Uiso   1.00
I555   I     0.91818   0.57006   0.40338   0.00000  Uiso   1.00
I556   I     0.74849   0.42994   0.59662   0.00000  Uiso   1.00
I557   I     0.91713   0.57040   0.62137   0.00000  Uiso   1.00
I558   I     0.74954   0.42960   0.37863   0.00000  Uiso   1.00
N559   N     0.83332   0.49999   0.61907   0.00000  Uiso   1.00
N560   N     0.83335   0.50001   0.38093   0.00000  Uiso   1.00
O561   O     0.83333   0.43892   0.53821   0.00000  Uiso   1.00
O562   O     0.83334   0.56108   0.46179   0.00000  Uiso   1.00
O563   O     0.83333   0.43893   0.46176   0.00000  Uiso   1.00
O564   O     0.83334   0.56107   0.53824   0.00000  Uiso   1.00
O565   O     0.75725   0.50000   0.52928   0.00000  Uiso   1.00
O566   O     0.90942   0.50000   0.47072   0.00000  Uiso   1.00
O567   O     0.75725   0.50000   0.45284   0.00000  Uiso   1.00
O568   O     0.90942   0.50000   0.54716   0.00000  Uiso   1.00
Zn569  Zn    0.83333   0.49999   0.55104   0.00000  Uiso   1.00
Zn570  Zn    0.83333   0.50001   0.44896   0.00000  Uiso   1.00
C571   C     0.16746   0.75361   0.49997   0.00000  Uiso   1.00
C572   C     0.20597   0.68919   0.52917   0.00000  Uiso   1.00
C573   C     0.16541   0.95723   0.49994   0.00000  Uiso   1.00
C574   C     0.16792   0.70943   0.50006   0.00000  Uiso   1.00
C575   C     0.19936   0.86046   0.36176   0.00000  Uiso   1.00
C576   C     0.13398   0.80620   0.63824   0.00000  Uiso   1.00
C577   C     0.19921   0.86044   0.64751   0.00000  Uiso   1.00
C578   C     0.13413   0.80622   0.35249   0.00000  Uiso   1.00
C579   C     0.16587   0.91306   0.50003   0.00000  Uiso   1.00
C580   C     0.06724   0.83132   0.48852   0.00000  Uiso   1.00
C581   C     0.26609   0.83535   0.51148   0.00000  Uiso   1.00
C582   C     0.01251   0.82297   0.48546   0.00000  Uiso   1.00
C583   C     0.32082   0.84370   0.51454   0.00000  Uiso   1.00
C584   C     0.12864   0.68722   0.47152   0.00000  Uiso   1.00
C585   C     0.20470   0.97945   0.52848   0.00000  Uiso   1.00
C586   C     0.12737   0.97747   0.47083   0.00000  Uiso   1.00
H587   H     0.09825   0.70327   0.45071   0.00000  Uiso   1.00
H588   H     0.23508   0.96340   0.54929   0.00000  Uiso   1.00
I589   I     0.31577   0.76467   0.45364   0.00000  Uiso   1.00
I590   I     0.01756   0.90200   0.54636   0.00000  Uiso   1.00
I591   I     0.06666   0.94582   0.42601   0.00000  Uiso   1.00
I592   I     0.26668   0.72084   0.57399   0.00000  Uiso   1.00
I593   I     0.25151   0.90339   0.40338   0.00000  Uiso   1.00
I594   I     0.08182   0.76328   0.59662   0.00000  Uiso   1.00
I595   I     0.25046   0.90373   0.62137   0.00000  Uiso   1.00
I596   I     0.08287   0.76293   0.37863   0.00000  Uiso   1.00
N597   N     0.16665   0.83332   0.61907   0.00000  Uiso   1.00
N598   N     0.16668   0.83334   0.38093   0.00000  Uiso   1.00
O599   O     0.16666   0.77225   0.53821   0.00000  Uiso   1.00
O600   O     0.16667   0.89442   0.46179   0.00000  Uiso   1.00
O601   O     0.16666   0.77226   0.46176   0.00000  Uiso   1.00
O602   O     0.16667   0.89441   0.53824   0.00000  Uiso   1.00
O603   O     0.09058   0.83333   0.52928   0.00000  Uiso   1.00
O604   O     0.24275   0.83334   0.47072   0.00000  Uiso   1.00
O605   O     0.09058   0.83334   0.45284   0.00000  Uiso   1.00
O606   O     0.24275   0.83333   0.54716   0.00000  Uiso   1.00
Zn607  Zn    0.16667   0.83333   0.55104   0.00000  Uiso   1.00
Zn608  Zn    0.16667   0.83334   0.44896   0.00000  Uiso   1.00
C609   C     0.50080   0.75361   0.49997   0.00000  Uiso   1.00
C610   C     0.53930   0.68919   0.52917   0.00000  Uiso   1.00
C611   C     0.49875   0.95723   0.49994   0.00000  Uiso   1.00
C612   C     0.50125   0.70943   0.50006   0.00000  Uiso   1.00
C613   C     0.53269   0.86046   0.36176   0.00000  Uiso   1.00
C614   C     0.46731   0.80620   0.63824   0.00000  Uiso   1.00
C615   C     0.53254   0.86044   0.64751   0.00000  Uiso   1.00
C616   C     0.46746   0.80622   0.35249   0.00000  Uiso   1.00
C617   C     0.49920   0.91306   0.50003   0.00000  Uiso   1.00
C618   C     0.40058   0.83132   0.48852   0.00000  Uiso   1.00
C619   C     0.59942   0.83535   0.51148   0.00000  Uiso   1.00
C620   C     0.34584   0.82297   0.48546   0.00000  Uiso   1.00
C621   C     0.65415   0.84370   0.51454   0.00000  Uiso   1.00
C622   C     0.46197   0.68722   0.47152   0.00000  Uiso   1.00
C623   C     0.53803   0.97945   0.52848   0.00000  Uiso   1.00
C624   C     0.46070   0.97747   0.47083   0.00000  Uiso   1.00
H625   H     0.43159   0.70327   0.45071   0.00000  Uiso   1.00
H626   H     0.56841   0.96340   0.54929   0.00000  Uiso   1.00
I627   I     0.64911   0.76467   0.45364   0.00000  Uiso   1.00
I628   I     0.35089   0.90200   0.54636   0.00000  Uiso   1.00
I629   I     0.39999   0.94582   0.42601   0.00000  Uiso   1.00
I630   I     0.60001   0.72084   0.57399   0.00000  Uiso   1.00
I631   I     0.58484   0.90339   0.40338   0.00000  Uiso   1.00
I632   I     0.41515   0.76328   0.59662   0.00000  Uiso   1.00
I633   I     0.58380   0.90373   0.62137   0.00000  Uiso   1.00
I634   I     0.41620   0.76293   0.37863   0.00000  Uiso   1.00
N635   N     0.49999   0.83332   0.61907   0.00000  Uiso   1.00
N636   N     0.50001   0.83334   0.38093   0.00000  Uiso   1.00
O637   O     0.50000   0.77225   0.53821   0.00000  Uiso   1.00
O638   O     0.50000   0.89442   0.46179   0.00000  Uiso   1.00
O639   O     0.50000   0.77226   0.46176   0.00000  Uiso   1.00
O640   O     0.50000   0.89441   0.53824   0.00000  Uiso   1.00
O641   O     0.42392   0.83333   0.52928   0.00000  Uiso   1.00
O642   O     0.57608   0.83334   0.47072   0.00000  Uiso   1.00
O643   O     0.42392   0.83334   0.45284   0.00000  Uiso   1.00
O644   O     0.57608   0.83333   0.54716   0.00000  Uiso   1.00
Zn645  Zn    0.50000   0.83333   0.55104   0.00000  Uiso   1.00
Zn646  Zn    0.50000   0.83334   0.44896   0.00000  Uiso   1.00
C647   C     0.83413   0.75361   0.49997   0.00000  Uiso   1.00
C648   C     0.87263   0.68919   0.52917   0.00000  Uiso   1.00
C649   C     0.83208   0.95723   0.49994   0.00000  Uiso   1.00
C650   C     0.83459   0.70943   0.50006   0.00000  Uiso   1.00
C651   C     0.86602   0.86046   0.36176   0.00000  Uiso   1.00
C652   C     0.80064   0.80620   0.63824   0.00000  Uiso   1.00
C653   C     0.86587   0.86044   0.64751   0.00000  Uiso   1.00
C654   C     0.80079   0.80622   0.35249   0.00000  Uiso   1.00
C655   C     0.83254   0.91306   0.50003   0.00000  Uiso   1.00
C656   C     0.73391   0.83132   0.48852   0.00000  Uiso   1.00
C657   C     0.93276   0.83535   0.51148   0.00000  Uiso   1.00
C658   C     0.67918   0.82297   0.48546   0.00000  Uiso   1.00
C659   C     0.98749   0.84370   0.51454   0.00000  Uiso   1.00
C660   C     0.79530   0.68722   0.47152   0.00000  Uiso   1.00
C661   C     0.87136   0.97945   0.52848   0.00000  Uiso   1.00
C662   C     0.79403   0.97747   0.47083   0.00000  Uiso   1.00
H663   H     0.76492   0.70327   0.45071   0.00000  Uiso   1.00
H664   H     0.90174   0.96340   0.54929   0.00000  Uiso   1.00
I665   I     0.98244   0.76467   0.45364   0.00000  Uiso   1.00
I666   I     0.68422   0.90200   0.54636   0.00000  Uiso   1.00
I667   I     0.73332   0.94582   0.42601   0.00000  Uiso   1.00
I668   I     0.93334   0.72084   0.57399   0.00000  Uiso   1.00
I669   I     0.91818   0.90339   0.40338   0.00000  Uiso   1.00
I670   I     0.74849   0.76328   0.59662   0.00000  Uiso   1.00
I671   I     0.91713   0.90373   0.62137   0.00000  Uiso   1.00
I672   I     0.74954   0.76293   0.37863   0.00000  Uiso   1.00
N673   N     0.83332   0.83332   0.61907   0.00000  Uiso   1.00
N674   N     0.83335   0.83334   0.38093   0.00000  Uiso   1.00
O675   O     0.83333   0.77225   0.53821   0.00000  Uiso   1.00
O676   O     0.83334   0.89442   0.46179   0.00000  Uiso   1.00
O677   O     0.83333   0.77226   0.46176   0.00000  Uiso   1.00
O678   O     0.83334   0.89441   0.53824   0.00000  Uiso   1.00
O679   O     0.75725   0.83333   0.52928   0.00000  Uiso   1.00
O680   O     0.90942   0.83334   0.47072   0.00000  Uiso   1.00
O681   O     0.75725   0.83334   0.45284   0.00000  Uiso   1.00
O682   O     0.90942   0.83333   0.54716   0.00000  Uiso   1.00
Zn683  Zn    0.83333   0.83333   0.55104   0.00000  Uiso   1.00
Zn684  Zn    0.83333   0.83334   0.44896   0.00000  Uiso   1.00
C685   C     0.16746   0.08694   0.83330   0.00000  Uiso   1.00
C686   C     0.20597   0.02253   0.86250   0.00000  Uiso   1.00
C687   C     0.16541   0.29057   0.83328   0.00000  Uiso   1.00
C688   C     0.16792   0.04277   0.83339   0.00000  Uiso   1.00
C689   C     0.19936   0.19379   0.69510   0.00000  Uiso   1.00
C690   C     0.13398   0.13954   0.97157   0.00000  Uiso   1.00
C691   C     0.19921   0.19378   0.98084   0.00000  Uiso   1.00
C692   C     0.13413   0.13956   0.68583   0.00000  Uiso   1.00
C693   C     0.16587   0.24639   0.83336   0.00000  Uiso   1.00
C694   C     0.06724   0.16465   0.82186   0.00000  Uiso   1.00
C695   C     0.26609   0.16868   0.84481   0.00000  Uiso   1.00
C696   C     0.01251   0.15630   0.81880   0.00000  Uiso   1.00
C697   C     0.32082   0.17703   0.84787   0.00000  Uiso   1.00
C698   C     0.12864   0.02055   0.80485   0.00000  Uiso   1.00
C699   C     0.20470   0.31278   0.86181   0.00000  Uiso   1.00
C700   C     0.12737   0.31081   0.80416   0.00000  Uiso   1.00
H701   H     0.09825   0.03660   0.78404   0.00000  Uiso   1.00
H702   H     0.23508   0.29673   0.88262   0.00000  Uiso   1.00
I703   I     0.31577   0.09800   0.78697   0.00000  Uiso   1.00
I704   I     0.01756   0.23533   0.87970   0.00000  Uiso   1.00
I705   I     0.06666   0.27916   0.75934   0.00000  Uiso   1.00
I706   I     0.26668   0.05418   0.90733   0.00000  Uiso   1.00
I707   I     0.25151   0.23672   0.73671   0.00000  Uiso   1.00
I708   I     0.08182   0.09661   0.92996   0.00000  Uiso   1.00
I709   I     0.25046   0.23706   0.95470   0.00000  Uiso   1.00
I710   I     0.08287   0.09627   0.71196   0.00000  Uiso   1.00
N711   N     0.16665   0.16666   0.95240   0.00000  Uiso   1.00
N712   N     0.16668   0.16668   0.71427   0.00000  Uiso   1.00
O713   O     0.16666   0.10558   0.87154   0.00000  Uiso   1.00
O714   O     0.16667   0.22775   0.79513   0.00000  Uiso   1.00
O715   O     0.16666   0.10559   0.79510   0.00000  Uiso   1.00
O716   O     0.16667   0.22774   0.87157   0.00000  Uiso   1.00
O717   O     0.09058   0.16666   0.86261   0.00000  Uiso   1.00
O718   O     0.24275   0.16667   0.80405   0.00000  Uiso   1.00
O719   O     0.09058   0.16667   0.78617   0.00000  Uiso   1.00
O720   O     0.24275   0.16666   0.88050   0.00000  Uiso   1.00
Zn721  Zn    0.16667   0.16666   0.88437   0.00000  Uiso   1.00
Zn722  Zn    0.16667   0.16667   0.78229   0.00000  Uiso   1.00
C723   C     0.50080   0.08694   0.83330   0.00000  Uiso   1.00
C724   C     0.53930   0.02253   0.86250   0.00000  Uiso   1.00
C725   C     0.49875   0.29057   0.83328   0.00000  Uiso   1.00
C726   C     0.50125   0.04277   0.83339   0.00000  Uiso   1.00
C727   C     0.53269   0.19379   0.69510   0.00000  Uiso   1.00
C728   C     0.46731   0.13954   0.97157   0.00000  Uiso   1.00
C729   C     0.53254   0.19378   0.98084   0.00000  Uiso   1.00
C730   C     0.46746   0.13956   0.68583   0.00000  Uiso   1.00
C731   C     0.49920   0.24639   0.83336   0.00000  Uiso   1.00
C732   C     0.40058   0.16465   0.82186   0.00000  Uiso   1.00
C733   C     0.59942   0.16868   0.84481   0.00000  Uiso   1.00
C734   C     0.34584   0.15630   0.81880   0.00000  Uiso   1.00
C735   C     0.65415   0.17703   0.84787   0.00000  Uiso   1.00
C736   C     0.46197   0.02055   0.80485   0.00000  Uiso   1.00
C737   C     0.53803   0.31278   0.86181   0.00000  Uiso   1.00
C738   C     0.46070   0.31081   0.80416   0.00000  Uiso   1.00
H739   H     0.43159   0.03660   0.78404   0.00000  Uiso   1.00
H740   H     0.56841   0.29673   0.88262   0.00000  Uiso   1.00
I741   I     0.64911   0.09800   0.78697   0.00000  Uiso   1.00
I742   I     0.35089   0.23533   0.87970   0.00000  Uiso   1.00
I743   I     0.39999   0.27916   0.75934   0.00000  Uiso   1.00
I744   I     0.60001   0.05418   0.90733   0.00000  Uiso   1.00
I745   I     0.58484   0.23672   0.73671   0.00000  Uiso   1.00
I746   I     0.41515   0.09661   0.92996   0.00000  Uiso   1.00
I747   I     0.58380   0.23706   0.95470   0.00000  Uiso   1.00
I748   I     0.41620   0.09627   0.71196   0.00000  Uiso   1.00
N749   N     0.49999   0.16666   0.95240   0.00000  Uiso   1.00
N750   N     0.50001   0.16668   0.71427   0.00000  Uiso   1.00
O751   O     0.50000   0.10558   0.87154   0.00000  Uiso   1.00
O752   O     0.50000   0.22775   0.79513   0.00000  Uiso   1.00
O753   O     0.50000   0.10559   0.79510   0.00000  Uiso   1.00
O754   O     0.50000   0.22774   0.87157   0.00000  Uiso   1.00
O755   O     0.42392   0.16666   0.86261   0.00000  Uiso   1.00
O756   O     0.57608   0.16667   0.80405   0.00000  Uiso   1.00
O757   O     0.42392   0.16667   0.78617   0.00000  Uiso   1.00
O758   O     0.57608   0.16666   0.88050   0.00000  Uiso   1.00
Zn759  Zn    0.50000   0.16666   0.88437   0.00000  Uiso   1.00
Zn760  Zn    0.50000   0.16667   0.78229   0.00000  Uiso   1.00
C761   C     0.83413   0.08694   0.83330   0.00000  Uiso   1.00
C762   C     0.87263   0.02253   0.86250   0.00000  Uiso   1.00
C763   C     0.83208   0.29057   0.83328   0.00000  Uiso   1.00
C764   C     0.83459   0.04277   0.83339   0.00000  Uiso   1.00
C765   C     0.86602   0.19379   0.69510   0.00000  Uiso   1.00
C766   C     0.80064   0.13954   0.97157   0.00000  Uiso   1.00
C767   C     0.86587   0.19378   0.98084   0.00000  Uiso   1.00
C768   C     0.80079   0.13956   0.68583   0.00000  Uiso   1.00
C769   C     0.83254   0.24639   0.83336   0.00000  Uiso   1.00
C770   C     0.73391   0.16465   0.82186   0.00000  Uiso   1.00
C771   C     0.93276   0.16868   0.84481   0.00000  Uiso   1.00
C772   C     0.67918   0.15630   0.81880   0.00000  Uiso   1.00
C773   C     0.98749   0.17703   0.84787   0.00000  Uiso   1.00
C774   C     0.79530   0.02055   0.80485   0.00000  Uiso   1.00
C775   C     0.87136   0.31278   0.86181   0.00000  Uiso   1.00
C776   C     0.79403   0.31081   0.80416   0.00000  Uiso   1.00
H777   H     0.76492   0.03660   0.78404   0.00000  Uiso   1.00
H778   H     0.90174   0.29673   0.88262   0.00000  Uiso   1.00
I779   I     0.98244   0.09800   0.78697   0.00000  Uiso   1.00
I780   I     0.68422   0.23533   0.87970   0.00000  Uiso   1.00
I781   I     0.73332   0.27916   0.75934   0.00000  Uiso   1.00
I782   I     0.93334   0.05418   0.90733   0.00000  Uiso   1.00
I783   I     0.91818   0.23672   0.73671   0.00000  Uiso   1.00
I784   I     0.74849   0.09661   0.92996   0.00000  Uiso   1.00
I785   I     0.91713   0.23706   0.95470   0.00000  Uiso   1.00
I786   I     0.74954   0.09627   0.71196   0.00000  Uiso   1.00
N787   N     0.83332   0.16666   0.95240   0.00000  Uiso   1.00
N788   N     0.83335   0.16668   0.71427   0.00000  Uiso   1.00
O789   O     0.83333   0.10558   0.87154   0.00000  Uiso   1.00
O790   O     0.83334   0.22775   0.79513   0.00000  Uiso   1.00
O791   O     0.83333   0.10559   0.79510   0.00000  Uiso   1.00
O792   O     0.83334   0.22774   0.87157   0.00000  Uiso   1.00
O793   O     0.75725   0.16666   0.86261   0.00000  Uiso   1.00
O794   O     0.90942   0.16667   0.80405   0.00000  Uiso   1.00
O795   O     0.75725   0.16667   0.78617   0.00000  Uiso   1.00
O796   O     0.90942   0.16666   0.88050   0.00000  Uiso   1.00
Zn797  Zn    0.83333   0.16666   0.88437   0.00000  Uiso   1.00
Zn798  Zn    0.83333   0.16667   0.78229   0.00000  Uiso   1.00
C799   C     0.16746   0.42027   0.83330   0.00000  Uiso   1.00
C800   C     0.20597   0.35586   0.86250   0.00000  Uiso   1.00
C801   C     0.16541   0.62390   0.83328   0.00000  Uiso   1.00
C802   C     0.16792   0.37610   0.83339   0.00000  Uiso   1.00
C803   C     0.19936   0.52713   0.69510   0.00000  Uiso   1.00
C804   C     0.13398   0.47287   0.97157   0.00000  Uiso   1.00
C805   C     0.19921   0.52711   0.98084   0.00000  Uiso   1.00
C806   C     0.13413   0.47289   0.68583   0.00000  Uiso   1.00
C807   C     0.16587   0.57972   0.83336   0.00000  Uiso   1.00
C808   C     0.06724   0.49799   0.82186   0.00000  Uiso   1.00
C809   C     0.26609   0.50201   0.84481   0.00000  Uiso   1.00
C810   C     0.01251   0.48963   0.81880   0.00000  Uiso   1.00
C811   C     0.32082   0.51037   0.84787   0.00000  Uiso   1.00
C812   C     0.12864   0.35388   0.80485   0.00000  Uiso   1.00
C813   C     0.20470   0.64612   0.86181   0.00000  Uiso   1.00
C814   C     0.12737   0.64414   0.80416   0.00000  Uiso   1.00
H815   H     0.09825   0.36993   0.78404   0.00000  Uiso   1.00
H816   H     0.23508   0.63007   0.88262   0.00000  Uiso   1.00
I817   I     0.31577   0.43133   0.78697   0.00000  Uiso   1.00
I818   I     0.01756   0.56867   0.87970   0.00000  Uiso   1.00
I819   I     0.06666   0.61249   0.75934   0.00000  Uiso   1.00
I820   I     0.26668   0.38751   0.90733   0.00000  Uiso   1.00
I821   I     0.25151   0.57006   0.73671   0.00000  Uiso   1.00
I822   I     0.08182   0.42994   0.92996   0.00000  Uiso   1.00
I823   I     0.25046   0.57040   0.95470   0.00000  Uiso   1.00
I824   I     0.08287   0.42960   0.71196   0.00000  Uiso   1.00
N825   N     0.16665   0.49999   0.95240   0.00000  Uiso   1.00
N826   N     0.16668   0.50001   0.71427   0.00000  Uiso   1.00
O827   O     0.16666   0.43892   0.87154   0.00000  Uiso   1.00
O828   O     0.16667   0.56108   0.79513   0.00000  Uiso   1.00
O829   O     0.16666   0.43893   0.79510   0.00000  Uiso   1.00
O830   O     0.16667   0.56107   0.87157   0.00000  Uiso   1.00
O831   O     0.09058   0.50000   0.86261   0.00000  Uiso   1.00
O832   O     0.24275   0.50000   0.80405   0.00000  Uiso   1.00
O833   O     0.09058   0.50000   0.78617   0.00000  Uiso   1.00
O834   O     0.24275   0.50000   0.88050   0.00000  Uiso   1.00
Zn835  Zn    0.16667   0.49999   0.88437   0.00000  Uiso   1.00
Zn836  Zn    0.16667   0.50001   0.78229   0.00000  Uiso   1.00
C837   C     0.50080   0.42027   0.83330   0.00000  Uiso   1.00
C838   C     0.53930   0.35586   0.86250   0.00000  Uiso   1.00
C839   C     0.49875   0.62390   0.83328   0.00000  Uiso   1.00
C840   C     0.50125   0.37610   0.83339   0.00000  Uiso   1.00
C841   C     0.53269   0.52713   0.69510   0.00000  Uiso   1.00
C842   C     0.46731   0.47287   0.97157   0.00000  Uiso   1.00
C843   C     0.53254   0.52711   0.98084   0.00000  Uiso   1.00
C844   C     0.46746   0.47289   0.68583   0.00000  Uiso   1.00
C845   C     0.49920   0.57972   0.83336   0.00000  Uiso   1.00
C846   C     0.40058   0.49799   0.82186   0.00000  Uiso   1.00
C847   C     0.59942   0.50201   0.84481   0.00000  Uiso   1.00
C848   C     0.34584   0.48963   0.81880   0.00000  Uiso   1.00
C849   C     0.65415   0.51037   0.84787   0.00000  Uiso   1.00
C850   C     0.46197   0.35388   0.80485   0.00000  Uiso   1.00
C851   C     0.53803   0.64612   0.86181   0.00000  Uiso   1.00
C852   C     0.46070   0.64414   0.80416   0.00000  Uiso   1.00
H853   H     0.43159   0.36993   0.78404   0.00000  Uiso   1.00
H854   H     0.56841   0.63007   0.88262   0.00000  Uiso   1.00
I855   I     0.64911   0.43133   0.78697   0.00000  Uiso   1.00
I856   I     0.35089   0.56867   0.87970   0.00000  Uiso   1.00
I857   I     0.39999   0.61249   0.75934   0.00000  Uiso   1.00
I858   I     0.60001   0.38751   0.90733   0.00000  Uiso   1.00
I859   I     0.58484   0.57006   0.73671   0.00000  Uiso   1.00
I860   I     0.41515   0.42994   0.92996   0.00000  Uiso   1.00
I861   I     0.58380   0.57040   0.95470   0.00000  Uiso   1.00
I862   I     0.41620   0.42960   0.71196   0.00000  Uiso   1.00
N863   N     0.49999   0.49999   0.95240   0.00000  Uiso   1.00
N864   N     0.50001   0.50001   0.71427   0.00000  Uiso   1.00
O865   O     0.50000   0.43892   0.87154   0.00000  Uiso   1.00
O866   O     0.50000   0.56108   0.79513   0.00000  Uiso   1.00
O867   O     0.50000   0.43893   0.79510   0.00000  Uiso   1.00
O868   O     0.50000   0.56107   0.87157   0.00000  Uiso   1.00
O869   O     0.42392   0.50000   0.86261   0.00000  Uiso   1.00
O870   O     0.57608   0.50000   0.80405   0.00000  Uiso   1.00
O871   O     0.42392   0.50000   0.78617   0.00000  Uiso   1.00
O872   O     0.57608   0.50000   0.88050   0.00000  Uiso   1.00
Zn873  Zn    0.50000   0.49999   0.88437   0.00000  Uiso   1.00
Zn874  Zn    0.50000   0.50001   0.78229   0.00000  Uiso   1.00
C875   C     0.83413   0.42027   0.83330   0.00000  Uiso   1.00
C876   C     0.87263   0.35586   0.86250   0.00000  Uiso   1.00
C877   C     0.83208   0.62390   0.83328   0.00000  Uiso   1.00
C878   C     0.83459   0.37610   0.83339   0.00000  Uiso   1.00
C879   C     0.86602   0.52713   0.69510   0.00000  Uiso   1.00
C880   C     0.80064   0.47287   0.97157   0.00000  Uiso   1.00
C881   C     0.86587   0.52711   0.98084   0.00000  Uiso   1.00
C882   C     0.80079   0.47289   0.68583   0.00000  Uiso   1.00
C883   C     0.83254   0.57972   0.83336   0.00000  Uiso   1.00
C884   C     0.73391   0.49799   0.82186   0.00000  Uiso   1.00
C885   C     0.93276   0.50201   0.84481   0.00000  Uiso   1.00
C886   C     0.67918   0.48963   0.81880   0.00000  Uiso   1.00
C887   C     0.98749   0.51037   0.84787   0.00000  Uiso   1.00
C888   C     0.79530   0.35388   0.80485   0.00000  Uiso   1.00
C889   C     0.87136   0.64612   0.86181   0.00000  Uiso   1.00
C890   C     0.79403   0.64414   0.80416   0.00000  Uiso   1.00
H891   H     0.76492   0.36993   0.78404   0.00000  Uiso   1.00
H892   H     0.90174   0.63007   0.88262   0.00000  Uiso   1.00
I893   I     0.98244   0.43133   0.78697   0.00000  Uiso   1.00
I894   I     0.68422   0.56867   0.87970   0.00000  Uiso   1.00
I895   I     0.73332   0.61249   0.75934   0.00000  Uiso   1.00
I896   I     0.93334   0.38751   0.90733   0.00000  Uiso   1.00
I897   I     0.91818   0.57006   0.73671   0.00000  Uiso   1.00
I898   I     0.74849   0.42994   0.92996   0.00000  Uiso   1.00
I899   I     0.91713   0.57040   0.95470   0.00000  Uiso   1.00
I900   I     0.74954   0.42960   0.71196   0.00000  Uiso   1.00
N901   N     0.83332   0.49999   0.95240   0.00000  Uiso   1.00
N902   N     0.83335   0.50001   0.71427   0.00000  Uiso   1.00
O903   O     0.83333   0.43892   0.87154   0.00000  Uiso   1.00
O904   O     0.83334   0.56108   0.79513   0.00000  Uiso   1.00
O905   O     0.83333   0.43893   0.79510   0.00000  Uiso   1.00
O906   O     0.83334   0.56107   0.87157   0.00000  Uiso   1.00
O907   O     0.75725   0.50000   0.86261   0.00000  Uiso   1.00
O908   O     0.90942   0.50000   0.80405   0.00000  Uiso   1.00
O909   O     0.75725   0.50000   0.78617   0.00000  Uiso   1.00
O910   O     0.90942   0.50000   0.88050   0.00000  Uiso   1.00
Zn911  Zn    0.83333   0.49999   0.88437   0.00000  Uiso   1.00
Zn912  Zn    0.83333   0.50001   0.78229   0.00000  Uiso   1.00
C913   C     0.16746   0.75361   0.83330   0.00000  Uiso   1.00
C914   C     0.20597   0.68919   0.86250   0.00000  Uiso   1.00
C915   C     0.16541   0.95723   0.83328   0.00000  Uiso   1.00
C916   C     0.16792   0.70943   0.83339   0.00000  Uiso   1.00
C917   C     0.19936   0.86046   0.69510   0.00000  Uiso   1.00
C918   C     0.13398   0.80620   0.97157   0.00000  Uiso   1.00
C919   C     0.19921   0.86044   0.98084   0.00000  Uiso   1.00
C920   C     0.13413   0.80622   0.68583   0.00000  Uiso   1.00
C921   C     0.16587   0.91306   0.83336   0.00000  Uiso   1.00
C922   C     0.06724   0.83132   0.82186   0.00000  Uiso   1.00
C923   C     0.26609   0.83535   0.84481   0.00000  Uiso   1.00
C924   C     0.01251   0.82297   0.81880   0.00000  Uiso   1.00
C925   C     0.32082   0.84370   0.84787   0.00000  Uiso   1.00
C926   C     0.12864   0.68722   0.80485   0.00000  Uiso   1.00
C927   C     0.20470   0.97945   0.86181   0.00000  Uiso   1.00
C928   C     0.12737   0.97747   0.80416   0.00000  Uiso   1.00
H929   H     0.09825   0.70327   0.78404   0.00000  Uiso   1.00
H930   H     0.23508   0.96340   0.88262   0.00000  Uiso   1.00
I931   I     0.31577   0.76467   0.78697   0.00000  Uiso   1.00
I932   I     0.01756   0.90200   0.87970   0.00000  Uiso   1.00
I933   I     0.06666   0.94582   0.75934   0.00000  Uiso   1.00
I934   I     0.26668   0.72084   0.90733   0.00000  Uiso   1.00
I935   I     0.25151   0.90339   0.73671   0.00000  Uiso   1.00
I936   I     0.08182   0.76328   0.92996   0.00000  Uiso   1.00
I937   I     0.25046   0.90373   0.95470   0.00000  Uiso   1.00
I938   I     0.08287   0.76293   0.71196   0.00000  Uiso   1.00
N939   N     0.16665   0.83332   0.95240   0.00000  Uiso   1.00
N940   N     0.16668   0.83334   0.71427   0.00000  Uiso   1.00
O941   O     0.16666   0.77225   0.87154   0.00000  Uiso   1.00
O942   O     0.16667   0.89442   0.79513   0.00000  Uiso   1.00
O943   O     0.16666   0.77226   0.79510   0.00000  Uiso   1.00
O944   O     0.16667   0.89441   0.87157   0.00000  Uiso   1.00
O945   O     0.09058   0.83333   0.86261   0.00000  Uiso   1.00
O946   O     0.24275   0.83334   0.80405   0.00000  Uiso   1.00
O947   O     0.09058   0.83334   0.78617   0.00000  Uiso   1.00
O948   O     0.24275   0.83333   0.88050   0.00000  Uiso   1.00
Zn949  Zn    0.16667   0.83333   0.88437   0.00000  Uiso   1.00
Zn950  Zn    0.16667   0.83334   0.78229   0.00000  Uiso   1.00
C951   C     0.50080   0.75361   0.83330   0.00000  Uiso   1.00
C952   C     0.53930   0.68919   0.86250   0.00000  Uiso   1.00
C953   C     0.49875   0.95723   0.83328   0.00000  Uiso   1.00
C954   C     0.50125   0.70943   0.83339   0.00000  Uiso   1.00
C955   C     0.53269   0.86046   0.69510   0.00000  Uiso   1.00
C956   C     0.46731   0.80620   0.97157   0.00000  Uiso   1.00
C957   C     0.53254   0.86044   0.98084   0.00000  Uiso   1.00
C958   C     0.46746   0.80622   0.68583   0.00000  Uiso   1.00
C959   C     0.49920   0.91306   0.83336   0.00000  Uiso   1.00
C960   C     0.40058   0.83132   0.82186   0.00000  Uiso   1.00
C961   C     0.59942   0.83535   0.84481   0.00000  Uiso   1.00
C962   C     0.34584   0.82297   0.81880   0.00000  Uiso   1.00
C963   C     0.65415   0.84370   0.84787   0.00000  Uiso   1.00
C964   C     0.46197   0.68722   0.80485   0.00000  Uiso   1.00
C965   C     0.53803   0.97945   0.86181   0.00000  Uiso   1.00
C966   C     0.46070   0.97747   0.80416   0.00000  Uiso   1.00
H967   H     0.43159   0.70327   0.78404   0.00000  Uiso   1.00
H968   H     0.56841   0.96340   0.88262   0.00000  Uiso   1.00
I969   I     0.64911   0.76467   0.78697   0.00000  Uiso   1.00
I970   I     0.35089   0.90200   0.87970   0.00000  Uiso   1.00
I971   I     0.39999   0.94582   0.75934   0.00000  Uiso   1.00
I972   I     0.60001   0.72084   0.90733   0.00000  Uiso   1.00
I973   I     0.58484   0.90339   0.73671   0.00000  Uiso   1.00
I974   I     0.41515   0.76328   0.92996   0.00000  Uiso   1.00
I975   I     0.58380   0.90373   0.95470   0.00000  Uiso   1.00
I976   I     0.41620   0.76293   0.71196   0.00000  Uiso   1.00
N977   N     0.49999   0.83332   0.95240   0.00000  Uiso   1.00
N978   N     0.50001   0.83334   0.71427   0.00000  Uiso   1.00
O979   O     0.50000   0.77225   0.87154   0.00000  Uiso   1.00
O980   O     0.50000   0.89442   0.79513   0.00000  Uiso   1.00
O981   O     0.50000   0.77226   0.79510   0.00000  Uiso   1.00
O982   O     0.50000   0.89441   0.87157   0.00000  Uiso   1.00
O983   O     0.42392   0.83333   0.86261   0.00000  Uiso   1.00
O984   O     0.57608   0.83334   0.80405   0.00000  Uiso   1.00
O985   O     0.42392   0.83334   0.78617   0.00000  Uiso   1.00
O986   O     0.57608   0.83333   0.88050   0.00000  Uiso   1.00
Zn987  Zn    0.50000   0.83333   0.88437   0.00000  Uiso   1.00
Zn988  Zn    0.50000   0.83334   0.78229   0.00000  Uiso   1.00
C989   C     0.83413   0.75361   0.83330   0.00000  Uiso   1.00
C990   C     0.87263   0.68919   0.86250   0.00000  Uiso   1.00
C991   C     0.83208   0.95723   0.83328   0.00000  Uiso   1.00
C992   C     0.83459   0.70943   0.83339   0.00000  Uiso   1.00
C993   C     0.86602   0.86046   0.69510   0.00000  Uiso   1.00
C994   C     0.80064   0.80620   0.97157   0.00000  Uiso   1.00
C995   C     0.86587   0.86044   0.98084   0.00000  Uiso   1.00
C996   C     0.80079   0.80622   0.68583   0.00000  Uiso   1.00
C997   C     0.83254   0.91306   0.83336   0.00000  Uiso   1.00
C998   C     0.73391   0.83132   0.82186   0.00000  Uiso   1.00
C999   C     0.93276   0.83535   0.84481   0.00000  Uiso   1.00
C1000  C     0.67918   0.82297   0.81880   0.00000  Uiso   1.00
C1001  C     0.98749   0.84370   0.84787   0.00000  Uiso   1.00
C1002  C     0.79530   0.68722   0.80485   0.00000  Uiso   1.00
C1003  C     0.87136   0.97945   0.86181   0.00000  Uiso   1.00
C1004  C     0.79403   0.97747   0.80416   0.00000  Uiso   1.00
H1005  H     0.76492   0.70327   0.78404   0.00000  Uiso   1.00
H1006  H     0.90174   0.96340   0.88262   0.00000  Uiso   1.00
I1007  I     0.98244   0.76467   0.78697   0.00000  Uiso   1.00
I1008  I     0.68422   0.90200   0.87970   0.00000  Uiso   1.00
I1009  I     0.73332   0.94582   0.75934   0.00000  Uiso   1.00
I1010  I     0.93334   0.72084   0.90733   0.00000  Uiso   1.00
I1011  I     0.91818   0.90339   0.73671   0.00000  Uiso   1.00
I1012  I     0.74849   0.76328   0.92996   0.00000  Uiso   1.00
I1013  I     0.91713   0.90373   0.95470   0.00000  Uiso   1.00
I1014  I     0.74954   0.76293   0.71196   0.00000  Uiso   1.00
N1015  N     0.83332   0.83332   0.95240   0.00000  Uiso   1.00
N1016  N     0.83335   0.83334   0.71427   0.00000  Uiso   1.00
O1017  O     0.83333   0.77225   0.87154   0.00000  Uiso   1.00
O1018  O     0.83334   0.89442   0.79513   0.00000  Uiso   1.00
O1019  O     0.83333   0.77226   0.79510   0.00000  Uiso   1.00
O1020  O     0.83334   0.89441   0.87157   0.00000  Uiso   1.00
O1021  O     0.75725   0.83333   0.86261   0.00000  Uiso   1.00
O1022  O     0.90942   0.83334   0.80405   0.00000  Uiso   1.00
O1023  O     0.75725   0.83334   0.78617   0.00000  Uiso   1.00
O1024  O     0.90942   0.83333   0.88050   0.00000  Uiso   1.00
Zn1025 Zn    0.83333   0.83333   0.88437   0.00000  Uiso   1.00
Zn1026 Zn    0.83333   0.83334   0.78229   0.00000  Uiso   1.00
loop_
_geom_bond_atom_site_label_1
_geom_bond_atom_site_label_2
_geom_bond_distance
_geom_bond_site_symmetry_2
_ccdc_geom_bond_type
C1     C4      1.410   .     S
C1     O29     1.292   .     A
C1     O31     1.298   .     A
C2     I22     2.123   .     S
C2     C4      1.400   .     A
C2     C243    1.373   1_545 S
C3     C9      1.410   .     S
C3     C15     1.392   .     A
C3     C16     1.400   .     A
C4     C14     1.392   .     A
C5     N28     1.373   .     A
C5     I23     2.137   .     S
C5     C691    1.431   1_554 S
C6     N27     1.373   .     A
C6     I24     2.137   .     S
C6     C350    1.431   .     S
C7     N27     1.378   .     A
C7     I25     2.109   .     S
C7     C347    1.431   .     S
C8     I26     2.109   .     S
C8     N28     1.378   .     A
C8     C690    1.431   1_554 S
C9     O30     1.291   .     A
C9     O32     1.298   .     A
C10    O35     1.306   .     A
C10    C12     1.414   .     S
C10    O33     1.284   .     A
C11    C13     1.414   .     S
C11    O36     1.306   .     A
C11    O34     1.284   .     A
C12    C89     1.343   1_455 S
C12    I95     2.145   1_455 S
C13    C50     1.343   .     S
C13    I58     2.145   .     S
C14    H17     1.079   .     S
C14    C244    1.373   1_545 S
C15    H18     1.079   .     S
C15    C116    1.373   .     S
C16    I21     2.123   .     S
C16    C128    1.373   .     S
I19    C50     2.145   .     S
I20    C89     2.145   1_455 S
N27    Zn37    2.046   .     S
N28    Zn38    2.046   .     S
O29    Zn37    1.982   .     S
O30    Zn38    1.982   .     S
O31    Zn38    1.990   .     S
O32    Zn37    1.990   .     S
O33    Zn37    1.974   .     S
O34    Zn38    1.974   .     S
O35    Zn38    1.981   .     S
O36    Zn37    1.981   .     S
C39    C42     1.410   .     S
C39    O67     1.292   .     A
C39    O69     1.298   .     A
C40    I60     2.123   .     S
C40    C42     1.400   .     A
C40    C281    1.373   1_545 S
C41    C47     1.410   .     S
C41    C53     1.392   .     A
C41    C54     1.400   .     A
C42    C52     1.392   .     A
C43    N66     1.373   .     A
C43    I61     2.137   .     S
C43    C729    1.431   1_554 S
C44    N65     1.373   .     A
C44    I62     2.137   .     S
C44    C388    1.431   .     S
C45    N65     1.378   .     A
C45    I63     2.109   .     S
C45    C385    1.431   .     S
C46    I64     2.109   .     S
C46    N66     1.378   .     A
C46    C728    1.431   1_554 S
C47    O68     1.291   .     A
C47    O70     1.298   .     A
C48    O73     1.306   .     A
C48    C50     1.414   .     S
C48    O71     1.284   .     A
C49    C51     1.414   .     S
C49    O74     1.306   .     A
C49    O72     1.284   .     A
C51    C88     1.343   .     S
C51    I96     2.145   .     S
C52    H55     1.079   .     S
C52    C282    1.373   1_545 S
C53    H56     1.079   .     S
C53    C154    1.373   .     S
C54    I59     2.123   .     S
C54    C166    1.373   .     S
I57    C88     2.145   .     S
N65    Zn75    2.046   .     S
N66    Zn76    2.046   .     S
O67    Zn75    1.982   .     S
O68    Zn76    1.982   .     S
O69    Zn76    1.990   .     S
O70    Zn75    1.990   .     S
O71    Zn75    1.974   .     S
O72    Zn76    1.974   .     S
O73    Zn76    1.981   .     S
O74    Zn75    1.981   .     S
C77    C80     1.410   .     S
C77    O105    1.292   .     A
C77    O107    1.298   .     A
C78    I98     2.123   .     S
C78    C80     1.400   .     A
C78    C319    1.373   1_545 S
C79    C85     1.410   .     S
C79    C91     1.392   .     A
C79    C92     1.400   .     A
C80    C90     1.392   .     A
C81    N104    1.373   .     A
C81    I99     2.137   .     S
C81    C767    1.431   1_554 S
C82    N103    1.373   .     A
C82    I100    2.137   .     S
C82    C426    1.431   .     S
C83    N103    1.378   .     A
C83    I101    2.109   .     S
C83    C423    1.431   .     S
C84    I102    2.109   .     S
C84    N104    1.378   .     A
C84    C766    1.431   1_554 S
C85    O106    1.291   .     A
C85    O108    1.298   .     A
C86    O111    1.306   .     A
C86    C88     1.414   .     S
C86    O109    1.284   .     A
C87    C89     1.414   .     S
C87    O112    1.306   .     A
C87    O110    1.284   .     A
C89    C12     1.343   1_655 S
C89    I20     2.145   1_655 S
C90    H93     1.079   .     S
C90    C320    1.373   1_545 S
C91    H94     1.079   .     S
C91    C192    1.373   .     S
C92    I97     2.123   .     S
C92    C204    1.373   .     S
I95    C12     2.145   1_655 S
N103   Zn113   2.046   .     S
N104   Zn114   2.046   .     S
O105   Zn113   1.982   .     S
O106   Zn114   1.982   .     S
O107   Zn114   1.990   .     S
O108   Zn113   1.990   .     S
O109   Zn113   1.974   .     S
O110   Zn114   1.974   .     S
O111   Zn114   1.981   .     S
O112   Zn113   1.981   .     S
C115   C118    1.410   .     S
C115   O143    1.292   .     A
C115   O145    1.298   .     A
C116   I136    2.123   .     S
C116   C118    1.400   .     A
C117   C123    1.410   .     S
C117   C129    1.392   .     A
C117   C130    1.400   .     A
C118   C128    1.392   .     A
C119   N142    1.373   .     A
C119   I137    2.137   .     S
C119   C805    1.431   1_554 S
C120   N141    1.373   .     A
C120   I138    2.137   .     S
C120   C464    1.431   .     S
C121   N141    1.378   .     A
C121   I139    2.109   .     S
C121   C461    1.431   .     S
C122   I140    2.109   .     S
C122   N142    1.378   .     A
C122   C804    1.431   1_554 S
C123   O144    1.291   .     A
C123   O146    1.298   .     A
C124   O149    1.306   .     A
C124   C126    1.414   .     S
C124   O147    1.284   .     A
C125   C127    1.414   .     S
C125   O150    1.306   .     A
C125   O148    1.284   .     A
C126   C203    1.343   1_455 S
C126   I209    2.145   1_455 S
C127   C164    1.343   .     S
C127   I172    2.145   .     S
C128   H131    1.079   .     S
C129   H132    1.079   .     S
C129   C230    1.373   .     S
C130   I135    2.123   .     S
C130   C242    1.373   .     S
I133   C164    2.145   .     S
I134   C203    2.145   1_455 S
N141   Zn151   2.046   .     S
N142   Zn152   2.046   .     S
O143   Zn151   1.982   .     S
O144   Zn152   1.982   .     S
O145   Zn152   1.990   .     S
O146   Zn151   1.990   .     S
O147   Zn151   1.974   .     S
O148   Zn152   1.974   .     S
O149   Zn152   1.981   .     S
O150   Zn151   1.981   .     S
C153   C156    1.410   .     S
C153   O181    1.292   .     A
C153   O183    1.298   .     A
C154   I174    2.123   .     S
C154   C156    1.400   .     A
C155   C161    1.410   .     S
C155   C167    1.392   .     A
C155   C168    1.400   .     A
C156   C166    1.392   .     A
C157   N180    1.373   .     A
C157   I175    2.137   .     S
C157   C843    1.431   1_554 S
C158   N179    1.373   .     A
C158   I176    2.137   .     S
C158   C502    1.431   .     S
C159   N179    1.378   .     A
C159   I177    2.109   .     S
C159   C499    1.431   .     S
C160   I178    2.109   .     S
C160   N180    1.378   .     A
C160   C842    1.431   1_554 S
C161   O182    1.291   .     A
C161   O184    1.298   .     A
C162   O187    1.306   .     A
C162   C164    1.414   .     S
C162   O185    1.284   .     A
C163   C165    1.414   .     S
C163   O188    1.306   .     A
C163   O186    1.284   .     A
C165   C202    1.343   .     S
C165   I210    2.145   .     S
C166   H169    1.079   .     S
C167   H170    1.079   .     S
C167   C268    1.373   .     S
C168   I173    2.123   .     S
C168   C280    1.373   .     S
I171   C202    2.145   .     S
N179   Zn189   2.046   .     S
N180   Zn190   2.046   .     S
O181   Zn189   1.982   .     S
O182   Zn190   1.982   .     S
O183   Zn190   1.990   .     S
O184   Zn189   1.990   .     S
O185   Zn189   1.974   .     S
O186   Zn190   1.974   .     S
O187   Zn190   1.981   .     S
O188   Zn189   1.981   .     S
C191   C194    1.410   .     S
C191   O219    1.292   .     A
C191   O221    1.298   .     A
C192   I212    2.123   .     S
C192   C194    1.400   .     A
C193   C199    1.410   .     S
C193   C205    1.392   .     A
C193   C206    1.400   .     A
C194   C204    1.392   .     A
C195   N218    1.373   .     A
C195   I213    2.137   .     S
C195   C881    1.431   1_554 S
C196   N217    1.373   .     A
C196   I214    2.137   .     S
C196   C540    1.431   .     S
C197   N217    1.378   .     A
C197   I215    2.109   .     S
C197   C537    1.431   .     S
C198   I216    2.109   .     S
C198   N218    1.378   .     A
C198   C880    1.431   1_554 S
C199   O220    1.291   .     A
C199   O222    1.298   .     A
C200   O225    1.306   .     A
C200   C202    1.414   .     S
C200   O223    1.284   .     A
C201   C203    1.414   .     S
C201   O226    1.306   .     A
C201   O224    1.284   .     A
C203   C126    1.343   1_655 S
C203   I134    2.145   1_655 S
C204   H207    1.079   .     S
C205   H208    1.079   .     S
C205   C306    1.373   .     S
C206   I211    2.123   .     S
C206   C318    1.373   .     S
I209   C126    2.145   1_655 S
N217   Zn227   2.046   .     S
N218   Zn228   2.046   .     S
O219   Zn227   1.982   .     S
O220   Zn228   1.982   .     S
O221   Zn228   1.990   .     S
O222   Zn227   1.990   .     S
O223   Zn227   1.974   .     S
O224   Zn228   1.974   .     S
O225   Zn228   1.981   .     S
O226   Zn227   1.981   .     S
C229   C232    1.410   .     S
C229   O257    1.292   .     A
C229   O259    1.298   .     A
C230   I250    2.123   .     S
C230   C232    1.400   .     A
C231   C237    1.410   .     S
C231   C243    1.392   .     A
C231   C244    1.400   .     A
C232   C242    1.392   .     A
C233   N256    1.373   .     A
C233   I251    2.137   .     S
C233   C919    1.431   1_554 S
C234   N255    1.373   .     A
C234   I252    2.137   .     S
C234   C578    1.431   .     S
C235   N255    1.378   .     A
C235   I253    2.109   .     S
C235   C575    1.431   .     S
C236   I254    2.109   .     S
C236   N256    1.378   .     A
C236   C918    1.431   1_554 S
C237   O258    1.291   .     A
C237   O260    1.298   .     A
C238   O263    1.306   .     A
C238   C240    1.414   .     S
C238   O261    1.284   .     A
C239   C241    1.414   .     S
C239   O264    1.306   .     A
C239   O262    1.284   .     A
C240   C317    1.343   1_455 S
C240   I323    2.145   1_455 S
C241   C278    1.343   .     S
C241   I286    2.145   .     S
C242   H245    1.079   .     S
C243   H246    1.079   .     S
C243   C2      1.373   1_565 S
C244   I249    2.123   .     S
C244   C14     1.373   1_565 S
I247   C278    2.145   .     S
I248   C317    2.145   1_455 S
N255   Zn265   2.046   .     S
N256   Zn266   2.046   .     S
O257   Zn265   1.982   .     S
O258   Zn266   1.982   .     S
O259   Zn266   1.990   .     S
O260   Zn265   1.990   .     S
O261   Zn265   1.974   .     S
O262   Zn266   1.974   .     S
O263   Zn266   1.981   .     S
O264   Zn265   1.981   .     S
C267   C270    1.410   .     S
C267   O295    1.292   .     A
C267   O297    1.298   .     A
C268   I288    2.123   .     S
C268   C270    1.400   .     A
C269   C275    1.410   .     S
C269   C281    1.392   .     A
C269   C282    1.400   .     A
C270   C280    1.392   .     A
C271   N294    1.373   .     A
C271   I289    2.137   .     S
C271   C957    1.431   1_554 S
C272   N293    1.373   .     A
C272   I290    2.137   .     S
C272   C616    1.431   .     S
C273   N293    1.378   .     A
C273   I291    2.109   .     S
C273   C613    1.431   .     S
C274   I292    2.109   .     S
C274   N294    1.378   .     A
C274   C956    1.431   1_554 S
C275   O296    1.291   .     A
C275   O298    1.298   .     A
C276   O301    1.306   .     A
C276   C278    1.414   .     S
C276   O299    1.284   .     A
C277   C279    1.414   .     S
C277   O302    1.306   .     A
C277   O300    1.284   .     A
C279   C316    1.343   .     S
C279   I324    2.145   .     S
C280   H283    1.079   .     S
C281   H284    1.079   .     S
C281   C40     1.373   1_565 S
C282   I287    2.123   .     S
C282   C52     1.373   1_565 S
I285   C316    2.145   .     S
N293   Zn303   2.046   .     S
N294   Zn304   2.046   .     S
O295   Zn303   1.982   .     S
O296   Zn304   1.982   .     S
O297   Zn304   1.990   .     S
O298   Zn303   1.990   .     S
O299   Zn303   1.974   .     S
O300   Zn304   1.974   .     S
O301   Zn304   1.981   .     S
O302   Zn303   1.981   .     S
C305   C308    1.410   .     S
C305   O333    1.292   .     A
C305   O335    1.298   .     A
C306   I326    2.123   .     S
C306   C308    1.400   .     A
C307   C313    1.410   .     S
C307   C319    1.392   .     A
C307   C320    1.400   .     A
C308   C318    1.392   .     A
C309   N332    1.373   .     A
C309   I327    2.137   .     S
C309   C995    1.431   1_554 S
C310   N331    1.373   .     A
C310   I328    2.137   .     S
C310   C654    1.431   .     S
C311   N331    1.378   .     A
C311   I329    2.109   .     S
C311   C651    1.431   .     S
C312   I330    2.109   .     S
C312   N332    1.378   .     A
C312   C994    1.431   1_554 S
C313   O334    1.291   .     A
C313   O336    1.298   .     A
C314   O339    1.306   .     A
C314   C316    1.414   .     S
C314   O337    1.284   .     A
C315   C317    1.414   .     S
C315   O340    1.306   .     A
C315   O338    1.284   .     A
C317   C240    1.343   1_655 S
C317   I248    2.145   1_655 S
C318   H321    1.079   .     S
C319   H322    1.079   .     S
C319   C78     1.373   1_565 S
C320   I325    2.123   .     S
C320   C90     1.373   1_565 S
I323   C240    2.145   1_655 S
N331   Zn341   2.046   .     S
N332   Zn342   2.046   .     S
O333   Zn341   1.982   .     S
O334   Zn342   1.982   .     S
O335   Zn342   1.990   .     S
O336   Zn341   1.990   .     S
O337   Zn341   1.974   .     S
O338   Zn342   1.974   .     S
O339   Zn342   1.981   .     S
O340   Zn341   1.981   .     S
C343   C346    1.410   .     S
C343   O371    1.292   .     A
C343   O373    1.298   .     A
C344   I364    2.123   .     S
C344   C346    1.400   .     A
C344   C585    1.373   1_545 S
C345   C351    1.410   .     S
C345   C357    1.392   .     A
C345   C358    1.400   .     A
C346   C356    1.392   .     A
C347   N370    1.373   .     A
C347   I365    2.137   .     S
C348   N369    1.373   .     A
C348   I366    2.137   .     S
C348   C692    1.431   .     S
C349   N369    1.378   .     A
C349   I367    2.109   .     S
C349   C689    1.431   .     S
C350   I368    2.109   .     S
C350   N370    1.378   .     A
C351   O372    1.291   .     A
C351   O374    1.298   .     A
C352   O377    1.306   .     A
C352   C354    1.414   .     S
C352   O375    1.284   .     A
C353   C355    1.414   .     S
C353   O378    1.306   .     A
C353   O376    1.284   .     A
C354   C431    1.343   1_455 S
C354   I437    2.145   1_455 S
C355   C392    1.343   .     S
C355   I400    2.145   .     S
C356   H359    1.079   .     S
C356   C586    1.373   1_545 S
C357   H360    1.079   .     S
C357   C458    1.373   .     S
C358   I363    2.123   .     S
C358   C470    1.373   .     S
I361   C392    2.145   .     S
I362   C431    2.145   1_455 S
N369   Zn379   2.046   .     S
N370   Zn380   2.046   .     S
O371   Zn379   1.982   .     S
O372   Zn380   1.982   .     S
O373   Zn380   1.990   .     S
O374   Zn379   1.990   .     S
O375   Zn379   1.974   .     S
O376   Zn380   1.974   .     S
O377   Zn380   1.981   .     S
O378   Zn379   1.981   .     S
C381   C384    1.410   .     S
C381   O409    1.292   .     A
C381   O411    1.298   .     A
C382   I402    2.123   .     S
C382   C384    1.400   .     A
C382   C623    1.373   1_545 S
C383   C389    1.410   .     S
C383   C395    1.392   .     A
C383   C396    1.400   .     A
C384   C394    1.392   .     A
C385   N408    1.373   .     A
C385   I403    2.137   .     S
C386   N407    1.373   .     A
C386   I404    2.137   .     S
C386   C730    1.431   .     S
C387   N407    1.378   .     A
C387   I405    2.109   .     S
C387   C727    1.431   .     S
C388   I406    2.109   .     S
C388   N408    1.378   .     A
C389   O410    1.291   .     A
C389   O412    1.298   .     A
C390   O415    1.306   .     A
C390   C392    1.414   .     S
C390   O413    1.284   .     A
C391   C393    1.414   .     S
C391   O416    1.306   .     A
C391   O414    1.284   .     A
C393   C430    1.343   .     S
C393   I438    2.145   .     S
C394   H397    1.079   .     S
C394   C624    1.373   1_545 S
C395   H398    1.079   .     S
C395   C496    1.373   .     S
C396   I401    2.123   .     S
C396   C508    1.373   .     S
I399   C430    2.145   .     S
N407   Zn417   2.046   .     S
N408   Zn418   2.046   .     S
O409   Zn417   1.982   .     S
O410   Zn418   1.982   .     S
O411   Zn418   1.990   .     S
O412   Zn417   1.990   .     S
O413   Zn417   1.974   .     S
O414   Zn418   1.974   .     S
O415   Zn418   1.981   .     S
O416   Zn417   1.981   .     S
C419   C422    1.410   .     S
C419   O447    1.292   .     A
C419   O449    1.298   .     A
C420   I440    2.123   .     S
C420   C422    1.400   .     A
C420   C661    1.373   1_545 S
C421   C427    1.410   .     S
C421   C433    1.392   .     A
C421   C434    1.400   .     A
C422   C432    1.392   .     A
C423   N446    1.373   .     A
C423   I441    2.137   .     S
C424   N445    1.373   .     A
C424   I442    2.137   .     S
C424   C768    1.431   .     S
C425   N445    1.378   .     A
C425   I443    2.109   .     S
C425   C765    1.431   .     S
C426   I444    2.109   .     S
C426   N446    1.378   .     A
C427   O448    1.291   .     A
C427   O450    1.298   .     A
C428   O453    1.306   .     A
C428   C430    1.414   .     S
C428   O451    1.284   .     A
C429   C431    1.414   .     S
C429   O454    1.306   .     A
C429   O452    1.284   .     A
C431   C354    1.343   1_655 S
C431   I362    2.145   1_655 S
C432   H435    1.079   .     S
C432   C662    1.373   1_545 S
C433   H436    1.079   .     S
C433   C534    1.373   .     S
C434   I439    2.123   .     S
C434   C546    1.373   .     S
I437   C354    2.145   1_655 S
N445   Zn455   2.046   .     S
N446   Zn456   2.046   .     S
O447   Zn455   1.982   .     S
O448   Zn456   1.982   .     S
O449   Zn456   1.990   .     S
O450   Zn455   1.990   .     S
O451   Zn455   1.974   .     S
O452   Zn456   1.974   .     S
O453   Zn456   1.981   .     S
O454   Zn455   1.981   .     S
C457   C460    1.410   .     S
C457   O485    1.292   .     A
C457   O487    1.298   .     A
C458   I478    2.123   .     S
C458   C460    1.400   .     A
C459   C465    1.410   .     S
C459   C471    1.392   .     A
C459   C472    1.400   .     A
C460   C470    1.392   .     A
C461   N484    1.373   .     A
C461   I479    2.137   .     S
C462   N483    1.373   .     A
C462   I480    2.137   .     S
C462   C806    1.431   .     S
C463   N483    1.378   .     A
C463   I481    2.109   .     S
C463   C803    1.431   .     S
C464   I482    2.109   .     S
C464   N484    1.378   .     A
C465   O486    1.291   .     A
C465   O488    1.298   .     A
C466   O491    1.306   .     A
C466   C468    1.414   .     S
C466   O489    1.284   .     A
C467   C469    1.414   .     S
C467   O492    1.306   .     A
C467   O490    1.284   .     A
C468   C545    1.343   1_455 S
C468   I551    2.145   1_455 S
C469   C506    1.343   .     S
C469   I514    2.145   .     S
C470   H473    1.079   .     S
C471   H474    1.079   .     S
C471   C572    1.373   .     S
C472   I477    2.123   .     S
C472   C584    1.373   .     S
I475   C506    2.145   .     S
I476   C545    2.145   1_455 S
N483   Zn493   2.046   .     S
N484   Zn494   2.046   .     S
O485   Zn493   1.982   .     S
O486   Zn494   1.982   .     S
O487   Zn494   1.990   .     S
O488   Zn493   1.990   .     S
O489   Zn493   1.974   .     S
O490   Zn494   1.974   .     S
O491   Zn494   1.981   .     S
O492   Zn493   1.981   .     S
C495   C498    1.410   .     S
C495   O523    1.292   .     A
C495   O525    1.298   .     A
C496   I516    2.123   .     S
C496   C498    1.400   .     A
C497   C503    1.410   .     S
C497   C509    1.392   .     A
C497   C510    1.400   .     A
C498   C508    1.392   .     A
C499   N522    1.373   .     A
C499   I517    2.137   .     S
C500   N521    1.373   .     A
C500   I518    2.137   .     S
C500   C844    1.431   .     S
C501   N521    1.378   .     A
C501   I519    2.109   .     S
C501   C841    1.431   .     S
C502   I520    2.109   .     S
C502   N522    1.378   .     A
C503   O524    1.291   .     A
C503   O526    1.298   .     A
C504   O529    1.306   .     A
C504   C506    1.414   .     S
C504   O527    1.284   .     A
C505   C507    1.414   .     S
C505   O530    1.306   .     A
C505   O528    1.284   .     A
C507   C544    1.343   .     S
C507   I552    2.145   .     S
C508   H511    1.079   .     S
C509   H512    1.079   .     S
C509   C610    1.373   .     S
C510   I515    2.123   .     S
C510   C622    1.373   .     S
I513   C544    2.145   .     S
N521   Zn531   2.046   .     S
N522   Zn532   2.046   .     S
O523   Zn531   1.982   .     S
O524   Zn532   1.982   .     S
O525   Zn532   1.990   .     S
O526   Zn531   1.990   .     S
O527   Zn531   1.974   .     S
O528   Zn532   1.974   .     S
O529   Zn532   1.981   .     S
O530   Zn531   1.981   .     S
C533   C536    1.410   .     S
C533   O561    1.292   .     A
C533   O563    1.298   .     A
C534   I554    2.123   .     S
C534   C536    1.400   .     A
C535   C541    1.410   .     S
C535   C547    1.392   .     A
C535   C548    1.400   .     A
C536   C546    1.392   .     A
C537   N560    1.373   .     A
C537   I555    2.137   .     S
C538   N559    1.373   .     A
C538   I556    2.137   .     S
C538   C882    1.431   .     S
C539   N559    1.378   .     A
C539   I557    2.109   .     S
C539   C879    1.431   .     S
C540   I558    2.109   .     S
C540   N560    1.378   .     A
C541   O562    1.291   .     A
C541   O564    1.298   .     A
C542   O567    1.306   .     A
C542   C544    1.414   .     S
C542   O565    1.284   .     A
C543   C545    1.414   .     S
C543   O568    1.306   .     A
C543   O566    1.284   .     A
C545   C468    1.343   1_655 S
C545   I476    2.145   1_655 S
C546   H549    1.079   .     S
C547   H550    1.079   .     S
C547   C648    1.373   .     S
C548   I553    2.123   .     S
C548   C660    1.373   .     S
I551   C468    2.145   1_655 S
N559   Zn569   2.046   .     S
N560   Zn570   2.046   .     S
O561   Zn569   1.982   .     S
O562   Zn570   1.982   .     S
O563   Zn570   1.990   .     S
O564   Zn569   1.990   .     S
O565   Zn569   1.974   .     S
O566   Zn570   1.974   .     S
O567   Zn570   1.981   .     S
O568   Zn569   1.981   .     S
C571   C574    1.410   .     S
C571   O599    1.292   .     A
C571   O601    1.298   .     A
C572   I592    2.123   .     S
C572   C574    1.400   .     A
C573   C579    1.410   .     S
C573   C585    1.392   .     A
C573   C586    1.400   .     A
C574   C584    1.392   .     A
C575   N598    1.373   .     A
C575   I593    2.137   .     S
C576   N597    1.373   .     A
C576   I594    2.137   .     S
C576   C920    1.431   .     S
C577   N597    1.378   .     A
C577   I595    2.109   .     S
C577   C917    1.431   .     S
C578   I596    2.109   .     S
C578   N598    1.378   .     A
C579   O600    1.291   .     A
C579   O602    1.298   .     A
C580   O605    1.306   .     A
C580   C582    1.414   .     S
C580   O603    1.284   .     A
C581   C583    1.414   .     S
C581   O606    1.306   .     A
C581   O604    1.284   .     A
C582   C659    1.343   1_455 S
C582   I665    2.145   1_455 S
C583   C620    1.343   .     S
C583   I628    2.145   .     S
C584   H587    1.079   .     S
C585   H588    1.079   .     S
C585   C344    1.373   1_565 S
C586   I591    2.123   .     S
C586   C356    1.373   1_565 S
I589   C620    2.145   .     S
I590   C659    2.145   1_455 S
N597   Zn607   2.046   .     S
N598   Zn608   2.046   .     S
O599   Zn607   1.982   .     S
O600   Zn608   1.982   .     S
O601   Zn608   1.990   .     S
O602   Zn607   1.990   .     S
O603   Zn607   1.974   .     S
O604   Zn608   1.974   .     S
O605   Zn608   1.981   .     S
O606   Zn607   1.981   .     S
C609   C612    1.410   .     S
C609   O637    1.292   .     A
C609   O639    1.298   .     A
C610   I630    2.123   .     S
C610   C612    1.400   .     A
C611   C617    1.410   .     S
C611   C623    1.392   .     A
C611   C624    1.400   .     A
C612   C622    1.392   .     A
C613   N636    1.373   .     A
C613   I631    2.137   .     S
C614   N635    1.373   .     A
C614   I632    2.137   .     S
C614   C958    1.431   .     S
C615   N635    1.378   .     A
C615   I633    2.109   .     S
C615   C955    1.431   .     S
C616   I634    2.109   .     S
C616   N636    1.378   .     A
C617   O638    1.291   .     A
C617   O640    1.298   .     A
C618   O643    1.306   .     A
C618   C620    1.414   .     S
C618   O641    1.284   .     A
C619   C621    1.414   .     S
C619   O644    1.306   .     A
C619   O642    1.284   .     A
C621   C658    1.343   .     S
C621   I666    2.145   .     S
C622   H625    1.079   .     S
C623   H626    1.079   .     S
C623   C382    1.373   1_565 S
C624   I629    2.123   .     S
C624   C394    1.373   1_565 S
I627   C658    2.145   .     S
N635   Zn645   2.046   .     S
N636   Zn646   2.046   .     S
O637   Zn645   1.982   .     S
O638   Zn646   1.982   .     S
O639   Zn646   1.990   .     S
O640   Zn645   1.990   .     S
O641   Zn645   1.974   .     S
O642   Zn646   1.974   .     S
O643   Zn646   1.981   .     S
O644   Zn645   1.981   .     S
C647   C650    1.410   .     S
C647   O675    1.292   .     A
C647   O677    1.298   .     A
C648   I668    2.123   .     S
C648   C650    1.400   .     A
C649   C655    1.410   .     S
C649   C661    1.392   .     A
C649   C662    1.400   .     A
C650   C660    1.392   .     A
C651   N674    1.373   .     A
C651   I669    2.137   .     S
C652   N673    1.373   .     A
C652   I670    2.137   .     S
C652   C996    1.431   .     S
C653   N673    1.378   .     A
C653   I671    2.109   .     S
C653   C993    1.431   .     S
C654   I672    2.109   .     S
C654   N674    1.378   .     A
C655   O676    1.291   .     A
C655   O678    1.298   .     A
C656   O681    1.306   .     A
C656   C658    1.414   .     S
C656   O679    1.284   .     A
C657   C659    1.414   .     S
C657   O682    1.306   .     A
C657   O680    1.284   .     A
C659   C582    1.343   1_655 S
C659   I590    2.145   1_655 S
C660   H663    1.079   .     S
C661   H664    1.079   .     S
C661   C420    1.373   1_565 S
C662   I667    2.123   .     S
C662   C432    1.373   1_565 S
I665   C582    2.145   1_655 S
N673   Zn683   2.046   .     S
N674   Zn684   2.046   .     S
O675   Zn683   1.982   .     S
O676   Zn684   1.982   .     S
O677   Zn684   1.990   .     S
O678   Zn683   1.990   .     S
O679   Zn683   1.974   .     S
O680   Zn684   1.974   .     S
O681   Zn684   1.981   .     S
O682   Zn683   1.981   .     S
C685   C688    1.410   .     S
C685   O713    1.292   .     A
C685   O715    1.298   .     A
C686   I706    2.123   .     S
C686   C688    1.400   .     A
C686   C927    1.373   1_545 S
C687   C693    1.410   .     S
C687   C699    1.392   .     A
C687   C700    1.400   .     A
C688   C698    1.392   .     A
C689   N712    1.373   .     A
C689   I707    2.137   .     S
C690   N711    1.373   .     A
C690   I708    2.137   .     S
C690   C8      1.431   1_556 S
C691   N711    1.378   .     A
C691   I709    2.109   .     S
C691   C5      1.431   1_556 S
C692   I710    2.109   .     S
C692   N712    1.378   .     A
C693   O714    1.291   .     A
C693   O716    1.298   .     A
C694   O719    1.306   .     A
C694   C696    1.414   .     S
C694   O717    1.284   .     A
C695   C697    1.414   .     S
C695   O720    1.306   .     A
C695   O718    1.284   .     A
C696   C773    1.343   1_455 S
C696   I779    2.145   1_455 S
C697   C734    1.343   .     S
C697   I742    2.145   .     S
C698   H701    1.079   .     S
C698   C928    1.373   1_545 S
C699   H702    1.079   .     S
C699   C800    1.373   .     S
C700   I705    2.123   .     S
C700   C812    1.373   .     S
I703   C734    2.145   .     S
I704   C773    2.145   1_455 S
N711   Zn721   2.046   .     S
N712   Zn722   2.046   .     S
O713   Zn721   1.982   .     S
O714   Zn722   1.982   .     S
O715   Zn722   1.990   .     S
O716   Zn721   1.990   .     S
O717   Zn721   1.974   .     S
O718   Zn722   1.974   .     S
O719   Zn722   1.981   .     S
O720   Zn721   1.981   .     S
C723   C726    1.410   .     S
C723   O751    1.292   .     A
C723   O753    1.298   .     A
C724   I744    2.123   .     S
C724   C726    1.400   .     A
C724   C965    1.373   1_545 S
C725   C731    1.410   .     S
C725   C737    1.392   .     A
C725   C738    1.400   .     A
C726   C736    1.392   .     A
C727   N750    1.373   .     A
C727   I745    2.137   .     S
C728   N749    1.373   .     A
C728   I746    2.137   .     S
C728   C46     1.431   1_556 S
C729   N749    1.378   .     A
C729   I747    2.109   .     S
C729   C43     1.431   1_556 S
C730   I748    2.109   .     S
C730   N750    1.378   .     A
C731   O752    1.291   .     A
C731   O754    1.298   .     A
C732   O757    1.306   .     A
C732   C734    1.414   .     S
C732   O755    1.284   .     A
C733   C735    1.414   .     S
C733   O758    1.306   .     A
C733   O756    1.284   .     A
C735   C772    1.343   .     S
C735   I780    2.145   .     S
C736   H739    1.079   .     S
C736   C966    1.373   1_545 S
C737   H740    1.079   .     S
C737   C838    1.373   .     S
C738   I743    2.123   .     S
C738   C850    1.373   .     S
I741   C772    2.145   .     S
N749   Zn759   2.046   .     S
N750   Zn760   2.046   .     S
O751   Zn759   1.982   .     S
O752   Zn760   1.982   .     S
O753   Zn760   1.990   .     S
O754   Zn759   1.990   .     S
O755   Zn759   1.974   .     S
O756   Zn760   1.974   .     S
O757   Zn760   1.981   .     S
O758   Zn759   1.981   .     S
C761   C764    1.410   .     S
C761   O789    1.292   .     A
C761   O791    1.298   .     A
C762   I782    2.123   .     S
C762   C764    1.400   .     A
C762   C1003   1.373   1_545 S
C763   C769    1.410   .     S
C763   C775    1.392   .     A
C763   C776    1.400   .     A
C764   C774    1.392   .     A
C765   N788    1.373   .     A
C765   I783    2.137   .     S
C766   N787    1.373   .     A
C766   I784    2.137   .     S
C766   C84     1.431   1_556 S
C767   N787    1.378   .     A
C767   I785    2.109   .     S
C767   C81     1.431   1_556 S
C768   I786    2.109   .     S
C768   N788    1.378   .     A
C769   O790    1.291   .     A
C769   O792    1.298   .     A
C770   O795    1.306   .     A
C770   C772    1.414   .     S
C770   O793    1.284   .     A
C771   C773    1.414   .     S
C771   O796    1.306   .     A
C771   O794    1.284   .     A
C773   C696    1.343   1_655 S
C773   I704    2.145   1_655 S
C774   H777    1.079   .     S
C774   C1004   1.373   1_545 S
C775   H778    1.079   .     S
C775   C876    1.373   .     S
C776   I781    2.123   .     S
C776   C888    1.373   .     S
I779   C696    2.145   1_655 S
N787   Zn797   2.046   .     S
N788   Zn798   2.046   .     S
O789   Zn797   1.982   .     S
O790   Zn798   1.982   .     S
O791   Zn798   1.990   .     S
O792   Zn797   1.990   .     S
O793   Zn797   1.974   .     S
O794   Zn798   1.974   .     S
O795   Zn798   1.981   .     S
O796   Zn797   1.981   .     S
C799   C802    1.410   .     S
C799   O827    1.292   .     A
C799   O829    1.298   .     A
C800   I820    2.123   .     S
C800   C802    1.400   .     A
C801   C807    1.410   .     S
C801   C813    1.392   .     A
C801   C814    1.400   .     A
C802   C812    1.392   .     A
C803   N826    1.373   .     A
C803   I821    2.137   .     S
C804   N825    1.373   .     A
C804   I822    2.137   .     S
C804   C122    1.431   1_556 S
C805   N825    1.378   .     A
C805   I823    2.109   .     S
C805   C119    1.431   1_556 S
C806   I824    2.109   .     S
C806   N826    1.378   .     A
C807   O828    1.291   .     A
C807   O830    1.298   .     A
C808   O833    1.306   .     A
C808   C810    1.414   .     S
C808   O831    1.284   .     A
C809   C811    1.414   .     S
C809   O834    1.306   .     A
C809   O832    1.284   .     A
C810   C887    1.343   1_455 S
C810   I893    2.145   1_455 S
C811   C848    1.343   .     S
C811   I856    2.145   .     S
C812   H815    1.079   .     S
C813   H816    1.079   .     S
C813   C914    1.373   .     S
C814   I819    2.123   .     S
C814   C926    1.373   .     S
I817   C848    2.145   .     S
I818   C887    2.145   1_455 S
N825   Zn835   2.046   .     S
N826   Zn836   2.046   .     S
O827   Zn835   1.982   .     S
O828   Zn836   1.982   .     S
O829   Zn836   1.990   .     S
O830   Zn835   1.990   .     S
O831   Zn835   1.974   .     S
O832   Zn836   1.974   .     S
O833   Zn836   1.981   .     S
O834   Zn835   1.981   .     S
C837   C840    1.410   .     S
C837   O865    1.292   .     A
C837   O867    1.298   .     A
C838   I858    2.123   .     S
C838   C840    1.400   .     A
C839   C845    1.410   .     S
C839   C851    1.392   .     A
C839   C852    1.400   .     A
C840   C850    1.392   .     A
C841   N864    1.373   .     A
C841   I859    2.137   .     S
C842   N863    1.373   .     A
C842   I860    2.137   .     S
C842   C160    1.431   1_556 S
C843   N863    1.378   .     A
C843   I861    2.109   .     S
C843   C157    1.431   1_556 S
C844   I862    2.109   .     S
C844   N864    1.378   .     A
C845   O866    1.291   .     A
C845   O868    1.298   .     A
C846   O871    1.306   .     A
C846   C848    1.414   .     S
C846   O869    1.284   .     A
C847   C849    1.414   .     S
C847   O872    1.306   .     A
C847   O870    1.284   .     A
C849   C886    1.343   .     S
C849   I894    2.145   .     S
C850   H853    1.079   .     S
C851   H854    1.079   .     S
C851   C952    1.373   .     S
C852   I857    2.123   .     S
C852   C964    1.373   .     S
I855   C886    2.145   .     S
N863   Zn873   2.046   .     S
N864   Zn874   2.046   .     S
O865   Zn873   1.982   .     S
O866   Zn874   1.982   .     S
O867   Zn874   1.990   .     S
O868   Zn873   1.990   .     S
O869   Zn873   1.974   .     S
O870   Zn874   1.974   .     S
O871   Zn874   1.981   .     S
O872   Zn873   1.981   .     S
C875   C878    1.410   .     S
C875   O903    1.292   .     A
C875   O905    1.298   .     A
C876   I896    2.123   .     S
C876   C878    1.400   .     A
C877   C883    1.410   .     S
C877   C889    1.392   .     A
C877   C890    1.400   .     A
C878   C888    1.392   .     A
C879   N902    1.373   .     A
C879   I897    2.137   .     S
C880   N901    1.373   .     A
C880   I898    2.137   .     S
C880   C198    1.431   1_556 S
C881   N901    1.378   .     A
C881   I899    2.109   .     S
C881   C195    1.431   1_556 S
C882   I900    2.109   .     S
C882   N902    1.378   .     A
C883   O904    1.291   .     A
C883   O906    1.298   .     A
C884   O909    1.306   .     A
C884   C886    1.414   .     S
C884   O907    1.284   .     A
C885   C887    1.414   .     S
C885   O910    1.306   .     A
C885   O908    1.284   .     A
C887   C810    1.343   1_655 S
C887   I818    2.145   1_655 S
C888   H891    1.079   .     S
C889   H892    1.079   .     S
C889   C990    1.373   .     S
C890   I895    2.123   .     S
C890   C1002   1.373   .     S
I893   C810    2.145   1_655 S
N901   Zn911   2.046   .     S
N902   Zn912   2.046   .     S
O903   Zn911   1.982   .     S
O904   Zn912   1.982   .     S
O905   Zn912   1.990   .     S
O906   Zn911   1.990   .     S
O907   Zn911   1.974   .     S
O908   Zn912   1.974   .     S
O909   Zn912   1.981   .     S
O910   Zn911   1.981   .     S
C913   C916    1.410   .     S
C913   O941    1.292   .     A
C913   O943    1.298   .     A
C914   I934    2.123   .     S
C914   C916    1.400   .     A
C915   C921    1.410   .     S
C915   C927    1.392   .     A
C915   C928    1.400   .     A
C916   C926    1.392   .     A
C917   N940    1.373   .     A
C917   I935    2.137   .     S
C918   N939    1.373   .     A
C918   I936    2.137   .     S
C918   C236    1.431   1_556 S
C919   N939    1.378   .     A
C919   I937    2.109   .     S
C919   C233    1.431   1_556 S
C920   I938    2.109   .     S
C920   N940    1.378   .     A
C921   O942    1.291   .     A
C921   O944    1.298   .     A
C922   O947    1.306   .     A
C922   C924    1.414   .     S
C922   O945    1.284   .     A
C923   C925    1.414   .     S
C923   O948    1.306   .     A
C923   O946    1.284   .     A
C924   C1001   1.343   1_455 S
C924   I1007   2.145   1_455 S
C925   C962    1.343   .     S
C925   I970    2.145   .     S
C926   H929    1.079   .     S
C927   H930    1.079   .     S
C927   C686    1.373   1_565 S
C928   I933    2.123   .     S
C928   C698    1.373   1_565 S
I931   C962    2.145   .     S
I932   C1001   2.145   1_455 S
N939   Zn949   2.046   .     S
N940   Zn950   2.046   .     S
O941   Zn949   1.982   .     S
O942   Zn950   1.982   .     S
O943   Zn950   1.990   .     S
O944   Zn949   1.990   .     S
O945   Zn949   1.974   .     S
O946   Zn950   1.974   .     S
O947   Zn950   1.981   .     S
O948   Zn949   1.981   .     S
C951   C954    1.410   .     S
C951   O979    1.292   .     A
C951   O981    1.298   .     A
C952   I972    2.123   .     S
C952   C954    1.400   .     A
C953   C959    1.410   .     S
C953   C965    1.392   .     A
C953   C966    1.400   .     A
C954   C964    1.392   .     A
C955   N978    1.373   .     A
C955   I973    2.137   .     S
C956   N977    1.373   .     A
C956   I974    2.137   .     S
C956   C274    1.431   1_556 S
C957   N977    1.378   .     A
C957   I975    2.109   .     S
C957   C271    1.431   1_556 S
C958   I976    2.109   .     S
C958   N978    1.378   .     A
C959   O980    1.291   .     A
C959   O982    1.298   .     A
C960   O985    1.306   .     A
C960   C962    1.414   .     S
C960   O983    1.284   .     A
C961   C963    1.414   .     S
C961   O986    1.306   .     A
C961   O984    1.284   .     A
C963   C1000   1.343   .     S
C963   I1008   2.145   .     S
C964   H967    1.079   .     S
C965   H968    1.079   .     S
C965   C724    1.373   1_565 S
C966   I971    2.123   .     S
C966   C736    1.373   1_565 S
I969   C1000   2.145   .     S
N977   Zn987   2.046   .     S
N978   Zn988   2.046   .     S
O979   Zn987   1.982   .     S
O980   Zn988   1.982   .     S
O981   Zn988   1.990   .     S
O982   Zn987   1.990   .     S
O983   Zn987   1.974   .     S
O984   Zn988   1.974   .     S
O985   Zn988   1.981   .     S
O986   Zn987   1.981   .     S
C989   C992    1.410   .     S
C989   O1017   1.292   .     A
C989   O1019   1.298   .     A
C990   I1010   2.123   .     S
C990   C992    1.400   .     A
C991   C997    1.410   .     S
C991   C1003   1.392   .     A
C991   C1004   1.400   .     A
C992   C1002   1.392   .     A
C993   N1016   1.373   .     A
C993   I1011   2.137   .     S
C994   N1015   1.373   .     A
C994   I1012   2.137   .     S
C994   C312    1.431   1_556 S
C995   N1015   1.378   .     A
C995   I1013   2.109   .     S
C995   C309    1.431   1_556 S
C996   I1014   2.109   .     S
C996   N1016   1.378   .     A
C997   O1018   1.291   .     A
C997   O1020   1.298   .     A
C998   O1023   1.306   .     A
C998   C1000   1.414   .     S
C998   O1021   1.284   .     A
C999   C1001   1.414   .     S
C999   O1024   1.306   .     A
C999   O1022   1.284   .     A
C1001  C924    1.343   1_655 S
C1001  I932    2.145   1_655 S
C1002  H1005   1.079   .     S
C1003  H1006   1.079   .     S
C1003  C762    1.373   1_565 S
C1004  I1009   2.123   .     S
C1004  C774    1.373   1_565 S
I1007  C924    2.145   1_655 S
N1015  Zn1025  2.046   .     S
N1016  Zn1026  2.046   .     S
O1017  Zn1025  1.982   .     S
O1018  Zn1026  1.982   .     S
O1019  Zn1026  1.990   .     S
O1020  Zn1025  1.990   .     S
O1021  Zn1025  1.974   .     S
O1022  Zn1026  1.974   .     S
O1023  Zn1026  1.981   .     S
O1024  Zn1025  1.981   .     S
