data_str_m3_o10_o17_pcu_sym.50
_audit_creation_date              2020-01-03
_audit_creation_method            'Materials Studio'
_symmetry_space_group_name_H-M    'P1'
_symmetry_Int_Tables_number       1
_symmetry_cell_setting            triclinic
loop_
_symmetry_equiv_pos_as_xyz
  x,y,z
_cell_length_a                    23.3314
_cell_length_b                    26.0959
_cell_length_c                    29.6390
_cell_angle_alpha                 91.3960
_cell_angle_beta                  85.4901
_cell_angle_gamma                 93.5400
loop_
_atom_site_label
_atom_site_type_symbol
_atom_site_fract_x
_atom_site_fract_y
_atom_site_fract_z
_atom_site_U_iso_or_equiv
_atom_site_adp_type
_atom_site_occupancy
Br1    Br    0.25183   0.25371   0.12177   0.00000  Uiso   1.00
Br2    Br    0.11914   0.06285   0.37640   0.00000  Uiso   1.00
Br3    Br    0.21299   0.33041   0.04992   0.00000  Uiso   1.00
Br4    Br    0.01776   0.06771   0.45522   0.00000  Uiso   1.00
C5     C     0.18172   0.26461   0.24830   0.00000  Uiso   1.00
C6     C     0.18923   0.21000   0.40523   0.00000  Uiso   1.00
C7     C     0.16421   0.17187   0.11579   0.00000  Uiso   1.00
C8     C     0.16661   0.16620   0.38438   0.00000  Uiso   1.00
C9     C     0.19244   0.21322   0.09228   0.00000  Uiso   1.00
C10    C     0.13501   0.12730   0.40845   0.00000  Uiso   1.00
C11    C     0.18211   0.21904   0.04652   0.00000  Uiso   1.00
C12    C     0.12365   0.13396   0.45538   0.00000  Uiso   1.00
C13    C     0.15120   0.17816   0.02452   0.00000  Uiso   1.00
C14    C     0.15248   0.17603   0.47737   0.00000  Uiso   1.00
C15    C     0.12104   0.13813   0.04958   0.00000  Uiso   1.00
C16    C     0.15166   0.06867   0.25092   0.00000  Uiso   1.00
C17    C     0.18380   0.21526   0.45211   0.00000  Uiso   1.00
C18    C     0.20189   0.26314   0.02149   0.00000  Uiso   1.00
C19    C     0.08419   0.10098   0.48111   0.00000  Uiso   1.00
C20    C     0.23227   0.30413   0.44760   0.00000  Uiso   1.00
C21    C     0.04690   0.06288   0.05457   0.00000  Uiso   1.00
C22    C     0.24913   0.00460   0.25969   0.00000  Uiso   1.00
C23    C     0.08514   0.32853   0.23671   0.00000  Uiso   1.00
C24    C     0.20572   0.26011   0.47402   0.00000  Uiso   1.00
C25    C     0.08492   0.10114   0.02826   0.00000  Uiso   1.00
C26    C     0.18984   0.31856   0.25016   0.00000  Uiso   1.00
C27    C     0.14399   0.01471   0.24721   0.00000  Uiso   1.00
C28    C     0.16698   0.16603   0.33645   0.00000  Uiso   1.00
C29    C     0.16633   0.16813   0.16351   0.00000  Uiso   1.00
C30    C     0.12774   0.13615   0.09546   0.00000  Uiso   1.00
H31    H     0.10679   0.10545   0.11583   0.00000  Uiso   1.00
H32    H     0.21032   0.23994   0.38408   0.00000  Uiso   1.00
H33    H     0.00467   0.12745   0.21617   0.00000  Uiso   1.00
H34    H     0.32867   0.20591   0.28380   0.00000  Uiso   1.00
H35    H     0.22701   0.04403   0.42887   0.00000  Uiso   1.00
H36    H     0.02072   0.32172   0.06309   0.00000  Uiso   1.00
H37    H     0.23141   0.00308   0.32733   0.00000  Uiso   1.00
H38    H     0.10705   0.32190   0.16977   0.00000  Uiso   1.00
N39    N     0.31678   0.15265   0.23783   0.00000  Uiso   1.00
N40    N     0.01656   0.18068   0.26217   0.00000  Uiso   1.00
O41    O     0.12975   0.24619   0.25299   0.00000  Uiso   1.00
O42    O     0.20508   0.01709   0.44862   0.00000  Uiso   1.00
O43    O     0.01370   0.07702   0.08575   0.00000  Uiso   1.00
O44    O     0.04852   0.01072   0.04291   0.00000  Uiso   1.00
O45    O     0.28460   0.01420   0.22808   0.00000  Uiso   1.00
O46    O     0.26440   0.01239   0.30410   0.00000  Uiso   1.00
O47    O     0.04777   0.32266   0.26761   0.00000  Uiso   1.00
O48    O     0.07252   0.31578   0.19236   0.00000  Uiso   1.00
O49    O     0.20358   0.08714   0.24701   0.00000  Uiso   1.00
O50    O     0.22613   0.23721   0.24519   0.00000  Uiso   1.00
O51    O     0.10720   0.09613   0.25481   0.00000  Uiso   1.00
O52    O     0.11847   0.17117   0.31997   0.00000  Uiso   1.00
O53    O     0.21486   0.16216   0.18003   0.00000  Uiso   1.00
O54    O     0.21485   0.16219   0.31217   0.00000  Uiso   1.00
O55    O     0.11848   0.17115   0.18783   0.00000  Uiso   1.00
O56    O     0.27757   0.29953   0.42458   0.00000  Uiso   1.00
Zn57   Zn    0.10231   0.17266   0.25521   0.00000  Uiso   1.00
Zn58   Zn    0.23102   0.16067   0.24479   0.00000  Uiso   1.00
Br59   Br    0.58516   0.25371   0.12177   0.00000  Uiso   1.00
Br60   Br    0.45248   0.06285   0.37640   0.00000  Uiso   1.00
Br61   Br    0.54632   0.33041   0.04992   0.00000  Uiso   1.00
Br62   Br    0.35109   0.06771   0.45522   0.00000  Uiso   1.00
C63    C     0.51505   0.26461   0.24830   0.00000  Uiso   1.00
C64    C     0.52257   0.21000   0.40523   0.00000  Uiso   1.00
C65    C     0.49755   0.17187   0.11579   0.00000  Uiso   1.00
C66    C     0.49994   0.16620   0.38438   0.00000  Uiso   1.00
C67    C     0.52577   0.21322   0.09228   0.00000  Uiso   1.00
C68    C     0.46835   0.12730   0.40845   0.00000  Uiso   1.00
C69    C     0.51544   0.21904   0.04652   0.00000  Uiso   1.00
C70    C     0.45699   0.13396   0.45538   0.00000  Uiso   1.00
C71    C     0.48453   0.17816   0.02452   0.00000  Uiso   1.00
C72    C     0.48581   0.17603   0.47737   0.00000  Uiso   1.00
C73    C     0.45438   0.13813   0.04958   0.00000  Uiso   1.00
C74    C     0.48500   0.06867   0.25092   0.00000  Uiso   1.00
C75    C     0.51714   0.21526   0.45211   0.00000  Uiso   1.00
C76    C     0.53522   0.26314   0.02149   0.00000  Uiso   1.00
C77    C     0.41752   0.10098   0.48111   0.00000  Uiso   1.00
C78    C     0.56560   0.30413   0.44760   0.00000  Uiso   1.00
C79    C     0.38023   0.06288   0.05457   0.00000  Uiso   1.00
C80    C     0.58246   0.00460   0.25969   0.00000  Uiso   1.00
C81    C     0.41848   0.32853   0.23671   0.00000  Uiso   1.00
C82    C     0.53905   0.26011   0.47402   0.00000  Uiso   1.00
C83    C     0.41825   0.10114   0.02826   0.00000  Uiso   1.00
C84    C     0.52317   0.31856   0.25016   0.00000  Uiso   1.00
C85    C     0.47733   0.01471   0.24721   0.00000  Uiso   1.00
C86    C     0.50031   0.16603   0.33645   0.00000  Uiso   1.00
C87    C     0.49966   0.16813   0.16351   0.00000  Uiso   1.00
C88    C     0.46107   0.13615   0.09546   0.00000  Uiso   1.00
H89    H     0.44012   0.10545   0.11583   0.00000  Uiso   1.00
H90    H     0.54365   0.23994   0.38408   0.00000  Uiso   1.00
H91    H     0.33801   0.12745   0.21617   0.00000  Uiso   1.00
H92    H     0.66200   0.20591   0.28380   0.00000  Uiso   1.00
H93    H     0.56034   0.04403   0.42887   0.00000  Uiso   1.00
H94    H     0.35405   0.32172   0.06309   0.00000  Uiso   1.00
H95    H     0.56474   0.00308   0.32733   0.00000  Uiso   1.00
H96    H     0.44038   0.32190   0.16977   0.00000  Uiso   1.00
N97    N     0.65011   0.15265   0.23783   0.00000  Uiso   1.00
N98    N     0.34989   0.18068   0.26217   0.00000  Uiso   1.00
O99    O     0.46308   0.24619   0.25299   0.00000  Uiso   1.00
O100   O     0.53841   0.01709   0.44862   0.00000  Uiso   1.00
O101   O     0.34703   0.07702   0.08575   0.00000  Uiso   1.00
O102   O     0.38186   0.01072   0.04291   0.00000  Uiso   1.00
O103   O     0.61794   0.01420   0.22808   0.00000  Uiso   1.00
O104   O     0.59774   0.01239   0.30410   0.00000  Uiso   1.00
O105   O     0.38111   0.32266   0.26761   0.00000  Uiso   1.00
O106   O     0.40585   0.31578   0.19236   0.00000  Uiso   1.00
O107   O     0.53692   0.08714   0.24701   0.00000  Uiso   1.00
O108   O     0.55946   0.23721   0.24519   0.00000  Uiso   1.00
O109   O     0.44054   0.09613   0.25481   0.00000  Uiso   1.00
O110   O     0.45181   0.17117   0.31997   0.00000  Uiso   1.00
O111   O     0.54819   0.16216   0.18003   0.00000  Uiso   1.00
O112   O     0.54819   0.16219   0.31217   0.00000  Uiso   1.00
O113   O     0.45181   0.17115   0.18783   0.00000  Uiso   1.00
O114   O     0.61090   0.29953   0.42458   0.00000  Uiso   1.00
Zn115  Zn    0.43565   0.17266   0.25521   0.00000  Uiso   1.00
Zn116  Zn    0.56435   0.16067   0.24479   0.00000  Uiso   1.00
Br117  Br    0.91849   0.25371   0.12177   0.00000  Uiso   1.00
Br118  Br    0.78581   0.06285   0.37640   0.00000  Uiso   1.00
Br119  Br    0.87966   0.33041   0.04992   0.00000  Uiso   1.00
Br120  Br    0.68443   0.06771   0.45522   0.00000  Uiso   1.00
C121   C     0.84838   0.26461   0.24830   0.00000  Uiso   1.00
C122   C     0.85590   0.21000   0.40523   0.00000  Uiso   1.00
C123   C     0.83088   0.17187   0.11579   0.00000  Uiso   1.00
C124   C     0.83328   0.16620   0.38438   0.00000  Uiso   1.00
C125   C     0.85911   0.21322   0.09228   0.00000  Uiso   1.00
C126   C     0.80168   0.12730   0.40845   0.00000  Uiso   1.00
C127   C     0.84878   0.21904   0.04652   0.00000  Uiso   1.00
C128   C     0.79032   0.13396   0.45538   0.00000  Uiso   1.00
C129   C     0.81787   0.17816   0.02452   0.00000  Uiso   1.00
C130   C     0.81914   0.17603   0.47737   0.00000  Uiso   1.00
C131   C     0.78771   0.13813   0.04958   0.00000  Uiso   1.00
C132   C     0.81833   0.06867   0.25092   0.00000  Uiso   1.00
C133   C     0.85047   0.21526   0.45211   0.00000  Uiso   1.00
C134   C     0.86856   0.26314   0.02149   0.00000  Uiso   1.00
C135   C     0.75086   0.10098   0.48111   0.00000  Uiso   1.00
C136   C     0.89894   0.30413   0.44760   0.00000  Uiso   1.00
C137   C     0.71356   0.06288   0.05457   0.00000  Uiso   1.00
C138   C     0.91580   0.00460   0.25969   0.00000  Uiso   1.00
C139   C     0.75181   0.32853   0.23671   0.00000  Uiso   1.00
C140   C     0.87238   0.26011   0.47402   0.00000  Uiso   1.00
C141   C     0.75159   0.10114   0.02826   0.00000  Uiso   1.00
C142   C     0.85650   0.31856   0.25016   0.00000  Uiso   1.00
C143   C     0.81066   0.01471   0.24721   0.00000  Uiso   1.00
C144   C     0.83365   0.16603   0.33645   0.00000  Uiso   1.00
C145   C     0.83300   0.16813   0.16351   0.00000  Uiso   1.00
C146   C     0.79440   0.13615   0.09546   0.00000  Uiso   1.00
H147   H     0.77345   0.10545   0.11583   0.00000  Uiso   1.00
H148   H     0.87698   0.23994   0.38408   0.00000  Uiso   1.00
H149   H     0.67134   0.12745   0.21617   0.00000  Uiso   1.00
H150   H     0.99533   0.20591   0.28380   0.00000  Uiso   1.00
H151   H     0.89368   0.04403   0.42887   0.00000  Uiso   1.00
H152   H     0.68739   0.32172   0.06309   0.00000  Uiso   1.00
H153   H     0.89808   0.00308   0.32733   0.00000  Uiso   1.00
H154   H     0.77372   0.32190   0.16977   0.00000  Uiso   1.00
N155   N     0.98344   0.15265   0.23783   0.00000  Uiso   1.00
N156   N     0.68322   0.18068   0.26217   0.00000  Uiso   1.00
O157   O     0.79642   0.24619   0.25299   0.00000  Uiso   1.00
O158   O     0.87174   0.01709   0.44862   0.00000  Uiso   1.00
O159   O     0.68036   0.07702   0.08575   0.00000  Uiso   1.00
O160   O     0.71519   0.01072   0.04291   0.00000  Uiso   1.00
O161   O     0.95127   0.01420   0.22808   0.00000  Uiso   1.00
O162   O     0.93107   0.01239   0.30410   0.00000  Uiso   1.00
O163   O     0.71444   0.32266   0.26761   0.00000  Uiso   1.00
O164   O     0.73919   0.31578   0.19236   0.00000  Uiso   1.00
O165   O     0.87025   0.08714   0.24701   0.00000  Uiso   1.00
O166   O     0.89280   0.23721   0.24519   0.00000  Uiso   1.00
O167   O     0.77387   0.09613   0.25481   0.00000  Uiso   1.00
O168   O     0.78514   0.17117   0.31997   0.00000  Uiso   1.00
O169   O     0.88153   0.16216   0.18003   0.00000  Uiso   1.00
O170   O     0.88152   0.16219   0.31217   0.00000  Uiso   1.00
O171   O     0.78515   0.17115   0.18783   0.00000  Uiso   1.00
O172   O     0.94423   0.29953   0.42458   0.00000  Uiso   1.00
Zn173  Zn    0.76898   0.17266   0.25521   0.00000  Uiso   1.00
Zn174  Zn    0.89769   0.16067   0.24479   0.00000  Uiso   1.00
Br175  Br    0.25183   0.58704   0.12177   0.00000  Uiso   1.00
Br176  Br    0.11914   0.39619   0.37640   0.00000  Uiso   1.00
Br177  Br    0.21299   0.66374   0.04992   0.00000  Uiso   1.00
Br178  Br    0.01776   0.40104   0.45522   0.00000  Uiso   1.00
C179   C     0.18172   0.59795   0.24830   0.00000  Uiso   1.00
C180   C     0.18923   0.54334   0.40523   0.00000  Uiso   1.00
C181   C     0.16421   0.50521   0.11579   0.00000  Uiso   1.00
C182   C     0.16661   0.49953   0.38438   0.00000  Uiso   1.00
C183   C     0.19244   0.54656   0.09228   0.00000  Uiso   1.00
C184   C     0.13501   0.46064   0.40845   0.00000  Uiso   1.00
C185   C     0.18211   0.55238   0.04652   0.00000  Uiso   1.00
C186   C     0.12365   0.46730   0.45538   0.00000  Uiso   1.00
C187   C     0.15120   0.51149   0.02452   0.00000  Uiso   1.00
C188   C     0.15248   0.50936   0.47737   0.00000  Uiso   1.00
C189   C     0.12104   0.47147   0.04958   0.00000  Uiso   1.00
C190   C     0.15166   0.40200   0.25092   0.00000  Uiso   1.00
C191   C     0.18380   0.54860   0.45211   0.00000  Uiso   1.00
C192   C     0.20189   0.59648   0.02149   0.00000  Uiso   1.00
C193   C     0.08419   0.43432   0.48111   0.00000  Uiso   1.00
C194   C     0.23227   0.63746   0.44760   0.00000  Uiso   1.00
C195   C     0.04690   0.39622   0.05457   0.00000  Uiso   1.00
C196   C     0.24913   0.33793   0.25969   0.00000  Uiso   1.00
C197   C     0.08514   0.66186   0.23671   0.00000  Uiso   1.00
C198   C     0.20572   0.59344   0.47402   0.00000  Uiso   1.00
C199   C     0.08492   0.43447   0.02826   0.00000  Uiso   1.00
C200   C     0.18984   0.65189   0.25016   0.00000  Uiso   1.00
C201   C     0.14399   0.34805   0.24721   0.00000  Uiso   1.00
C202   C     0.16698   0.49937   0.33645   0.00000  Uiso   1.00
C203   C     0.16633   0.50146   0.16351   0.00000  Uiso   1.00
C204   C     0.12774   0.46948   0.09546   0.00000  Uiso   1.00
H205   H     0.10679   0.43878   0.11583   0.00000  Uiso   1.00
H206   H     0.21032   0.57328   0.38408   0.00000  Uiso   1.00
H207   H     0.00467   0.46078   0.21617   0.00000  Uiso   1.00
H208   H     0.32867   0.53925   0.28380   0.00000  Uiso   1.00
H209   H     0.22701   0.37736   0.42887   0.00000  Uiso   1.00
H210   H     0.02072   0.65506   0.06309   0.00000  Uiso   1.00
H211   H     0.23141   0.33642   0.32733   0.00000  Uiso   1.00
H212   H     0.10705   0.65524   0.16977   0.00000  Uiso   1.00
N213   N     0.31678   0.48598   0.23783   0.00000  Uiso   1.00
N214   N     0.01656   0.51402   0.26217   0.00000  Uiso   1.00
O215   O     0.12975   0.57952   0.25299   0.00000  Uiso   1.00
O216   O     0.20508   0.35042   0.44862   0.00000  Uiso   1.00
O217   O     0.01370   0.41036   0.08575   0.00000  Uiso   1.00
O218   O     0.04852   0.34406   0.04291   0.00000  Uiso   1.00
O219   O     0.28460   0.34753   0.22808   0.00000  Uiso   1.00
O220   O     0.26440   0.34572   0.30410   0.00000  Uiso   1.00
O221   O     0.04777   0.65600   0.26761   0.00000  Uiso   1.00
O222   O     0.07252   0.64912   0.19236   0.00000  Uiso   1.00
O223   O     0.20358   0.42048   0.24701   0.00000  Uiso   1.00
O224   O     0.22613   0.57054   0.24519   0.00000  Uiso   1.00
O225   O     0.10720   0.42946   0.25481   0.00000  Uiso   1.00
O226   O     0.11847   0.50450   0.31997   0.00000  Uiso   1.00
O227   O     0.21486   0.49550   0.18003   0.00000  Uiso   1.00
O228   O     0.21485   0.49552   0.31217   0.00000  Uiso   1.00
O229   O     0.11848   0.50448   0.18783   0.00000  Uiso   1.00
O230   O     0.27757   0.63286   0.42458   0.00000  Uiso   1.00
Zn231  Zn    0.10231   0.50600   0.25521   0.00000  Uiso   1.00
Zn232  Zn    0.23102   0.49400   0.24479   0.00000  Uiso   1.00
Br233  Br    0.58516   0.58704   0.12177   0.00000  Uiso   1.00
Br234  Br    0.45248   0.39619   0.37640   0.00000  Uiso   1.00
Br235  Br    0.54632   0.66374   0.04992   0.00000  Uiso   1.00
Br236  Br    0.35109   0.40104   0.45522   0.00000  Uiso   1.00
C237   C     0.51505   0.59795   0.24830   0.00000  Uiso   1.00
C238   C     0.52257   0.54334   0.40523   0.00000  Uiso   1.00
C239   C     0.49755   0.50521   0.11579   0.00000  Uiso   1.00
C240   C     0.49994   0.49953   0.38438   0.00000  Uiso   1.00
C241   C     0.52577   0.54656   0.09228   0.00000  Uiso   1.00
C242   C     0.46835   0.46064   0.40845   0.00000  Uiso   1.00
C243   C     0.51544   0.55238   0.04652   0.00000  Uiso   1.00
C244   C     0.45699   0.46730   0.45538   0.00000  Uiso   1.00
C245   C     0.48453   0.51149   0.02452   0.00000  Uiso   1.00
C246   C     0.48581   0.50936   0.47737   0.00000  Uiso   1.00
C247   C     0.45438   0.47147   0.04958   0.00000  Uiso   1.00
C248   C     0.48500   0.40200   0.25092   0.00000  Uiso   1.00
C249   C     0.51714   0.54860   0.45211   0.00000  Uiso   1.00
C250   C     0.53522   0.59648   0.02149   0.00000  Uiso   1.00
C251   C     0.41752   0.43432   0.48111   0.00000  Uiso   1.00
C252   C     0.56560   0.63746   0.44760   0.00000  Uiso   1.00
C253   C     0.38023   0.39622   0.05457   0.00000  Uiso   1.00
C254   C     0.58246   0.33793   0.25969   0.00000  Uiso   1.00
C255   C     0.41848   0.66186   0.23671   0.00000  Uiso   1.00
C256   C     0.53905   0.59344   0.47402   0.00000  Uiso   1.00
C257   C     0.41825   0.43447   0.02826   0.00000  Uiso   1.00
C258   C     0.52317   0.65189   0.25016   0.00000  Uiso   1.00
C259   C     0.47733   0.34805   0.24721   0.00000  Uiso   1.00
C260   C     0.50031   0.49937   0.33645   0.00000  Uiso   1.00
C261   C     0.49966   0.50146   0.16351   0.00000  Uiso   1.00
C262   C     0.46107   0.46948   0.09546   0.00000  Uiso   1.00
H263   H     0.44012   0.43878   0.11583   0.00000  Uiso   1.00
H264   H     0.54365   0.57328   0.38408   0.00000  Uiso   1.00
H265   H     0.33801   0.46078   0.21617   0.00000  Uiso   1.00
H266   H     0.66200   0.53925   0.28380   0.00000  Uiso   1.00
H267   H     0.56034   0.37736   0.42887   0.00000  Uiso   1.00
H268   H     0.35405   0.65506   0.06309   0.00000  Uiso   1.00
H269   H     0.56474   0.33642   0.32733   0.00000  Uiso   1.00
H270   H     0.44038   0.65524   0.16977   0.00000  Uiso   1.00
N271   N     0.65011   0.48598   0.23783   0.00000  Uiso   1.00
N272   N     0.34989   0.51402   0.26217   0.00000  Uiso   1.00
O273   O     0.46308   0.57952   0.25299   0.00000  Uiso   1.00
O274   O     0.53841   0.35042   0.44862   0.00000  Uiso   1.00
O275   O     0.34703   0.41036   0.08575   0.00000  Uiso   1.00
O276   O     0.38186   0.34406   0.04291   0.00000  Uiso   1.00
O277   O     0.61794   0.34753   0.22808   0.00000  Uiso   1.00
O278   O     0.59774   0.34572   0.30410   0.00000  Uiso   1.00
O279   O     0.38111   0.65600   0.26761   0.00000  Uiso   1.00
O280   O     0.40585   0.64912   0.19236   0.00000  Uiso   1.00
O281   O     0.53692   0.42048   0.24701   0.00000  Uiso   1.00
O282   O     0.55946   0.57054   0.24519   0.00000  Uiso   1.00
O283   O     0.44054   0.42946   0.25481   0.00000  Uiso   1.00
O284   O     0.45181   0.50450   0.31997   0.00000  Uiso   1.00
O285   O     0.54819   0.49550   0.18003   0.00000  Uiso   1.00
O286   O     0.54819   0.49552   0.31217   0.00000  Uiso   1.00
O287   O     0.45181   0.50448   0.18783   0.00000  Uiso   1.00
O288   O     0.61090   0.63286   0.42458   0.00000  Uiso   1.00
Zn289  Zn    0.43565   0.50600   0.25521   0.00000  Uiso   1.00
Zn290  Zn    0.56435   0.49400   0.24479   0.00000  Uiso   1.00
Br291  Br    0.91849   0.58704   0.12177   0.00000  Uiso   1.00
Br292  Br    0.78581   0.39619   0.37640   0.00000  Uiso   1.00
Br293  Br    0.87966   0.66374   0.04992   0.00000  Uiso   1.00
Br294  Br    0.68443   0.40104   0.45522   0.00000  Uiso   1.00
C295   C     0.84838   0.59795   0.24830   0.00000  Uiso   1.00
C296   C     0.85590   0.54334   0.40523   0.00000  Uiso   1.00
C297   C     0.83088   0.50521   0.11579   0.00000  Uiso   1.00
C298   C     0.83328   0.49953   0.38438   0.00000  Uiso   1.00
C299   C     0.85911   0.54656   0.09228   0.00000  Uiso   1.00
C300   C     0.80168   0.46064   0.40845   0.00000  Uiso   1.00
C301   C     0.84878   0.55238   0.04652   0.00000  Uiso   1.00
C302   C     0.79032   0.46730   0.45538   0.00000  Uiso   1.00
C303   C     0.81787   0.51149   0.02452   0.00000  Uiso   1.00
C304   C     0.81914   0.50936   0.47737   0.00000  Uiso   1.00
C305   C     0.78771   0.47147   0.04958   0.00000  Uiso   1.00
C306   C     0.81833   0.40200   0.25092   0.00000  Uiso   1.00
C307   C     0.85047   0.54860   0.45211   0.00000  Uiso   1.00
C308   C     0.86856   0.59648   0.02149   0.00000  Uiso   1.00
C309   C     0.75086   0.43432   0.48111   0.00000  Uiso   1.00
C310   C     0.89894   0.63746   0.44760   0.00000  Uiso   1.00
C311   C     0.71356   0.39622   0.05457   0.00000  Uiso   1.00
C312   C     0.91580   0.33793   0.25969   0.00000  Uiso   1.00
C313   C     0.75181   0.66186   0.23671   0.00000  Uiso   1.00
C314   C     0.87238   0.59344   0.47402   0.00000  Uiso   1.00
C315   C     0.75159   0.43447   0.02826   0.00000  Uiso   1.00
C316   C     0.85650   0.65189   0.25016   0.00000  Uiso   1.00
C317   C     0.81066   0.34805   0.24721   0.00000  Uiso   1.00
C318   C     0.83365   0.49937   0.33645   0.00000  Uiso   1.00
C319   C     0.83300   0.50146   0.16351   0.00000  Uiso   1.00
C320   C     0.79440   0.46948   0.09546   0.00000  Uiso   1.00
H321   H     0.77345   0.43878   0.11583   0.00000  Uiso   1.00
H322   H     0.87698   0.57328   0.38408   0.00000  Uiso   1.00
H323   H     0.67134   0.46078   0.21617   0.00000  Uiso   1.00
H324   H     0.99533   0.53925   0.28380   0.00000  Uiso   1.00
H325   H     0.89368   0.37736   0.42887   0.00000  Uiso   1.00
H326   H     0.68739   0.65506   0.06309   0.00000  Uiso   1.00
H327   H     0.89808   0.33642   0.32733   0.00000  Uiso   1.00
H328   H     0.77372   0.65524   0.16977   0.00000  Uiso   1.00
N329   N     0.98344   0.48598   0.23783   0.00000  Uiso   1.00
N330   N     0.68322   0.51402   0.26217   0.00000  Uiso   1.00
O331   O     0.79642   0.57952   0.25299   0.00000  Uiso   1.00
O332   O     0.87174   0.35042   0.44862   0.00000  Uiso   1.00
O333   O     0.68036   0.41036   0.08575   0.00000  Uiso   1.00
O334   O     0.71519   0.34406   0.04291   0.00000  Uiso   1.00
O335   O     0.95127   0.34753   0.22808   0.00000  Uiso   1.00
O336   O     0.93107   0.34572   0.30410   0.00000  Uiso   1.00
O337   O     0.71444   0.65600   0.26761   0.00000  Uiso   1.00
O338   O     0.73919   0.64912   0.19236   0.00000  Uiso   1.00
O339   O     0.87025   0.42048   0.24701   0.00000  Uiso   1.00
O340   O     0.89280   0.57054   0.24519   0.00000  Uiso   1.00
O341   O     0.77387   0.42946   0.25481   0.00000  Uiso   1.00
O342   O     0.78514   0.50450   0.31997   0.00000  Uiso   1.00
O343   O     0.88153   0.49550   0.18003   0.00000  Uiso   1.00
O344   O     0.88152   0.49552   0.31217   0.00000  Uiso   1.00
O345   O     0.78515   0.50448   0.18783   0.00000  Uiso   1.00
O346   O     0.94423   0.63286   0.42458   0.00000  Uiso   1.00
Zn347  Zn    0.76898   0.50600   0.25521   0.00000  Uiso   1.00
Zn348  Zn    0.89769   0.49400   0.24479   0.00000  Uiso   1.00
Br349  Br    0.25183   0.92037   0.12177   0.00000  Uiso   1.00
Br350  Br    0.11914   0.72952   0.37640   0.00000  Uiso   1.00
Br351  Br    0.21299   0.99707   0.04992   0.00000  Uiso   1.00
Br352  Br    0.01776   0.73438   0.45522   0.00000  Uiso   1.00
C353   C     0.18172   0.93128   0.24830   0.00000  Uiso   1.00
C354   C     0.18923   0.87667   0.40523   0.00000  Uiso   1.00
C355   C     0.16421   0.83854   0.11579   0.00000  Uiso   1.00
C356   C     0.16661   0.83286   0.38438   0.00000  Uiso   1.00
C357   C     0.19244   0.87989   0.09228   0.00000  Uiso   1.00
C358   C     0.13501   0.79397   0.40845   0.00000  Uiso   1.00
C359   C     0.18211   0.88571   0.04652   0.00000  Uiso   1.00
C360   C     0.12365   0.80063   0.45538   0.00000  Uiso   1.00
C361   C     0.15120   0.84483   0.02452   0.00000  Uiso   1.00
C362   C     0.15248   0.84269   0.47737   0.00000  Uiso   1.00
C363   C     0.12104   0.80480   0.04958   0.00000  Uiso   1.00
C364   C     0.15166   0.73533   0.25092   0.00000  Uiso   1.00
C365   C     0.18380   0.88193   0.45211   0.00000  Uiso   1.00
C366   C     0.20189   0.92981   0.02149   0.00000  Uiso   1.00
C367   C     0.08419   0.76765   0.48111   0.00000  Uiso   1.00
C368   C     0.23227   0.97080   0.44760   0.00000  Uiso   1.00
C369   C     0.04690   0.72955   0.05457   0.00000  Uiso   1.00
C370   C     0.24913   0.67127   0.25969   0.00000  Uiso   1.00
C371   C     0.08514   0.99519   0.23671   0.00000  Uiso   1.00
C372   C     0.20572   0.92677   0.47402   0.00000  Uiso   1.00
C373   C     0.08492   0.76780   0.02826   0.00000  Uiso   1.00
C374   C     0.18984   0.98523   0.25016   0.00000  Uiso   1.00
C375   C     0.14399   0.68138   0.24721   0.00000  Uiso   1.00
C376   C     0.16698   0.83270   0.33645   0.00000  Uiso   1.00
C377   C     0.16633   0.83480   0.16351   0.00000  Uiso   1.00
C378   C     0.12774   0.80281   0.09546   0.00000  Uiso   1.00
H379   H     0.10679   0.77211   0.11583   0.00000  Uiso   1.00
H380   H     0.21032   0.90661   0.38408   0.00000  Uiso   1.00
H381   H     0.00467   0.79412   0.21617   0.00000  Uiso   1.00
H382   H     0.32867   0.87258   0.28380   0.00000  Uiso   1.00
H383   H     0.22701   0.71070   0.42887   0.00000  Uiso   1.00
H384   H     0.02072   0.98839   0.06309   0.00000  Uiso   1.00
H385   H     0.23141   0.66975   0.32733   0.00000  Uiso   1.00
H386   H     0.10705   0.98857   0.16977   0.00000  Uiso   1.00
N387   N     0.31678   0.81932   0.23783   0.00000  Uiso   1.00
N388   N     0.01656   0.84735   0.26217   0.00000  Uiso   1.00
O389   O     0.12975   0.91286   0.25299   0.00000  Uiso   1.00
O390   O     0.20508   0.68376   0.44862   0.00000  Uiso   1.00
O391   O     0.01370   0.74369   0.08575   0.00000  Uiso   1.00
O392   O     0.04852   0.67739   0.04291   0.00000  Uiso   1.00
O393   O     0.28460   0.68086   0.22808   0.00000  Uiso   1.00
O394   O     0.26440   0.67906   0.30410   0.00000  Uiso   1.00
O395   O     0.04777   0.98933   0.26761   0.00000  Uiso   1.00
O396   O     0.07252   0.98245   0.19236   0.00000  Uiso   1.00
O397   O     0.20358   0.75381   0.24701   0.00000  Uiso   1.00
O398   O     0.22613   0.90387   0.24519   0.00000  Uiso   1.00
O399   O     0.10720   0.76279   0.25481   0.00000  Uiso   1.00
O400   O     0.11847   0.83784   0.31997   0.00000  Uiso   1.00
O401   O     0.21486   0.82883   0.18003   0.00000  Uiso   1.00
O402   O     0.21485   0.82885   0.31217   0.00000  Uiso   1.00
O403   O     0.11848   0.83781   0.18783   0.00000  Uiso   1.00
O404   O     0.27757   0.96620   0.42458   0.00000  Uiso   1.00
Zn405  Zn    0.10231   0.83933   0.25521   0.00000  Uiso   1.00
Zn406  Zn    0.23102   0.82734   0.24479   0.00000  Uiso   1.00
Br407  Br    0.58516   0.92037   0.12177   0.00000  Uiso   1.00
Br408  Br    0.45248   0.72952   0.37640   0.00000  Uiso   1.00
Br409  Br    0.54632   0.99707   0.04992   0.00000  Uiso   1.00
Br410  Br    0.35109   0.73438   0.45522   0.00000  Uiso   1.00
C411   C     0.51505   0.93128   0.24830   0.00000  Uiso   1.00
C412   C     0.52257   0.87667   0.40523   0.00000  Uiso   1.00
C413   C     0.49755   0.83854   0.11579   0.00000  Uiso   1.00
C414   C     0.49994   0.83286   0.38438   0.00000  Uiso   1.00
C415   C     0.52577   0.87989   0.09228   0.00000  Uiso   1.00
C416   C     0.46835   0.79397   0.40845   0.00000  Uiso   1.00
C417   C     0.51544   0.88571   0.04652   0.00000  Uiso   1.00
C418   C     0.45699   0.80063   0.45538   0.00000  Uiso   1.00
C419   C     0.48453   0.84483   0.02452   0.00000  Uiso   1.00
C420   C     0.48581   0.84269   0.47737   0.00000  Uiso   1.00
C421   C     0.45438   0.80480   0.04958   0.00000  Uiso   1.00
C422   C     0.48500   0.73533   0.25092   0.00000  Uiso   1.00
C423   C     0.51714   0.88193   0.45211   0.00000  Uiso   1.00
C424   C     0.53522   0.92981   0.02149   0.00000  Uiso   1.00
C425   C     0.41752   0.76765   0.48111   0.00000  Uiso   1.00
C426   C     0.56560   0.97080   0.44760   0.00000  Uiso   1.00
C427   C     0.38023   0.72955   0.05457   0.00000  Uiso   1.00
C428   C     0.58246   0.67127   0.25969   0.00000  Uiso   1.00
C429   C     0.41848   0.99519   0.23671   0.00000  Uiso   1.00
C430   C     0.53905   0.92677   0.47402   0.00000  Uiso   1.00
C431   C     0.41825   0.76780   0.02826   0.00000  Uiso   1.00
C432   C     0.52317   0.98523   0.25016   0.00000  Uiso   1.00
C433   C     0.47733   0.68138   0.24721   0.00000  Uiso   1.00
C434   C     0.50031   0.83270   0.33645   0.00000  Uiso   1.00
C435   C     0.49966   0.83480   0.16351   0.00000  Uiso   1.00
C436   C     0.46107   0.80281   0.09546   0.00000  Uiso   1.00
H437   H     0.44012   0.77211   0.11583   0.00000  Uiso   1.00
H438   H     0.54365   0.90661   0.38408   0.00000  Uiso   1.00
H439   H     0.33801   0.79412   0.21617   0.00000  Uiso   1.00
H440   H     0.66200   0.87258   0.28380   0.00000  Uiso   1.00
H441   H     0.56034   0.71070   0.42887   0.00000  Uiso   1.00
H442   H     0.35405   0.98839   0.06309   0.00000  Uiso   1.00
H443   H     0.56474   0.66975   0.32733   0.00000  Uiso   1.00
H444   H     0.44038   0.98857   0.16977   0.00000  Uiso   1.00
N445   N     0.65011   0.81932   0.23783   0.00000  Uiso   1.00
N446   N     0.34989   0.84735   0.26217   0.00000  Uiso   1.00
O447   O     0.46308   0.91286   0.25299   0.00000  Uiso   1.00
O448   O     0.53841   0.68376   0.44862   0.00000  Uiso   1.00
O449   O     0.34703   0.74369   0.08575   0.00000  Uiso   1.00
O450   O     0.38186   0.67739   0.04291   0.00000  Uiso   1.00
O451   O     0.61794   0.68086   0.22808   0.00000  Uiso   1.00
O452   O     0.59774   0.67906   0.30410   0.00000  Uiso   1.00
O453   O     0.38111   0.98933   0.26761   0.00000  Uiso   1.00
O454   O     0.40585   0.98245   0.19236   0.00000  Uiso   1.00
O455   O     0.53692   0.75381   0.24701   0.00000  Uiso   1.00
O456   O     0.55946   0.90387   0.24519   0.00000  Uiso   1.00
O457   O     0.44054   0.76279   0.25481   0.00000  Uiso   1.00
O458   O     0.45181   0.83784   0.31997   0.00000  Uiso   1.00
O459   O     0.54819   0.82883   0.18003   0.00000  Uiso   1.00
O460   O     0.54819   0.82885   0.31217   0.00000  Uiso   1.00
O461   O     0.45181   0.83781   0.18783   0.00000  Uiso   1.00
O462   O     0.61090   0.96620   0.42458   0.00000  Uiso   1.00
Zn463  Zn    0.43565   0.83933   0.25521   0.00000  Uiso   1.00
Zn464  Zn    0.56435   0.82734   0.24479   0.00000  Uiso   1.00
Br465  Br    0.91849   0.92037   0.12177   0.00000  Uiso   1.00
Br466  Br    0.78581   0.72952   0.37640   0.00000  Uiso   1.00
Br467  Br    0.87966   0.99707   0.04992   0.00000  Uiso   1.00
Br468  Br    0.68443   0.73438   0.45522   0.00000  Uiso   1.00
C469   C     0.84838   0.93128   0.24830   0.00000  Uiso   1.00
C470   C     0.85590   0.87667   0.40523   0.00000  Uiso   1.00
C471   C     0.83088   0.83854   0.11579   0.00000  Uiso   1.00
C472   C     0.83328   0.83286   0.38438   0.00000  Uiso   1.00
C473   C     0.85911   0.87989   0.09228   0.00000  Uiso   1.00
C474   C     0.80168   0.79397   0.40845   0.00000  Uiso   1.00
C475   C     0.84878   0.88571   0.04652   0.00000  Uiso   1.00
C476   C     0.79032   0.80063   0.45538   0.00000  Uiso   1.00
C477   C     0.81787   0.84483   0.02452   0.00000  Uiso   1.00
C478   C     0.81914   0.84269   0.47737   0.00000  Uiso   1.00
C479   C     0.78771   0.80480   0.04958   0.00000  Uiso   1.00
C480   C     0.81833   0.73533   0.25092   0.00000  Uiso   1.00
C481   C     0.85047   0.88193   0.45211   0.00000  Uiso   1.00
C482   C     0.86856   0.92981   0.02149   0.00000  Uiso   1.00
C483   C     0.75086   0.76765   0.48111   0.00000  Uiso   1.00
C484   C     0.89894   0.97080   0.44760   0.00000  Uiso   1.00
C485   C     0.71356   0.72955   0.05457   0.00000  Uiso   1.00
C486   C     0.91580   0.67127   0.25969   0.00000  Uiso   1.00
C487   C     0.75181   0.99519   0.23671   0.00000  Uiso   1.00
C488   C     0.87238   0.92677   0.47402   0.00000  Uiso   1.00
C489   C     0.75159   0.76780   0.02826   0.00000  Uiso   1.00
C490   C     0.85650   0.98523   0.25016   0.00000  Uiso   1.00
C491   C     0.81066   0.68138   0.24721   0.00000  Uiso   1.00
C492   C     0.83365   0.83270   0.33645   0.00000  Uiso   1.00
C493   C     0.83300   0.83480   0.16351   0.00000  Uiso   1.00
C494   C     0.79440   0.80281   0.09546   0.00000  Uiso   1.00
H495   H     0.77345   0.77211   0.11583   0.00000  Uiso   1.00
H496   H     0.87698   0.90661   0.38408   0.00000  Uiso   1.00
H497   H     0.67134   0.79412   0.21617   0.00000  Uiso   1.00
H498   H     0.99533   0.87258   0.28380   0.00000  Uiso   1.00
H499   H     0.89368   0.71070   0.42887   0.00000  Uiso   1.00
H500   H     0.68739   0.98839   0.06309   0.00000  Uiso   1.00
H501   H     0.89808   0.66975   0.32733   0.00000  Uiso   1.00
H502   H     0.77372   0.98857   0.16977   0.00000  Uiso   1.00
N503   N     0.98344   0.81932   0.23783   0.00000  Uiso   1.00
N504   N     0.68322   0.84735   0.26217   0.00000  Uiso   1.00
O505   O     0.79642   0.91286   0.25299   0.00000  Uiso   1.00
O506   O     0.87174   0.68376   0.44862   0.00000  Uiso   1.00
O507   O     0.68036   0.74369   0.08575   0.00000  Uiso   1.00
O508   O     0.71519   0.67739   0.04291   0.00000  Uiso   1.00
O509   O     0.95127   0.68086   0.22808   0.00000  Uiso   1.00
O510   O     0.93107   0.67906   0.30410   0.00000  Uiso   1.00
O511   O     0.71444   0.98933   0.26761   0.00000  Uiso   1.00
O512   O     0.73919   0.98245   0.19236   0.00000  Uiso   1.00
O513   O     0.87025   0.75381   0.24701   0.00000  Uiso   1.00
O514   O     0.89280   0.90387   0.24519   0.00000  Uiso   1.00
O515   O     0.77387   0.76279   0.25481   0.00000  Uiso   1.00
O516   O     0.78514   0.83784   0.31997   0.00000  Uiso   1.00
O517   O     0.88153   0.82883   0.18003   0.00000  Uiso   1.00
O518   O     0.88152   0.82885   0.31217   0.00000  Uiso   1.00
O519   O     0.78515   0.83781   0.18783   0.00000  Uiso   1.00
O520   O     0.94423   0.96620   0.42458   0.00000  Uiso   1.00
Zn521  Zn    0.76898   0.83933   0.25521   0.00000  Uiso   1.00
Zn522  Zn    0.89769   0.82734   0.24479   0.00000  Uiso   1.00
Br523  Br    0.25183   0.25371   0.62177   0.00000  Uiso   1.00
Br524  Br    0.11914   0.06285   0.87640   0.00000  Uiso   1.00
Br525  Br    0.21299   0.33041   0.54992   0.00000  Uiso   1.00
Br526  Br    0.01776   0.06771   0.95522   0.00000  Uiso   1.00
C527   C     0.18172   0.26461   0.74830   0.00000  Uiso   1.00
C528   C     0.18923   0.21000   0.90523   0.00000  Uiso   1.00
C529   C     0.16421   0.17187   0.61579   0.00000  Uiso   1.00
C530   C     0.16661   0.16620   0.88438   0.00000  Uiso   1.00
C531   C     0.19244   0.21322   0.59228   0.00000  Uiso   1.00
C532   C     0.13501   0.12730   0.90845   0.00000  Uiso   1.00
C533   C     0.18211   0.21904   0.54652   0.00000  Uiso   1.00
C534   C     0.12365   0.13396   0.95538   0.00000  Uiso   1.00
C535   C     0.15120   0.17816   0.52452   0.00000  Uiso   1.00
C536   C     0.15248   0.17603   0.97737   0.00000  Uiso   1.00
C537   C     0.12104   0.13813   0.54958   0.00000  Uiso   1.00
C538   C     0.15166   0.06867   0.75092   0.00000  Uiso   1.00
C539   C     0.18380   0.21526   0.95211   0.00000  Uiso   1.00
C540   C     0.20189   0.26314   0.52149   0.00000  Uiso   1.00
C541   C     0.08419   0.10098   0.98111   0.00000  Uiso   1.00
C542   C     0.23227   0.30413   0.94760   0.00000  Uiso   1.00
C543   C     0.04690   0.06288   0.55457   0.00000  Uiso   1.00
C544   C     0.24913   0.00460   0.75969   0.00000  Uiso   1.00
C545   C     0.08514   0.32853   0.73671   0.00000  Uiso   1.00
C546   C     0.20572   0.26011   0.97402   0.00000  Uiso   1.00
C547   C     0.08492   0.10114   0.52826   0.00000  Uiso   1.00
C548   C     0.18984   0.31856   0.75016   0.00000  Uiso   1.00
C549   C     0.14399   0.01471   0.74721   0.00000  Uiso   1.00
C550   C     0.16698   0.16603   0.83645   0.00000  Uiso   1.00
C551   C     0.16633   0.16813   0.66351   0.00000  Uiso   1.00
C552   C     0.12774   0.13615   0.59546   0.00000  Uiso   1.00
H553   H     0.10679   0.10545   0.61583   0.00000  Uiso   1.00
H554   H     0.21032   0.23994   0.88408   0.00000  Uiso   1.00
H555   H     0.00467   0.12745   0.71617   0.00000  Uiso   1.00
H556   H     0.32867   0.20591   0.78380   0.00000  Uiso   1.00
H557   H     0.22701   0.04403   0.92887   0.00000  Uiso   1.00
H558   H     0.02072   0.32172   0.56309   0.00000  Uiso   1.00
H559   H     0.23141   0.00308   0.82733   0.00000  Uiso   1.00
H560   H     0.10705   0.32190   0.66977   0.00000  Uiso   1.00
N561   N     0.31678   0.15265   0.73783   0.00000  Uiso   1.00
N562   N     0.01656   0.18068   0.76217   0.00000  Uiso   1.00
O563   O     0.12975   0.24619   0.75299   0.00000  Uiso   1.00
O564   O     0.20508   0.01709   0.94862   0.00000  Uiso   1.00
O565   O     0.01370   0.07702   0.58575   0.00000  Uiso   1.00
O566   O     0.04852   0.01072   0.54291   0.00000  Uiso   1.00
O567   O     0.28460   0.01420   0.72808   0.00000  Uiso   1.00
O568   O     0.26440   0.01239   0.80410   0.00000  Uiso   1.00
O569   O     0.04777   0.32266   0.76761   0.00000  Uiso   1.00
O570   O     0.07252   0.31578   0.69236   0.00000  Uiso   1.00
O571   O     0.20358   0.08714   0.74701   0.00000  Uiso   1.00
O572   O     0.22613   0.23721   0.74519   0.00000  Uiso   1.00
O573   O     0.10720   0.09613   0.75481   0.00000  Uiso   1.00
O574   O     0.11847   0.17117   0.81997   0.00000  Uiso   1.00
O575   O     0.21486   0.16216   0.68003   0.00000  Uiso   1.00
O576   O     0.21485   0.16219   0.81217   0.00000  Uiso   1.00
O577   O     0.11848   0.17115   0.68783   0.00000  Uiso   1.00
O578   O     0.27757   0.29953   0.92458   0.00000  Uiso   1.00
Zn579  Zn    0.10231   0.17266   0.75521   0.00000  Uiso   1.00
Zn580  Zn    0.23102   0.16067   0.74479   0.00000  Uiso   1.00
Br581  Br    0.58516   0.25371   0.62177   0.00000  Uiso   1.00
Br582  Br    0.45248   0.06285   0.87640   0.00000  Uiso   1.00
Br583  Br    0.54632   0.33041   0.54992   0.00000  Uiso   1.00
Br584  Br    0.35109   0.06771   0.95522   0.00000  Uiso   1.00
C585   C     0.51505   0.26461   0.74830   0.00000  Uiso   1.00
C586   C     0.52257   0.21000   0.90523   0.00000  Uiso   1.00
C587   C     0.49755   0.17187   0.61579   0.00000  Uiso   1.00
C588   C     0.49994   0.16620   0.88438   0.00000  Uiso   1.00
C589   C     0.52577   0.21322   0.59228   0.00000  Uiso   1.00
C590   C     0.46835   0.12730   0.90845   0.00000  Uiso   1.00
C591   C     0.51544   0.21904   0.54652   0.00000  Uiso   1.00
C592   C     0.45699   0.13396   0.95538   0.00000  Uiso   1.00
C593   C     0.48453   0.17816   0.52452   0.00000  Uiso   1.00
C594   C     0.48581   0.17603   0.97737   0.00000  Uiso   1.00
C595   C     0.45438   0.13813   0.54958   0.00000  Uiso   1.00
C596   C     0.48500   0.06867   0.75092   0.00000  Uiso   1.00
C597   C     0.51714   0.21526   0.95211   0.00000  Uiso   1.00
C598   C     0.53522   0.26314   0.52149   0.00000  Uiso   1.00
C599   C     0.41752   0.10098   0.98111   0.00000  Uiso   1.00
C600   C     0.56560   0.30413   0.94760   0.00000  Uiso   1.00
C601   C     0.38023   0.06288   0.55457   0.00000  Uiso   1.00
C602   C     0.58246   0.00460   0.75969   0.00000  Uiso   1.00
C603   C     0.41848   0.32853   0.73671   0.00000  Uiso   1.00
C604   C     0.53905   0.26011   0.97402   0.00000  Uiso   1.00
C605   C     0.41825   0.10114   0.52826   0.00000  Uiso   1.00
C606   C     0.52317   0.31856   0.75016   0.00000  Uiso   1.00
C607   C     0.47733   0.01471   0.74721   0.00000  Uiso   1.00
C608   C     0.50031   0.16603   0.83645   0.00000  Uiso   1.00
C609   C     0.49966   0.16813   0.66351   0.00000  Uiso   1.00
C610   C     0.46107   0.13615   0.59546   0.00000  Uiso   1.00
H611   H     0.44012   0.10545   0.61583   0.00000  Uiso   1.00
H612   H     0.54365   0.23994   0.88408   0.00000  Uiso   1.00
H613   H     0.33801   0.12745   0.71617   0.00000  Uiso   1.00
H614   H     0.66200   0.20591   0.78380   0.00000  Uiso   1.00
H615   H     0.56034   0.04403   0.92887   0.00000  Uiso   1.00
H616   H     0.35405   0.32172   0.56309   0.00000  Uiso   1.00
H617   H     0.56474   0.00308   0.82733   0.00000  Uiso   1.00
H618   H     0.44038   0.32190   0.66977   0.00000  Uiso   1.00
N619   N     0.65011   0.15265   0.73783   0.00000  Uiso   1.00
N620   N     0.34989   0.18068   0.76217   0.00000  Uiso   1.00
O621   O     0.46308   0.24619   0.75299   0.00000  Uiso   1.00
O622   O     0.53841   0.01709   0.94862   0.00000  Uiso   1.00
O623   O     0.34703   0.07702   0.58575   0.00000  Uiso   1.00
O624   O     0.38186   0.01072   0.54291   0.00000  Uiso   1.00
O625   O     0.61794   0.01420   0.72808   0.00000  Uiso   1.00
O626   O     0.59774   0.01239   0.80410   0.00000  Uiso   1.00
O627   O     0.38111   0.32266   0.76761   0.00000  Uiso   1.00
O628   O     0.40585   0.31578   0.69236   0.00000  Uiso   1.00
O629   O     0.53692   0.08714   0.74701   0.00000  Uiso   1.00
O630   O     0.55946   0.23721   0.74519   0.00000  Uiso   1.00
O631   O     0.44054   0.09613   0.75481   0.00000  Uiso   1.00
O632   O     0.45181   0.17117   0.81997   0.00000  Uiso   1.00
O633   O     0.54819   0.16216   0.68003   0.00000  Uiso   1.00
O634   O     0.54819   0.16219   0.81217   0.00000  Uiso   1.00
O635   O     0.45181   0.17115   0.68783   0.00000  Uiso   1.00
O636   O     0.61090   0.29953   0.92458   0.00000  Uiso   1.00
Zn637  Zn    0.43565   0.17266   0.75521   0.00000  Uiso   1.00
Zn638  Zn    0.56435   0.16067   0.74479   0.00000  Uiso   1.00
Br639  Br    0.91849   0.25371   0.62177   0.00000  Uiso   1.00
Br640  Br    0.78581   0.06285   0.87640   0.00000  Uiso   1.00
Br641  Br    0.87966   0.33041   0.54992   0.00000  Uiso   1.00
Br642  Br    0.68443   0.06771   0.95522   0.00000  Uiso   1.00
C643   C     0.84838   0.26461   0.74830   0.00000  Uiso   1.00
C644   C     0.85590   0.21000   0.90523   0.00000  Uiso   1.00
C645   C     0.83088   0.17187   0.61579   0.00000  Uiso   1.00
C646   C     0.83328   0.16620   0.88438   0.00000  Uiso   1.00
C647   C     0.85911   0.21322   0.59228   0.00000  Uiso   1.00
C648   C     0.80168   0.12730   0.90845   0.00000  Uiso   1.00
C649   C     0.84878   0.21904   0.54652   0.00000  Uiso   1.00
C650   C     0.79032   0.13396   0.95538   0.00000  Uiso   1.00
C651   C     0.81787   0.17816   0.52452   0.00000  Uiso   1.00
C652   C     0.81914   0.17603   0.97737   0.00000  Uiso   1.00
C653   C     0.78771   0.13813   0.54958   0.00000  Uiso   1.00
C654   C     0.81833   0.06867   0.75092   0.00000  Uiso   1.00
C655   C     0.85047   0.21526   0.95211   0.00000  Uiso   1.00
C656   C     0.86856   0.26314   0.52149   0.00000  Uiso   1.00
C657   C     0.75086   0.10098   0.98111   0.00000  Uiso   1.00
C658   C     0.89894   0.30413   0.94760   0.00000  Uiso   1.00
C659   C     0.71356   0.06288   0.55457   0.00000  Uiso   1.00
C660   C     0.91580   0.00460   0.75969   0.00000  Uiso   1.00
C661   C     0.75181   0.32853   0.73671   0.00000  Uiso   1.00
C662   C     0.87238   0.26011   0.97402   0.00000  Uiso   1.00
C663   C     0.75159   0.10114   0.52826   0.00000  Uiso   1.00
C664   C     0.85650   0.31856   0.75016   0.00000  Uiso   1.00
C665   C     0.81066   0.01471   0.74721   0.00000  Uiso   1.00
C666   C     0.83365   0.16603   0.83645   0.00000  Uiso   1.00
C667   C     0.83300   0.16813   0.66351   0.00000  Uiso   1.00
C668   C     0.79440   0.13615   0.59546   0.00000  Uiso   1.00
H669   H     0.77345   0.10545   0.61583   0.00000  Uiso   1.00
H670   H     0.87698   0.23994   0.88408   0.00000  Uiso   1.00
H671   H     0.67134   0.12745   0.71617   0.00000  Uiso   1.00
H672   H     0.99533   0.20591   0.78380   0.00000  Uiso   1.00
H673   H     0.89368   0.04403   0.92887   0.00000  Uiso   1.00
H674   H     0.68739   0.32172   0.56309   0.00000  Uiso   1.00
H675   H     0.89808   0.00308   0.82733   0.00000  Uiso   1.00
H676   H     0.77372   0.32190   0.66977   0.00000  Uiso   1.00
N677   N     0.98344   0.15265   0.73783   0.00000  Uiso   1.00
N678   N     0.68322   0.18068   0.76217   0.00000  Uiso   1.00
O679   O     0.79642   0.24619   0.75299   0.00000  Uiso   1.00
O680   O     0.87174   0.01709   0.94862   0.00000  Uiso   1.00
O681   O     0.68036   0.07702   0.58575   0.00000  Uiso   1.00
O682   O     0.71519   0.01072   0.54291   0.00000  Uiso   1.00
O683   O     0.95127   0.01420   0.72808   0.00000  Uiso   1.00
O684   O     0.93107   0.01239   0.80410   0.00000  Uiso   1.00
O685   O     0.71444   0.32266   0.76761   0.00000  Uiso   1.00
O686   O     0.73919   0.31578   0.69236   0.00000  Uiso   1.00
O687   O     0.87025   0.08714   0.74701   0.00000  Uiso   1.00
O688   O     0.89280   0.23721   0.74519   0.00000  Uiso   1.00
O689   O     0.77387   0.09613   0.75481   0.00000  Uiso   1.00
O690   O     0.78514   0.17117   0.81997   0.00000  Uiso   1.00
O691   O     0.88153   0.16216   0.68003   0.00000  Uiso   1.00
O692   O     0.88152   0.16219   0.81217   0.00000  Uiso   1.00
O693   O     0.78515   0.17115   0.68783   0.00000  Uiso   1.00
O694   O     0.94423   0.29953   0.92458   0.00000  Uiso   1.00
Zn695  Zn    0.76898   0.17266   0.75521   0.00000  Uiso   1.00
Zn696  Zn    0.89769   0.16067   0.74479   0.00000  Uiso   1.00
Br697  Br    0.25183   0.58704   0.62177   0.00000  Uiso   1.00
Br698  Br    0.11914   0.39619   0.87640   0.00000  Uiso   1.00
Br699  Br    0.21299   0.66374   0.54992   0.00000  Uiso   1.00
Br700  Br    0.01776   0.40104   0.95522   0.00000  Uiso   1.00
C701   C     0.18172   0.59795   0.74830   0.00000  Uiso   1.00
C702   C     0.18923   0.54334   0.90523   0.00000  Uiso   1.00
C703   C     0.16421   0.50521   0.61579   0.00000  Uiso   1.00
C704   C     0.16661   0.49953   0.88438   0.00000  Uiso   1.00
C705   C     0.19244   0.54656   0.59228   0.00000  Uiso   1.00
C706   C     0.13501   0.46064   0.90845   0.00000  Uiso   1.00
C707   C     0.18211   0.55238   0.54652   0.00000  Uiso   1.00
C708   C     0.12365   0.46730   0.95538   0.00000  Uiso   1.00
C709   C     0.15120   0.51149   0.52452   0.00000  Uiso   1.00
C710   C     0.15248   0.50936   0.97737   0.00000  Uiso   1.00
C711   C     0.12104   0.47147   0.54958   0.00000  Uiso   1.00
C712   C     0.15166   0.40200   0.75092   0.00000  Uiso   1.00
C713   C     0.18380   0.54860   0.95211   0.00000  Uiso   1.00
C714   C     0.20189   0.59648   0.52149   0.00000  Uiso   1.00
C715   C     0.08419   0.43432   0.98111   0.00000  Uiso   1.00
C716   C     0.23227   0.63746   0.94760   0.00000  Uiso   1.00
C717   C     0.04690   0.39622   0.55457   0.00000  Uiso   1.00
C718   C     0.24913   0.33793   0.75969   0.00000  Uiso   1.00
C719   C     0.08514   0.66186   0.73671   0.00000  Uiso   1.00
C720   C     0.20572   0.59344   0.97402   0.00000  Uiso   1.00
C721   C     0.08492   0.43447   0.52826   0.00000  Uiso   1.00
C722   C     0.18984   0.65189   0.75016   0.00000  Uiso   1.00
C723   C     0.14399   0.34805   0.74721   0.00000  Uiso   1.00
C724   C     0.16698   0.49937   0.83645   0.00000  Uiso   1.00
C725   C     0.16633   0.50146   0.66351   0.00000  Uiso   1.00
C726   C     0.12774   0.46948   0.59546   0.00000  Uiso   1.00
H727   H     0.10679   0.43878   0.61583   0.00000  Uiso   1.00
H728   H     0.21032   0.57328   0.88408   0.00000  Uiso   1.00
H729   H     0.00467   0.46078   0.71617   0.00000  Uiso   1.00
H730   H     0.32867   0.53925   0.78380   0.00000  Uiso   1.00
H731   H     0.22701   0.37736   0.92887   0.00000  Uiso   1.00
H732   H     0.02072   0.65506   0.56309   0.00000  Uiso   1.00
H733   H     0.23141   0.33642   0.82733   0.00000  Uiso   1.00
H734   H     0.10705   0.65524   0.66977   0.00000  Uiso   1.00
N735   N     0.31678   0.48598   0.73783   0.00000  Uiso   1.00
N736   N     0.01656   0.51402   0.76217   0.00000  Uiso   1.00
O737   O     0.12975   0.57952   0.75299   0.00000  Uiso   1.00
O738   O     0.20508   0.35042   0.94862   0.00000  Uiso   1.00
O739   O     0.01370   0.41036   0.58575   0.00000  Uiso   1.00
O740   O     0.04852   0.34406   0.54291   0.00000  Uiso   1.00
O741   O     0.28460   0.34753   0.72808   0.00000  Uiso   1.00
O742   O     0.26440   0.34572   0.80410   0.00000  Uiso   1.00
O743   O     0.04777   0.65600   0.76761   0.00000  Uiso   1.00
O744   O     0.07252   0.64912   0.69236   0.00000  Uiso   1.00
O745   O     0.20358   0.42048   0.74701   0.00000  Uiso   1.00
O746   O     0.22613   0.57054   0.74519   0.00000  Uiso   1.00
O747   O     0.10720   0.42946   0.75481   0.00000  Uiso   1.00
O748   O     0.11847   0.50450   0.81997   0.00000  Uiso   1.00
O749   O     0.21486   0.49550   0.68003   0.00000  Uiso   1.00
O750   O     0.21485   0.49552   0.81217   0.00000  Uiso   1.00
O751   O     0.11848   0.50448   0.68783   0.00000  Uiso   1.00
O752   O     0.27757   0.63286   0.92458   0.00000  Uiso   1.00
Zn753  Zn    0.10231   0.50600   0.75521   0.00000  Uiso   1.00
Zn754  Zn    0.23102   0.49400   0.74479   0.00000  Uiso   1.00
Br755  Br    0.58516   0.58704   0.62177   0.00000  Uiso   1.00
Br756  Br    0.45248   0.39619   0.87640   0.00000  Uiso   1.00
Br757  Br    0.54632   0.66374   0.54992   0.00000  Uiso   1.00
Br758  Br    0.35109   0.40104   0.95522   0.00000  Uiso   1.00
C759   C     0.51505   0.59795   0.74830   0.00000  Uiso   1.00
C760   C     0.52257   0.54334   0.90523   0.00000  Uiso   1.00
C761   C     0.49755   0.50521   0.61579   0.00000  Uiso   1.00
C762   C     0.49994   0.49953   0.88438   0.00000  Uiso   1.00
C763   C     0.52577   0.54656   0.59228   0.00000  Uiso   1.00
C764   C     0.46835   0.46064   0.90845   0.00000  Uiso   1.00
C765   C     0.51544   0.55238   0.54652   0.00000  Uiso   1.00
C766   C     0.45699   0.46730   0.95538   0.00000  Uiso   1.00
C767   C     0.48453   0.51149   0.52452   0.00000  Uiso   1.00
C768   C     0.48581   0.50936   0.97737   0.00000  Uiso   1.00
C769   C     0.45438   0.47147   0.54958   0.00000  Uiso   1.00
C770   C     0.48500   0.40200   0.75092   0.00000  Uiso   1.00
C771   C     0.51714   0.54860   0.95211   0.00000  Uiso   1.00
C772   C     0.53522   0.59648   0.52149   0.00000  Uiso   1.00
C773   C     0.41752   0.43432   0.98111   0.00000  Uiso   1.00
C774   C     0.56560   0.63746   0.94760   0.00000  Uiso   1.00
C775   C     0.38023   0.39622   0.55457   0.00000  Uiso   1.00
C776   C     0.58246   0.33793   0.75969   0.00000  Uiso   1.00
C777   C     0.41848   0.66186   0.73671   0.00000  Uiso   1.00
C778   C     0.53905   0.59344   0.97402   0.00000  Uiso   1.00
C779   C     0.41825   0.43447   0.52826   0.00000  Uiso   1.00
C780   C     0.52317   0.65189   0.75016   0.00000  Uiso   1.00
C781   C     0.47733   0.34805   0.74721   0.00000  Uiso   1.00
C782   C     0.50031   0.49937   0.83645   0.00000  Uiso   1.00
C783   C     0.49966   0.50146   0.66351   0.00000  Uiso   1.00
C784   C     0.46107   0.46948   0.59546   0.00000  Uiso   1.00
H785   H     0.44012   0.43878   0.61583   0.00000  Uiso   1.00
H786   H     0.54365   0.57328   0.88408   0.00000  Uiso   1.00
H787   H     0.33801   0.46078   0.71617   0.00000  Uiso   1.00
H788   H     0.66200   0.53925   0.78380   0.00000  Uiso   1.00
H789   H     0.56034   0.37736   0.92887   0.00000  Uiso   1.00
H790   H     0.35405   0.65506   0.56309   0.00000  Uiso   1.00
H791   H     0.56474   0.33642   0.82733   0.00000  Uiso   1.00
H792   H     0.44038   0.65524   0.66977   0.00000  Uiso   1.00
N793   N     0.65011   0.48598   0.73783   0.00000  Uiso   1.00
N794   N     0.34989   0.51402   0.76217   0.00000  Uiso   1.00
O795   O     0.46308   0.57952   0.75299   0.00000  Uiso   1.00
O796   O     0.53841   0.35042   0.94862   0.00000  Uiso   1.00
O797   O     0.34703   0.41036   0.58575   0.00000  Uiso   1.00
O798   O     0.38186   0.34406   0.54291   0.00000  Uiso   1.00
O799   O     0.61794   0.34753   0.72808   0.00000  Uiso   1.00
O800   O     0.59774   0.34572   0.80410   0.00000  Uiso   1.00
O801   O     0.38111   0.65600   0.76761   0.00000  Uiso   1.00
O802   O     0.40585   0.64912   0.69236   0.00000  Uiso   1.00
O803   O     0.53692   0.42048   0.74701   0.00000  Uiso   1.00
O804   O     0.55946   0.57054   0.74519   0.00000  Uiso   1.00
O805   O     0.44054   0.42946   0.75481   0.00000  Uiso   1.00
O806   O     0.45181   0.50450   0.81997   0.00000  Uiso   1.00
O807   O     0.54819   0.49550   0.68003   0.00000  Uiso   1.00
O808   O     0.54819   0.49552   0.81217   0.00000  Uiso   1.00
O809   O     0.45181   0.50448   0.68783   0.00000  Uiso   1.00
O810   O     0.61090   0.63286   0.92458   0.00000  Uiso   1.00
Zn811  Zn    0.43565   0.50600   0.75521   0.00000  Uiso   1.00
Zn812  Zn    0.56435   0.49400   0.74479   0.00000  Uiso   1.00
Br813  Br    0.91849   0.58704   0.62177   0.00000  Uiso   1.00
Br814  Br    0.78581   0.39619   0.87640   0.00000  Uiso   1.00
Br815  Br    0.87966   0.66374   0.54992   0.00000  Uiso   1.00
Br816  Br    0.68443   0.40104   0.95522   0.00000  Uiso   1.00
C817   C     0.84838   0.59795   0.74830   0.00000  Uiso   1.00
C818   C     0.85590   0.54334   0.90523   0.00000  Uiso   1.00
C819   C     0.83088   0.50521   0.61579   0.00000  Uiso   1.00
C820   C     0.83328   0.49953   0.88438   0.00000  Uiso   1.00
C821   C     0.85911   0.54656   0.59228   0.00000  Uiso   1.00
C822   C     0.80168   0.46064   0.90845   0.00000  Uiso   1.00
C823   C     0.84878   0.55238   0.54652   0.00000  Uiso   1.00
C824   C     0.79032   0.46730   0.95538   0.00000  Uiso   1.00
C825   C     0.81787   0.51149   0.52452   0.00000  Uiso   1.00
C826   C     0.81914   0.50936   0.97737   0.00000  Uiso   1.00
C827   C     0.78771   0.47147   0.54958   0.00000  Uiso   1.00
C828   C     0.81833   0.40200   0.75092   0.00000  Uiso   1.00
C829   C     0.85047   0.54860   0.95211   0.00000  Uiso   1.00
C830   C     0.86856   0.59648   0.52149   0.00000  Uiso   1.00
C831   C     0.75086   0.43432   0.98111   0.00000  Uiso   1.00
C832   C     0.89894   0.63746   0.94760   0.00000  Uiso   1.00
C833   C     0.71356   0.39622   0.55457   0.00000  Uiso   1.00
C834   C     0.91580   0.33793   0.75969   0.00000  Uiso   1.00
C835   C     0.75181   0.66186   0.73671   0.00000  Uiso   1.00
C836   C     0.87238   0.59344   0.97402   0.00000  Uiso   1.00
C837   C     0.75159   0.43447   0.52826   0.00000  Uiso   1.00
C838   C     0.85650   0.65189   0.75016   0.00000  Uiso   1.00
C839   C     0.81066   0.34805   0.74721   0.00000  Uiso   1.00
C840   C     0.83365   0.49937   0.83645   0.00000  Uiso   1.00
C841   C     0.83300   0.50146   0.66351   0.00000  Uiso   1.00
C842   C     0.79440   0.46948   0.59546   0.00000  Uiso   1.00
H843   H     0.77345   0.43878   0.61583   0.00000  Uiso   1.00
H844   H     0.87698   0.57328   0.88408   0.00000  Uiso   1.00
H845   H     0.67134   0.46078   0.71617   0.00000  Uiso   1.00
H846   H     0.99533   0.53925   0.78380   0.00000  Uiso   1.00
H847   H     0.89368   0.37736   0.92887   0.00000  Uiso   1.00
H848   H     0.68739   0.65506   0.56309   0.00000  Uiso   1.00
H849   H     0.89808   0.33642   0.82733   0.00000  Uiso   1.00
H850   H     0.77372   0.65524   0.66977   0.00000  Uiso   1.00
N851   N     0.98344   0.48598   0.73783   0.00000  Uiso   1.00
N852   N     0.68322   0.51402   0.76217   0.00000  Uiso   1.00
O853   O     0.79642   0.57952   0.75299   0.00000  Uiso   1.00
O854   O     0.87174   0.35042   0.94862   0.00000  Uiso   1.00
O855   O     0.68036   0.41036   0.58575   0.00000  Uiso   1.00
O856   O     0.71519   0.34406   0.54291   0.00000  Uiso   1.00
O857   O     0.95127   0.34753   0.72808   0.00000  Uiso   1.00
O858   O     0.93107   0.34572   0.80410   0.00000  Uiso   1.00
O859   O     0.71444   0.65600   0.76761   0.00000  Uiso   1.00
O860   O     0.73919   0.64912   0.69236   0.00000  Uiso   1.00
O861   O     0.87025   0.42048   0.74701   0.00000  Uiso   1.00
O862   O     0.89280   0.57054   0.74519   0.00000  Uiso   1.00
O863   O     0.77387   0.42946   0.75481   0.00000  Uiso   1.00
O864   O     0.78514   0.50450   0.81997   0.00000  Uiso   1.00
O865   O     0.88153   0.49550   0.68003   0.00000  Uiso   1.00
O866   O     0.88152   0.49552   0.81217   0.00000  Uiso   1.00
O867   O     0.78515   0.50448   0.68783   0.00000  Uiso   1.00
O868   O     0.94423   0.63286   0.92458   0.00000  Uiso   1.00
Zn869  Zn    0.76898   0.50600   0.75521   0.00000  Uiso   1.00
Zn870  Zn    0.89769   0.49400   0.74479   0.00000  Uiso   1.00
Br871  Br    0.25183   0.92037   0.62177   0.00000  Uiso   1.00
Br872  Br    0.11914   0.72952   0.87640   0.00000  Uiso   1.00
Br873  Br    0.21299   0.99707   0.54992   0.00000  Uiso   1.00
Br874  Br    0.01776   0.73438   0.95522   0.00000  Uiso   1.00
C875   C     0.18172   0.93128   0.74830   0.00000  Uiso   1.00
C876   C     0.18923   0.87667   0.90523   0.00000  Uiso   1.00
C877   C     0.16421   0.83854   0.61579   0.00000  Uiso   1.00
C878   C     0.16661   0.83286   0.88438   0.00000  Uiso   1.00
C879   C     0.19244   0.87989   0.59228   0.00000  Uiso   1.00
C880   C     0.13501   0.79397   0.90845   0.00000  Uiso   1.00
C881   C     0.18211   0.88571   0.54652   0.00000  Uiso   1.00
C882   C     0.12365   0.80063   0.95538   0.00000  Uiso   1.00
C883   C     0.15120   0.84483   0.52452   0.00000  Uiso   1.00
C884   C     0.15248   0.84269   0.97737   0.00000  Uiso   1.00
C885   C     0.12104   0.80480   0.54958   0.00000  Uiso   1.00
C886   C     0.15166   0.73533   0.75092   0.00000  Uiso   1.00
C887   C     0.18380   0.88193   0.95211   0.00000  Uiso   1.00
C888   C     0.20189   0.92981   0.52149   0.00000  Uiso   1.00
C889   C     0.08419   0.76765   0.98111   0.00000  Uiso   1.00
C890   C     0.23227   0.97080   0.94760   0.00000  Uiso   1.00
C891   C     0.04690   0.72955   0.55457   0.00000  Uiso   1.00
C892   C     0.24913   0.67127   0.75969   0.00000  Uiso   1.00
C893   C     0.08514   0.99519   0.73671   0.00000  Uiso   1.00
C894   C     0.20572   0.92677   0.97402   0.00000  Uiso   1.00
C895   C     0.08492   0.76780   0.52826   0.00000  Uiso   1.00
C896   C     0.18984   0.98523   0.75016   0.00000  Uiso   1.00
C897   C     0.14399   0.68138   0.74721   0.00000  Uiso   1.00
C898   C     0.16698   0.83270   0.83645   0.00000  Uiso   1.00
C899   C     0.16633   0.83480   0.66351   0.00000  Uiso   1.00
C900   C     0.12774   0.80281   0.59546   0.00000  Uiso   1.00
H901   H     0.10679   0.77211   0.61583   0.00000  Uiso   1.00
H902   H     0.21032   0.90661   0.88408   0.00000  Uiso   1.00
H903   H     0.00467   0.79412   0.71617   0.00000  Uiso   1.00
H904   H     0.32867   0.87258   0.78380   0.00000  Uiso   1.00
H905   H     0.22701   0.71070   0.92887   0.00000  Uiso   1.00
H906   H     0.02072   0.98839   0.56309   0.00000  Uiso   1.00
H907   H     0.23141   0.66975   0.82733   0.00000  Uiso   1.00
H908   H     0.10705   0.98857   0.66977   0.00000  Uiso   1.00
N909   N     0.31678   0.81932   0.73783   0.00000  Uiso   1.00
N910   N     0.01656   0.84735   0.76217   0.00000  Uiso   1.00
O911   O     0.12975   0.91286   0.75299   0.00000  Uiso   1.00
O912   O     0.20508   0.68376   0.94862   0.00000  Uiso   1.00
O913   O     0.01370   0.74369   0.58575   0.00000  Uiso   1.00
O914   O     0.04852   0.67739   0.54291   0.00000  Uiso   1.00
O915   O     0.28460   0.68086   0.72808   0.00000  Uiso   1.00
O916   O     0.26440   0.67906   0.80410   0.00000  Uiso   1.00
O917   O     0.04777   0.98933   0.76761   0.00000  Uiso   1.00
O918   O     0.07252   0.98245   0.69236   0.00000  Uiso   1.00
O919   O     0.20358   0.75381   0.74701   0.00000  Uiso   1.00
O920   O     0.22613   0.90387   0.74519   0.00000  Uiso   1.00
O921   O     0.10720   0.76279   0.75481   0.00000  Uiso   1.00
O922   O     0.11847   0.83784   0.81997   0.00000  Uiso   1.00
O923   O     0.21486   0.82883   0.68003   0.00000  Uiso   1.00
O924   O     0.21485   0.82885   0.81217   0.00000  Uiso   1.00
O925   O     0.11848   0.83781   0.68783   0.00000  Uiso   1.00
O926   O     0.27757   0.96620   0.92458   0.00000  Uiso   1.00
Zn927  Zn    0.10231   0.83933   0.75521   0.00000  Uiso   1.00
Zn928  Zn    0.23102   0.82734   0.74479   0.00000  Uiso   1.00
Br929  Br    0.58516   0.92037   0.62177   0.00000  Uiso   1.00
Br930  Br    0.45248   0.72952   0.87640   0.00000  Uiso   1.00
Br931  Br    0.54632   0.99707   0.54992   0.00000  Uiso   1.00
Br932  Br    0.35109   0.73438   0.95522   0.00000  Uiso   1.00
C933   C     0.51505   0.93128   0.74830   0.00000  Uiso   1.00
C934   C     0.52257   0.87667   0.90523   0.00000  Uiso   1.00
C935   C     0.49755   0.83854   0.61579   0.00000  Uiso   1.00
C936   C     0.49994   0.83286   0.88438   0.00000  Uiso   1.00
C937   C     0.52577   0.87989   0.59228   0.00000  Uiso   1.00
C938   C     0.46835   0.79397   0.90845   0.00000  Uiso   1.00
C939   C     0.51544   0.88571   0.54652   0.00000  Uiso   1.00
C940   C     0.45699   0.80063   0.95538   0.00000  Uiso   1.00
C941   C     0.48453   0.84483   0.52452   0.00000  Uiso   1.00
C942   C     0.48581   0.84269   0.97737   0.00000  Uiso   1.00
C943   C     0.45438   0.80480   0.54958   0.00000  Uiso   1.00
C944   C     0.48500   0.73533   0.75092   0.00000  Uiso   1.00
C945   C     0.51714   0.88193   0.95211   0.00000  Uiso   1.00
C946   C     0.53522   0.92981   0.52149   0.00000  Uiso   1.00
C947   C     0.41752   0.76765   0.98111   0.00000  Uiso   1.00
C948   C     0.56560   0.97080   0.94760   0.00000  Uiso   1.00
C949   C     0.38023   0.72955   0.55457   0.00000  Uiso   1.00
C950   C     0.58246   0.67127   0.75969   0.00000  Uiso   1.00
C951   C     0.41848   0.99519   0.73671   0.00000  Uiso   1.00
C952   C     0.53905   0.92677   0.97402   0.00000  Uiso   1.00
C953   C     0.41825   0.76780   0.52826   0.00000  Uiso   1.00
C954   C     0.52317   0.98523   0.75016   0.00000  Uiso   1.00
C955   C     0.47733   0.68138   0.74721   0.00000  Uiso   1.00
C956   C     0.50031   0.83270   0.83645   0.00000  Uiso   1.00
C957   C     0.49966   0.83480   0.66351   0.00000  Uiso   1.00
C958   C     0.46107   0.80281   0.59546   0.00000  Uiso   1.00
H959   H     0.44012   0.77211   0.61583   0.00000  Uiso   1.00
H960   H     0.54365   0.90661   0.88408   0.00000  Uiso   1.00
H961   H     0.33801   0.79412   0.71617   0.00000  Uiso   1.00
H962   H     0.66200   0.87258   0.78380   0.00000  Uiso   1.00
H963   H     0.56034   0.71070   0.92887   0.00000  Uiso   1.00
H964   H     0.35405   0.98839   0.56309   0.00000  Uiso   1.00
H965   H     0.56474   0.66975   0.82733   0.00000  Uiso   1.00
H966   H     0.44038   0.98857   0.66977   0.00000  Uiso   1.00
N967   N     0.65011   0.81932   0.73783   0.00000  Uiso   1.00
N968   N     0.34989   0.84735   0.76217   0.00000  Uiso   1.00
O969   O     0.46308   0.91286   0.75299   0.00000  Uiso   1.00
O970   O     0.53841   0.68376   0.94862   0.00000  Uiso   1.00
O971   O     0.34703   0.74369   0.58575   0.00000  Uiso   1.00
O972   O     0.38186   0.67739   0.54291   0.00000  Uiso   1.00
O973   O     0.61794   0.68086   0.72808   0.00000  Uiso   1.00
O974   O     0.59774   0.67906   0.80410   0.00000  Uiso   1.00
O975   O     0.38111   0.98933   0.76761   0.00000  Uiso   1.00
O976   O     0.40585   0.98245   0.69236   0.00000  Uiso   1.00
O977   O     0.53692   0.75381   0.74701   0.00000  Uiso   1.00
O978   O     0.55946   0.90387   0.74519   0.00000  Uiso   1.00
O979   O     0.44054   0.76279   0.75481   0.00000  Uiso   1.00
O980   O     0.45181   0.83784   0.81997   0.00000  Uiso   1.00
O981   O     0.54819   0.82883   0.68003   0.00000  Uiso   1.00
O982   O     0.54819   0.82885   0.81217   0.00000  Uiso   1.00
O983   O     0.45181   0.83781   0.68783   0.00000  Uiso   1.00
O984   O     0.61090   0.96620   0.92458   0.00000  Uiso   1.00
Zn985  Zn    0.43565   0.83933   0.75521   0.00000  Uiso   1.00
Zn986  Zn    0.56435   0.82734   0.74479   0.00000  Uiso   1.00
Br987  Br    0.91849   0.92037   0.62177   0.00000  Uiso   1.00
Br988  Br    0.78581   0.72952   0.87640   0.00000  Uiso   1.00
Br989  Br    0.87966   0.99707   0.54992   0.00000  Uiso   1.00
Br990  Br    0.68443   0.73438   0.95522   0.00000  Uiso   1.00
C991   C     0.84838   0.93128   0.74830   0.00000  Uiso   1.00
C992   C     0.85590   0.87667   0.90523   0.00000  Uiso   1.00
C993   C     0.83088   0.83854   0.61579   0.00000  Uiso   1.00
C994   C     0.83328   0.83286   0.88438   0.00000  Uiso   1.00
C995   C     0.85911   0.87989   0.59228   0.00000  Uiso   1.00
C996   C     0.80168   0.79397   0.90845   0.00000  Uiso   1.00
C997   C     0.84878   0.88571   0.54652   0.00000  Uiso   1.00
C998   C     0.79032   0.80063   0.95538   0.00000  Uiso   1.00
C999   C     0.81787   0.84483   0.52452   0.00000  Uiso   1.00
C1000  C     0.81914   0.84269   0.97737   0.00000  Uiso   1.00
C1001  C     0.78771   0.80480   0.54958   0.00000  Uiso   1.00
C1002  C     0.81833   0.73533   0.75092   0.00000  Uiso   1.00
C1003  C     0.85047   0.88193   0.95211   0.00000  Uiso   1.00
C1004  C     0.86856   0.92981   0.52149   0.00000  Uiso   1.00
C1005  C     0.75086   0.76765   0.98111   0.00000  Uiso   1.00
C1006  C     0.89894   0.97080   0.94760   0.00000  Uiso   1.00
C1007  C     0.71356   0.72955   0.55457   0.00000  Uiso   1.00
C1008  C     0.91580   0.67127   0.75969   0.00000  Uiso   1.00
C1009  C     0.75181   0.99519   0.73671   0.00000  Uiso   1.00
C1010  C     0.87238   0.92677   0.97402   0.00000  Uiso   1.00
C1011  C     0.75159   0.76780   0.52826   0.00000  Uiso   1.00
C1012  C     0.85650   0.98523   0.75016   0.00000  Uiso   1.00
C1013  C     0.81066   0.68138   0.74721   0.00000  Uiso   1.00
C1014  C     0.83365   0.83270   0.83645   0.00000  Uiso   1.00
C1015  C     0.83300   0.83480   0.66351   0.00000  Uiso   1.00
C1016  C     0.79440   0.80281   0.59546   0.00000  Uiso   1.00
H1017  H     0.77345   0.77211   0.61583   0.00000  Uiso   1.00
H1018  H     0.87698   0.90661   0.88408   0.00000  Uiso   1.00
H1019  H     0.67134   0.79412   0.71617   0.00000  Uiso   1.00
H1020  H     0.99533   0.87258   0.78380   0.00000  Uiso   1.00
H1021  H     0.89368   0.71070   0.92887   0.00000  Uiso   1.00
H1022  H     0.68739   0.98839   0.56309   0.00000  Uiso   1.00
H1023  H     0.89808   0.66975   0.82733   0.00000  Uiso   1.00
H1024  H     0.77372   0.98857   0.66977   0.00000  Uiso   1.00
N1025  N     0.98344   0.81932   0.73783   0.00000  Uiso   1.00
N1026  N     0.68322   0.84735   0.76217   0.00000  Uiso   1.00
O1027  O     0.79642   0.91286   0.75299   0.00000  Uiso   1.00
O1028  O     0.87174   0.68376   0.94862   0.00000  Uiso   1.00
O1029  O     0.68036   0.74369   0.58575   0.00000  Uiso   1.00
O1030  O     0.71519   0.67739   0.54291   0.00000  Uiso   1.00
O1031  O     0.95127   0.68086   0.72808   0.00000  Uiso   1.00
O1032  O     0.93107   0.67906   0.80410   0.00000  Uiso   1.00
O1033  O     0.71444   0.98933   0.76761   0.00000  Uiso   1.00
O1034  O     0.73919   0.98245   0.69236   0.00000  Uiso   1.00
O1035  O     0.87025   0.75381   0.74701   0.00000  Uiso   1.00
O1036  O     0.89280   0.90387   0.74519   0.00000  Uiso   1.00
O1037  O     0.77387   0.76279   0.75481   0.00000  Uiso   1.00
O1038  O     0.78514   0.83784   0.81997   0.00000  Uiso   1.00
O1039  O     0.88153   0.82883   0.68003   0.00000  Uiso   1.00
O1040  O     0.88152   0.82885   0.81217   0.00000  Uiso   1.00
O1041  O     0.78515   0.83781   0.68783   0.00000  Uiso   1.00
O1042  O     0.94423   0.96620   0.92458   0.00000  Uiso   1.00
Zn1043 Zn    0.76898   0.83933   0.75521   0.00000  Uiso   1.00
Zn1044 Zn    0.89769   0.82734   0.74479   0.00000  Uiso   1.00
loop_
_geom_bond_atom_site_label_1
_geom_bond_atom_site_label_2
_geom_bond_distance
_geom_bond_site_symmetry_2
_ccdc_geom_bond_type
Br1    C9      1.940   .     S
Br2    C10     1.941   .     S
Br3    C18     1.940   .     S
Br4    C19     1.932   .     S
C5     O50     1.291   .     A
C5     C26     1.409   .     S
C5     O41     1.275   .     A
C6     H32     1.083   .     S
C6     C8      1.382   .     A
C6     C17     1.389   .     A
C7     C29     1.425   .     S
C7     C30     1.383   .     A
C7     C9      1.400   .     A
C8     C28     1.420   .     S
C8     C10     1.394   .     A
C9     C11     1.409   .     A
C10    C12     1.404   .     A
C11    C18     1.418   .     A
C11    C13     1.424   .     A
C12    C19     1.412   .     A
C12    C14     1.423   .     A
C13    C15     1.415   .     A
C13    C536    1.395   1_554 S
C14    C17     1.415   .     A
C14    C535    1.395   .     S
C15    C30     1.384   .     A
C15    C25     1.412   .     A
C16    O51     1.293   .     A
C16    C27     1.411   .     S
C16    O49     1.273   .     A
C17    C24     1.412   .     A
C18    C546    1.403   1_554 S
C19    C547    1.399   .     S
C20    O56     1.223   .     D
C20    C24     1.482   .     S
C20    O216    1.397   .     S
C21    O44     1.398   .     S
C21    C25     1.487   .     S
C21    O43     1.223   .     D
C22    O46     1.397   .     S
C22    O45     1.220   .     D
C22    C374    1.489   1_545 S
C23    O48     1.397   .     S
C23    O47     1.220   .     D
C23    C201    1.488   .     S
C24    C540    1.403   .     S
C25    C541    1.399   1_554 S
C26    C196    1.489   .     S
C26    C201    1.365   .     S
C27    C374    1.365   1_545 S
C27    C371    1.488   1_545 S
C28    O52     1.283   .     A
C28    O54     1.288   .     A
C29    O55     1.286   .     A
C29    O53     1.288   .     A
C30    H31     1.084   .     S
H33    N155    1.029   1_455 S
H34    N98     1.029   .     S
H35    O42     1.014   .     S
H36    O218    1.014   .     S
H37    O46     1.014   .     S
H38    O48     1.014   .     S
N39    Zn58    2.018   .     S
N39    H91     1.029   .     S
N39    N98     1.282   .     S
N40    Zn57    2.018   .     S
N40    H150    1.029   1_455 S
N40    N155    1.282   1_455 S
O41    Zn57    1.986   .     S
O42    C368    1.397   1_545 S
O44    H384    1.014   1_545 S
O49    Zn58    1.986   .     S
O50    Zn58    2.007   .     S
O51    Zn57    2.007   .     S
O52    Zn57    1.987   .     S
O53    Zn58    1.987   .     S
O54    Zn58    2.003   .     S
O55    Zn57    2.003   .     S
Br59   C67     1.940   .     S
Br60   C68     1.941   .     S
Br61   C76     1.940   .     S
Br62   C77     1.932   .     S
C63    O108    1.291   .     A
C63    C84     1.409   .     S
C63    O99     1.275   .     A
C64    H90     1.083   .     S
C64    C66     1.382   .     A
C64    C75     1.389   .     A
C65    C87     1.425   .     S
C65    C88     1.383   .     A
C65    C67     1.400   .     A
C66    C86     1.420   .     S
C66    C68     1.394   .     A
C67    C69     1.409   .     A
C68    C70     1.404   .     A
C69    C76     1.418   .     A
C69    C71     1.424   .     A
C70    C77     1.412   .     A
C70    C72     1.423   .     A
C71    C73     1.415   .     A
C71    C594    1.395   1_554 S
C72    C75     1.415   .     A
C72    C593    1.395   .     S
C73    C88     1.384   .     A
C73    C83     1.412   .     A
C74    O109    1.293   .     A
C74    C85     1.411   .     S
C74    O107    1.273   .     A
C75    C82     1.412   .     A
C76    C604    1.403   1_554 S
C77    C605    1.399   .     S
C78    O114    1.223   .     D
C78    C82     1.482   .     S
C78    O274    1.397   .     S
C79    O102    1.398   .     S
C79    C83     1.487   .     S
C79    O101    1.223   .     D
C80    O104    1.397   .     S
C80    O103    1.220   .     D
C80    C432    1.489   1_545 S
C81    O106    1.397   .     S
C81    O105    1.220   .     D
C81    C259    1.488   .     S
C82    C598    1.403   .     S
C83    C599    1.399   1_554 S
C84    C254    1.489   .     S
C84    C259    1.365   .     S
C85    C432    1.365   1_545 S
C85    C429    1.488   1_545 S
C86    O110    1.283   .     A
C86    O112    1.288   .     A
C87    O113    1.286   .     A
C87    O111    1.288   .     A
C88    H89     1.084   .     S
H92    N156    1.029   .     S
H93    O100    1.014   .     S
H94    O276    1.014   .     S
H95    O104    1.014   .     S
H96    O106    1.014   .     S
N97    Zn116   2.018   .     S
N97    H149    1.029   .     S
N97    N156    1.282   .     S
N98    Zn115   2.018   .     S
O99    Zn115   1.986   .     S
O100   C426    1.397   1_545 S
O102   H442    1.014   1_545 S
O107   Zn116   1.986   .     S
O108   Zn116   2.007   .     S
O109   Zn115   2.007   .     S
O110   Zn115   1.987   .     S
O111   Zn116   1.987   .     S
O112   Zn116   2.003   .     S
O113   Zn115   2.003   .     S
Br117  C125    1.940   .     S
Br118  C126    1.941   .     S
Br119  C134    1.940   .     S
Br120  C135    1.932   .     S
C121   O166    1.291   .     A
C121   C142    1.409   .     S
C121   O157    1.275   .     A
C122   H148    1.083   .     S
C122   C124    1.382   .     A
C122   C133    1.389   .     A
C123   C145    1.425   .     S
C123   C146    1.383   .     A
C123   C125    1.400   .     A
C124   C144    1.420   .     S
C124   C126    1.394   .     A
C125   C127    1.409   .     A
C126   C128    1.404   .     A
C127   C134    1.418   .     A
C127   C129    1.424   .     A
C128   C135    1.412   .     A
C128   C130    1.423   .     A
C129   C131    1.415   .     A
C129   C652    1.395   1_554 S
C130   C133    1.415   .     A
C130   C651    1.395   .     S
C131   C146    1.384   .     A
C131   C141    1.412   .     A
C132   O167    1.293   .     A
C132   C143    1.411   .     S
C132   O165    1.273   .     A
C133   C140    1.412   .     A
C134   C662    1.403   1_554 S
C135   C663    1.399   .     S
C136   O172    1.223   .     D
C136   C140    1.482   .     S
C136   O332    1.397   .     S
C137   O160    1.398   .     S
C137   C141    1.487   .     S
C137   O159    1.223   .     D
C138   O162    1.397   .     S
C138   O161    1.220   .     D
C138   C490    1.489   1_545 S
C139   O164    1.397   .     S
C139   O163    1.220   .     D
C139   C317    1.488   .     S
C140   C656    1.403   .     S
C141   C657    1.399   1_554 S
C142   C312    1.489   .     S
C142   C317    1.365   .     S
C143   C490    1.365   1_545 S
C143   C487    1.488   1_545 S
C144   O168    1.283   .     A
C144   O170    1.288   .     A
C145   O171    1.286   .     A
C145   O169    1.288   .     A
C146   H147    1.084   .     S
H150   N40     1.029   1_655 S
H151   O158    1.014   .     S
H152   O334    1.014   .     S
H153   O162    1.014   .     S
H154   O164    1.014   .     S
N155   Zn174   2.018   .     S
N155   H33     1.029   1_655 S
N155   N40     1.282   1_655 S
N156   Zn173   2.018   .     S
O157   Zn173   1.986   .     S
O158   C484    1.397   1_545 S
O160   H500    1.014   1_545 S
O165   Zn174   1.986   .     S
O166   Zn174   2.007   .     S
O167   Zn173   2.007   .     S
O168   Zn173   1.987   .     S
O169   Zn174   1.987   .     S
O170   Zn174   2.003   .     S
O171   Zn173   2.003   .     S
Br175  C183    1.940   .     S
Br176  C184    1.941   .     S
Br177  C192    1.940   .     S
Br178  C193    1.932   .     S
C179   O224    1.291   .     A
C179   C200    1.409   .     S
C179   O215    1.275   .     A
C180   H206    1.083   .     S
C180   C182    1.382   .     A
C180   C191    1.389   .     A
C181   C203    1.425   .     S
C181   C204    1.383   .     A
C181   C183    1.400   .     A
C182   C202    1.420   .     S
C182   C184    1.394   .     A
C183   C185    1.409   .     A
C184   C186    1.404   .     A
C185   C192    1.418   .     A
C185   C187    1.424   .     A
C186   C193    1.412   .     A
C186   C188    1.423   .     A
C187   C189    1.415   .     A
C187   C710    1.395   1_554 S
C188   C191    1.415   .     A
C188   C709    1.395   .     S
C189   C204    1.384   .     A
C189   C199    1.412   .     A
C190   O225    1.293   .     A
C190   C201    1.411   .     S
C190   O223    1.273   .     A
C191   C198    1.412   .     A
C192   C720    1.403   1_554 S
C193   C721    1.399   .     S
C194   O230    1.223   .     D
C194   C198    1.482   .     S
C194   O390    1.397   .     S
C195   O218    1.398   .     S
C195   C199    1.487   .     S
C195   O217    1.223   .     D
C196   O220    1.397   .     S
C196   O219    1.220   .     D
C197   O222    1.397   .     S
C197   O221    1.220   .     D
C197   C375    1.488   .     S
C198   C714    1.403   .     S
C199   C715    1.399   1_554 S
C200   C370    1.489   .     S
C200   C375    1.365   .     S
C202   O226    1.283   .     A
C202   O228    1.288   .     A
C203   O229    1.286   .     A
C203   O227    1.288   .     A
C204   H205    1.084   .     S
H207   N329    1.029   1_455 S
H208   N272    1.029   .     S
H209   O216    1.014   .     S
H210   O392    1.014   .     S
H211   O220    1.014   .     S
H212   O222    1.014   .     S
N213   Zn232   2.018   .     S
N213   H265    1.029   .     S
N213   N272    1.282   .     S
N214   Zn231   2.018   .     S
N214   H324    1.029   1_455 S
N214   N329    1.282   1_455 S
O215   Zn231   1.986   .     S
O223   Zn232   1.986   .     S
O224   Zn232   2.007   .     S
O225   Zn231   2.007   .     S
O226   Zn231   1.987   .     S
O227   Zn232   1.987   .     S
O228   Zn232   2.003   .     S
O229   Zn231   2.003   .     S
Br233  C241    1.940   .     S
Br234  C242    1.941   .     S
Br235  C250    1.940   .     S
Br236  C251    1.932   .     S
C237   O282    1.291   .     A
C237   C258    1.409   .     S
C237   O273    1.275   .     A
C238   H264    1.083   .     S
C238   C240    1.382   .     A
C238   C249    1.389   .     A
C239   C261    1.425   .     S
C239   C262    1.383   .     A
C239   C241    1.400   .     A
C240   C260    1.420   .     S
C240   C242    1.394   .     A
C241   C243    1.409   .     A
C242   C244    1.404   .     A
C243   C250    1.418   .     A
C243   C245    1.424   .     A
C244   C251    1.412   .     A
C244   C246    1.423   .     A
C245   C247    1.415   .     A
C245   C768    1.395   1_554 S
C246   C249    1.415   .     A
C246   C767    1.395   .     S
C247   C262    1.384   .     A
C247   C257    1.412   .     A
C248   O283    1.293   .     A
C248   C259    1.411   .     S
C248   O281    1.273   .     A
C249   C256    1.412   .     A
C250   C778    1.403   1_554 S
C251   C779    1.399   .     S
C252   O288    1.223   .     D
C252   C256    1.482   .     S
C252   O448    1.397   .     S
C253   O276    1.398   .     S
C253   C257    1.487   .     S
C253   O275    1.223   .     D
C254   O278    1.397   .     S
C254   O277    1.220   .     D
C255   O280    1.397   .     S
C255   O279    1.220   .     D
C255   C433    1.488   .     S
C256   C772    1.403   .     S
C257   C773    1.399   1_554 S
C258   C428    1.489   .     S
C258   C433    1.365   .     S
C260   O284    1.283   .     A
C260   O286    1.288   .     A
C261   O287    1.286   .     A
C261   O285    1.288   .     A
C262   H263    1.084   .     S
H266   N330    1.029   .     S
H267   O274    1.014   .     S
H268   O450    1.014   .     S
H269   O278    1.014   .     S
H270   O280    1.014   .     S
N271   Zn290   2.018   .     S
N271   H323    1.029   .     S
N271   N330    1.282   .     S
N272   Zn289   2.018   .     S
O273   Zn289   1.986   .     S
O281   Zn290   1.986   .     S
O282   Zn290   2.007   .     S
O283   Zn289   2.007   .     S
O284   Zn289   1.987   .     S
O285   Zn290   1.987   .     S
O286   Zn290   2.003   .     S
O287   Zn289   2.003   .     S
Br291  C299    1.940   .     S
Br292  C300    1.941   .     S
Br293  C308    1.940   .     S
Br294  C309    1.932   .     S
C295   O340    1.291   .     A
C295   C316    1.409   .     S
C295   O331    1.275   .     A
C296   H322    1.083   .     S
C296   C298    1.382   .     A
C296   C307    1.389   .     A
C297   C319    1.425   .     S
C297   C320    1.383   .     A
C297   C299    1.400   .     A
C298   C318    1.420   .     S
C298   C300    1.394   .     A
C299   C301    1.409   .     A
C300   C302    1.404   .     A
C301   C308    1.418   .     A
C301   C303    1.424   .     A
C302   C309    1.412   .     A
C302   C304    1.423   .     A
C303   C305    1.415   .     A
C303   C826    1.395   1_554 S
C304   C307    1.415   .     A
C304   C825    1.395   .     S
C305   C320    1.384   .     A
C305   C315    1.412   .     A
C306   O341    1.293   .     A
C306   C317    1.411   .     S
C306   O339    1.273   .     A
C307   C314    1.412   .     A
C308   C836    1.403   1_554 S
C309   C837    1.399   .     S
C310   O346    1.223   .     D
C310   C314    1.482   .     S
C310   O506    1.397   .     S
C311   O334    1.398   .     S
C311   C315    1.487   .     S
C311   O333    1.223   .     D
C312   O336    1.397   .     S
C312   O335    1.220   .     D
C313   O338    1.397   .     S
C313   O337    1.220   .     D
C313   C491    1.488   .     S
C314   C830    1.403   .     S
C315   C831    1.399   1_554 S
C316   C486    1.489   .     S
C316   C491    1.365   .     S
C318   O342    1.283   .     A
C318   O344    1.288   .     A
C319   O345    1.286   .     A
C319   O343    1.288   .     A
C320   H321    1.084   .     S
H324   N214    1.029   1_655 S
H325   O332    1.014   .     S
H326   O508    1.014   .     S
H327   O336    1.014   .     S
H328   O338    1.014   .     S
N329   Zn348   2.018   .     S
N329   H207    1.029   1_655 S
N329   N214    1.282   1_655 S
N330   Zn347   2.018   .     S
O331   Zn347   1.986   .     S
O339   Zn348   1.986   .     S
O340   Zn348   2.007   .     S
O341   Zn347   2.007   .     S
O342   Zn347   1.987   .     S
O343   Zn348   1.987   .     S
O344   Zn348   2.003   .     S
O345   Zn347   2.003   .     S
Br349  C357    1.940   .     S
Br350  C358    1.941   .     S
Br351  C366    1.940   .     S
Br352  C367    1.932   .     S
C353   O398    1.291   .     A
C353   C374    1.409   .     S
C353   O389    1.275   .     A
C354   H380    1.083   .     S
C354   C356    1.382   .     A
C354   C365    1.389   .     A
C355   C377    1.425   .     S
C355   C378    1.383   .     A
C355   C357    1.400   .     A
C356   C376    1.420   .     S
C356   C358    1.394   .     A
C357   C359    1.409   .     A
C358   C360    1.404   .     A
C359   C366    1.418   .     A
C359   C361    1.424   .     A
C360   C367    1.412   .     A
C360   C362    1.423   .     A
C361   C363    1.415   .     A
C361   C884    1.395   1_554 S
C362   C365    1.415   .     A
C362   C883    1.395   .     S
C363   C378    1.384   .     A
C363   C373    1.412   .     A
C364   O399    1.293   .     A
C364   C375    1.411   .     S
C364   O397    1.273   .     A
C365   C372    1.412   .     A
C366   C894    1.403   1_554 S
C367   C895    1.399   .     S
C368   O404    1.223   .     D
C368   C372    1.482   .     S
C368   O42     1.397   1_565 S
C369   O392    1.398   .     S
C369   C373    1.487   .     S
C369   O391    1.223   .     D
C370   O394    1.397   .     S
C370   O393    1.220   .     D
C371   O396    1.397   .     S
C371   O395    1.220   .     D
C371   C27     1.488   1_565 S
C372   C888    1.403   .     S
C373   C889    1.399   1_554 S
C374   C22     1.489   1_565 S
C374   C27     1.365   1_565 S
C376   O400    1.283   .     A
C376   O402    1.288   .     A
C377   O403    1.286   .     A
C377   O401    1.288   .     A
C378   H379    1.084   .     S
H381   N503    1.029   1_455 S
H382   N446    1.029   .     S
H383   O390    1.014   .     S
H384   O44     1.014   1_565 S
H385   O394    1.014   .     S
H386   O396    1.014   .     S
N387   Zn406   2.018   .     S
N387   H439    1.029   .     S
N387   N446    1.282   .     S
N388   Zn405   2.018   .     S
N388   H498    1.029   1_455 S
N388   N503    1.282   1_455 S
O389   Zn405   1.986   .     S
O397   Zn406   1.986   .     S
O398   Zn406   2.007   .     S
O399   Zn405   2.007   .     S
O400   Zn405   1.987   .     S
O401   Zn406   1.987   .     S
O402   Zn406   2.003   .     S
O403   Zn405   2.003   .     S
Br407  C415    1.940   .     S
Br408  C416    1.941   .     S
Br409  C424    1.940   .     S
Br410  C425    1.932   .     S
C411   O456    1.291   .     A
C411   C432    1.409   .     S
C411   O447    1.275   .     A
C412   H438    1.083   .     S
C412   C414    1.382   .     A
C412   C423    1.389   .     A
C413   C435    1.425   .     S
C413   C436    1.383   .     A
C413   C415    1.400   .     A
C414   C434    1.420   .     S
C414   C416    1.394   .     A
C415   C417    1.409   .     A
C416   C418    1.404   .     A
C417   C424    1.418   .     A
C417   C419    1.424   .     A
C418   C425    1.412   .     A
C418   C420    1.423   .     A
C419   C421    1.415   .     A
C419   C942    1.395   1_554 S
C420   C423    1.415   .     A
C420   C941    1.395   .     S
C421   C436    1.384   .     A
C421   C431    1.412   .     A
C422   O457    1.293   .     A
C422   C433    1.411   .     S
C422   O455    1.273   .     A
C423   C430    1.412   .     A
C424   C952    1.403   1_554 S
C425   C953    1.399   .     S
C426   O462    1.223   .     D
C426   C430    1.482   .     S
C426   O100    1.397   1_565 S
C427   O450    1.398   .     S
C427   C431    1.487   .     S
C427   O449    1.223   .     D
C428   O452    1.397   .     S
C428   O451    1.220   .     D
C429   O454    1.397   .     S
C429   O453    1.220   .     D
C429   C85     1.488   1_565 S
C430   C946    1.403   .     S
C431   C947    1.399   1_554 S
C432   C80     1.489   1_565 S
C432   C85     1.365   1_565 S
C434   O458    1.283   .     A
C434   O460    1.288   .     A
C435   O461    1.286   .     A
C435   O459    1.288   .     A
C436   H437    1.084   .     S
H440   N504    1.029   .     S
H441   O448    1.014   .     S
H442   O102    1.014   1_565 S
H443   O452    1.014   .     S
H444   O454    1.014   .     S
N445   Zn464   2.018   .     S
N445   H497    1.029   .     S
N445   N504    1.282   .     S
N446   Zn463   2.018   .     S
O447   Zn463   1.986   .     S
O455   Zn464   1.986   .     S
O456   Zn464   2.007   .     S
O457   Zn463   2.007   .     S
O458   Zn463   1.987   .     S
O459   Zn464   1.987   .     S
O460   Zn464   2.003   .     S
O461   Zn463   2.003   .     S
Br465  C473    1.940   .     S
Br466  C474    1.941   .     S
Br467  C482    1.940   .     S
Br468  C483    1.932   .     S
C469   O514    1.291   .     A
C469   C490    1.409   .     S
C469   O505    1.275   .     A
C470   H496    1.083   .     S
C470   C472    1.382   .     A
C470   C481    1.389   .     A
C471   C493    1.425   .     S
C471   C494    1.383   .     A
C471   C473    1.400   .     A
C472   C492    1.420   .     S
C472   C474    1.394   .     A
C473   C475    1.409   .     A
C474   C476    1.404   .     A
C475   C482    1.418   .     A
C475   C477    1.424   .     A
C476   C483    1.412   .     A
C476   C478    1.423   .     A
C477   C479    1.415   .     A
C477   C1000   1.395   1_554 S
C478   C481    1.415   .     A
C478   C999    1.395   .     S
C479   C494    1.384   .     A
C479   C489    1.412   .     A
C480   O515    1.293   .     A
C480   C491    1.411   .     S
C480   O513    1.273   .     A
C481   C488    1.412   .     A
C482   C1010   1.403   1_554 S
C483   C1011   1.399   .     S
C484   O520    1.223   .     D
C484   C488    1.482   .     S
C484   O158    1.397   1_565 S
C485   O508    1.398   .     S
C485   C489    1.487   .     S
C485   O507    1.223   .     D
C486   O510    1.397   .     S
C486   O509    1.220   .     D
C487   O512    1.397   .     S
C487   O511    1.220   .     D
C487   C143    1.488   1_565 S
C488   C1004   1.403   .     S
C489   C1005   1.399   1_554 S
C490   C138    1.489   1_565 S
C490   C143    1.365   1_565 S
C492   O516    1.283   .     A
C492   O518    1.288   .     A
C493   O519    1.286   .     A
C493   O517    1.288   .     A
C494   H495    1.084   .     S
H498   N388    1.029   1_655 S
H499   O506    1.014   .     S
H500   O160    1.014   1_565 S
H501   O510    1.014   .     S
H502   O512    1.014   .     S
N503   Zn522   2.018   .     S
N503   H381    1.029   1_655 S
N503   N388    1.282   1_655 S
N504   Zn521   2.018   .     S
O505   Zn521   1.986   .     S
O513   Zn522   1.986   .     S
O514   Zn522   2.007   .     S
O515   Zn521   2.007   .     S
O516   Zn521   1.987   .     S
O517   Zn522   1.987   .     S
O518   Zn522   2.003   .     S
O519   Zn521   2.003   .     S
Br523  C531    1.940   .     S
Br524  C532    1.941   .     S
Br525  C540    1.940   .     S
Br526  C541    1.932   .     S
C527   O572    1.291   .     A
C527   C548    1.409   .     S
C527   O563    1.275   .     A
C528   H554    1.083   .     S
C528   C530    1.382   .     A
C528   C539    1.389   .     A
C529   C551    1.425   .     S
C529   C552    1.383   .     A
C529   C531    1.400   .     A
C530   C550    1.420   .     S
C530   C532    1.394   .     A
C531   C533    1.409   .     A
C532   C534    1.404   .     A
C533   C540    1.418   .     A
C533   C535    1.424   .     A
C534   C541    1.412   .     A
C534   C536    1.423   .     A
C535   C537    1.415   .     A
C536   C539    1.415   .     A
C536   C13     1.395   1_556 S
C537   C552    1.384   .     A
C537   C547    1.412   .     A
C538   O573    1.293   .     A
C538   C549    1.411   .     S
C538   O571    1.273   .     A
C539   C546    1.412   .     A
C541   C25     1.399   1_556 S
C542   O578    1.223   .     D
C542   C546    1.482   .     S
C542   O738    1.397   .     S
C543   O566    1.398   .     S
C543   C547    1.487   .     S
C543   O565    1.223   .     D
C544   O568    1.397   .     S
C544   O567    1.220   .     D
C544   C896    1.489   1_545 S
C545   O570    1.397   .     S
C545   O569    1.220   .     D
C545   C723    1.488   .     S
C546   C18     1.403   1_556 S
C548   C718    1.489   .     S
C548   C723    1.365   .     S
C549   C896    1.365   1_545 S
C549   C893    1.488   1_545 S
C550   O574    1.283   .     A
C550   O576    1.288   .     A
C551   O577    1.286   .     A
C551   O575    1.288   .     A
C552   H553    1.084   .     S
H555   N677    1.029   1_455 S
H556   N620    1.029   .     S
H557   O564    1.014   .     S
H558   O740    1.014   .     S
H559   O568    1.014   .     S
H560   O570    1.014   .     S
N561   Zn580   2.018   .     S
N561   H613    1.029   .     S
N561   N620    1.282   .     S
N562   Zn579   2.018   .     S
N562   H672    1.029   1_455 S
N562   N677    1.282   1_455 S
O563   Zn579   1.986   .     S
O564   C890    1.397   1_545 S
O566   H906    1.014   1_545 S
O571   Zn580   1.986   .     S
O572   Zn580   2.007   .     S
O573   Zn579   2.007   .     S
O574   Zn579   1.987   .     S
O575   Zn580   1.987   .     S
O576   Zn580   2.003   .     S
O577   Zn579   2.003   .     S
Br581  C589    1.940   .     S
Br582  C590    1.941   .     S
Br583  C598    1.940   .     S
Br584  C599    1.932   .     S
C585   O630    1.291   .     A
C585   C606    1.409   .     S
C585   O621    1.275   .     A
C586   H612    1.083   .     S
C586   C588    1.382   .     A
C586   C597    1.389   .     A
C587   C609    1.425   .     S
C587   C610    1.383   .     A
C587   C589    1.400   .     A
C588   C608    1.420   .     S
C588   C590    1.394   .     A
C589   C591    1.409   .     A
C590   C592    1.404   .     A
C591   C598    1.418   .     A
C591   C593    1.424   .     A
C592   C599    1.412   .     A
C592   C594    1.423   .     A
C593   C595    1.415   .     A
C594   C597    1.415   .     A
C594   C71     1.395   1_556 S
C595   C610    1.384   .     A
C595   C605    1.412   .     A
C596   O631    1.293   .     A
C596   C607    1.411   .     S
C596   O629    1.273   .     A
C597   C604    1.412   .     A
C599   C83     1.399   1_556 S
C600   O636    1.223   .     D
C600   C604    1.482   .     S
C600   O796    1.397   .     S
C601   O624    1.398   .     S
C601   C605    1.487   .     S
C601   O623    1.223   .     D
C602   O626    1.397   .     S
C602   O625    1.220   .     D
C602   C954    1.489   1_545 S
C603   O628    1.397   .     S
C603   O627    1.220   .     D
C603   C781    1.488   .     S
C604   C76     1.403   1_556 S
C606   C776    1.489   .     S
C606   C781    1.365   .     S
C607   C954    1.365   1_545 S
C607   C951    1.488   1_545 S
C608   O632    1.283   .     A
C608   O634    1.288   .     A
C609   O635    1.286   .     A
C609   O633    1.288   .     A
C610   H611    1.084   .     S
H614   N678    1.029   .     S
H615   O622    1.014   .     S
H616   O798    1.014   .     S
H617   O626    1.014   .     S
H618   O628    1.014   .     S
N619   Zn638   2.018   .     S
N619   H671    1.029   .     S
N619   N678    1.282   .     S
N620   Zn637   2.018   .     S
O621   Zn637   1.986   .     S
O622   C948    1.397   1_545 S
O624   H964    1.014   1_545 S
O629   Zn638   1.986   .     S
O630   Zn638   2.007   .     S
O631   Zn637   2.007   .     S
O632   Zn637   1.987   .     S
O633   Zn638   1.987   .     S
O634   Zn638   2.003   .     S
O635   Zn637   2.003   .     S
Br639  C647    1.940   .     S
Br640  C648    1.941   .     S
Br641  C656    1.940   .     S
Br642  C657    1.932   .     S
C643   O688    1.291   .     A
C643   C664    1.409   .     S
C643   O679    1.275   .     A
C644   H670    1.083   .     S
C644   C646    1.382   .     A
C644   C655    1.389   .     A
C645   C667    1.425   .     S
C645   C668    1.383   .     A
C645   C647    1.400   .     A
C646   C666    1.420   .     S
C646   C648    1.394   .     A
C647   C649    1.409   .     A
C648   C650    1.404   .     A
C649   C656    1.418   .     A
C649   C651    1.424   .     A
C650   C657    1.412   .     A
C650   C652    1.423   .     A
C651   C653    1.415   .     A
C652   C655    1.415   .     A
C652   C129    1.395   1_556 S
C653   C668    1.384   .     A
C653   C663    1.412   .     A
C654   O689    1.293   .     A
C654   C665    1.411   .     S
C654   O687    1.273   .     A
C655   C662    1.412   .     A
C657   C141    1.399   1_556 S
C658   O694    1.223   .     D
C658   C662    1.482   .     S
C658   O854    1.397   .     S
C659   O682    1.398   .     S
C659   C663    1.487   .     S
C659   O681    1.223   .     D
C660   O684    1.397   .     S
C660   O683    1.220   .     D
C660   C1012   1.489   1_545 S
C661   O686    1.397   .     S
C661   O685    1.220   .     D
C661   C839    1.488   .     S
C662   C134    1.403   1_556 S
C664   C834    1.489   .     S
C664   C839    1.365   .     S
C665   C1012   1.365   1_545 S
C665   C1009   1.488   1_545 S
C666   O690    1.283   .     A
C666   O692    1.288   .     A
C667   O693    1.286   .     A
C667   O691    1.288   .     A
C668   H669    1.084   .     S
H672   N562    1.029   1_655 S
H673   O680    1.014   .     S
H674   O856    1.014   .     S
H675   O684    1.014   .     S
H676   O686    1.014   .     S
N677   Zn696   2.018   .     S
N677   H555    1.029   1_655 S
N677   N562    1.282   1_655 S
N678   Zn695   2.018   .     S
O679   Zn695   1.986   .     S
O680   C1006   1.397   1_545 S
O682   H1022   1.014   1_545 S
O687   Zn696   1.986   .     S
O688   Zn696   2.007   .     S
O689   Zn695   2.007   .     S
O690   Zn695   1.987   .     S
O691   Zn696   1.987   .     S
O692   Zn696   2.003   .     S
O693   Zn695   2.003   .     S
Br697  C705    1.940   .     S
Br698  C706    1.941   .     S
Br699  C714    1.940   .     S
Br700  C715    1.932   .     S
C701   O746    1.291   .     A
C701   C722    1.409   .     S
C701   O737    1.275   .     A
C702   H728    1.083   .     S
C702   C704    1.382   .     A
C702   C713    1.389   .     A
C703   C725    1.425   .     S
C703   C726    1.383   .     A
C703   C705    1.400   .     A
C704   C724    1.420   .     S
C704   C706    1.394   .     A
C705   C707    1.409   .     A
C706   C708    1.404   .     A
C707   C714    1.418   .     A
C707   C709    1.424   .     A
C708   C715    1.412   .     A
C708   C710    1.423   .     A
C709   C711    1.415   .     A
C710   C713    1.415   .     A
C710   C187    1.395   1_556 S
C711   C726    1.384   .     A
C711   C721    1.412   .     A
C712   O747    1.293   .     A
C712   C723    1.411   .     S
C712   O745    1.273   .     A
C713   C720    1.412   .     A
C715   C199    1.399   1_556 S
C716   O752    1.223   .     D
C716   C720    1.482   .     S
C716   O912    1.397   .     S
C717   O740    1.398   .     S
C717   C721    1.487   .     S
C717   O739    1.223   .     D
C718   O742    1.397   .     S
C718   O741    1.220   .     D
C719   O744    1.397   .     S
C719   O743    1.220   .     D
C719   C897    1.488   .     S
C720   C192    1.403   1_556 S
C722   C892    1.489   .     S
C722   C897    1.365   .     S
C724   O748    1.283   .     A
C724   O750    1.288   .     A
C725   O751    1.286   .     A
C725   O749    1.288   .     A
C726   H727    1.084   .     S
H729   N851    1.029   1_455 S
H730   N794    1.029   .     S
H731   O738    1.014   .     S
H732   O914    1.014   .     S
H733   O742    1.014   .     S
H734   O744    1.014   .     S
N735   Zn754   2.018   .     S
N735   H787    1.029   .     S
N735   N794    1.282   .     S
N736   Zn753   2.018   .     S
N736   H846    1.029   1_455 S
N736   N851    1.282   1_455 S
O737   Zn753   1.986   .     S
O745   Zn754   1.986   .     S
O746   Zn754   2.007   .     S
O747   Zn753   2.007   .     S
O748   Zn753   1.987   .     S
O749   Zn754   1.987   .     S
O750   Zn754   2.003   .     S
O751   Zn753   2.003   .     S
Br755  C763    1.940   .     S
Br756  C764    1.941   .     S
Br757  C772    1.940   .     S
Br758  C773    1.932   .     S
C759   O804    1.291   .     A
C759   C780    1.409   .     S
C759   O795    1.275   .     A
C760   H786    1.083   .     S
C760   C762    1.382   .     A
C760   C771    1.389   .     A
C761   C783    1.425   .     S
C761   C784    1.383   .     A
C761   C763    1.400   .     A
C762   C782    1.420   .     S
C762   C764    1.394   .     A
C763   C765    1.409   .     A
C764   C766    1.404   .     A
C765   C772    1.418   .     A
C765   C767    1.424   .     A
C766   C773    1.412   .     A
C766   C768    1.423   .     A
C767   C769    1.415   .     A
C768   C771    1.415   .     A
C768   C245    1.395   1_556 S
C769   C784    1.384   .     A
C769   C779    1.412   .     A
C770   O805    1.293   .     A
C770   C781    1.411   .     S
C770   O803    1.273   .     A
C771   C778    1.412   .     A
C773   C257    1.399   1_556 S
C774   O810    1.223   .     D
C774   C778    1.482   .     S
C774   O970    1.397   .     S
C775   O798    1.398   .     S
C775   C779    1.487   .     S
C775   O797    1.223   .     D
C776   O800    1.397   .     S
C776   O799    1.220   .     D
C777   O802    1.397   .     S
C777   O801    1.220   .     D
C777   C955    1.488   .     S
C778   C250    1.403   1_556 S
C780   C950    1.489   .     S
C780   C955    1.365   .     S
C782   O806    1.283   .     A
C782   O808    1.288   .     A
C783   O809    1.286   .     A
C783   O807    1.288   .     A
C784   H785    1.084   .     S
H788   N852    1.029   .     S
H789   O796    1.014   .     S
H790   O972    1.014   .     S
H791   O800    1.014   .     S
H792   O802    1.014   .     S
N793   Zn812   2.018   .     S
N793   H845    1.029   .     S
N793   N852    1.282   .     S
N794   Zn811   2.018   .     S
O795   Zn811   1.986   .     S
O803   Zn812   1.986   .     S
O804   Zn812   2.007   .     S
O805   Zn811   2.007   .     S
O806   Zn811   1.987   .     S
O807   Zn812   1.987   .     S
O808   Zn812   2.003   .     S
O809   Zn811   2.003   .     S
Br813  C821    1.940   .     S
Br814  C822    1.941   .     S
Br815  C830    1.940   .     S
Br816  C831    1.932   .     S
C817   O862    1.291   .     A
C817   C838    1.409   .     S
C817   O853    1.275   .     A
C818   H844    1.083   .     S
C818   C820    1.382   .     A
C818   C829    1.389   .     A
C819   C841    1.425   .     S
C819   C842    1.383   .     A
C819   C821    1.400   .     A
C820   C840    1.420   .     S
C820   C822    1.394   .     A
C821   C823    1.409   .     A
C822   C824    1.404   .     A
C823   C830    1.418   .     A
C823   C825    1.424   .     A
C824   C831    1.412   .     A
C824   C826    1.423   .     A
C825   C827    1.415   .     A
C826   C829    1.415   .     A
C826   C303    1.395   1_556 S
C827   C842    1.384   .     A
C827   C837    1.412   .     A
C828   O863    1.293   .     A
C828   C839    1.411   .     S
C828   O861    1.273   .     A
C829   C836    1.412   .     A
C831   C315    1.399   1_556 S
C832   O868    1.223   .     D
C832   C836    1.482   .     S
C832   O1028   1.397   .     S
C833   O856    1.398   .     S
C833   C837    1.487   .     S
C833   O855    1.223   .     D
C834   O858    1.397   .     S
C834   O857    1.220   .     D
C835   O860    1.397   .     S
C835   O859    1.220   .     D
C835   C1013   1.488   .     S
C836   C308    1.403   1_556 S
C838   C1008   1.489   .     S
C838   C1013   1.365   .     S
C840   O864    1.283   .     A
C840   O866    1.288   .     A
C841   O867    1.286   .     A
C841   O865    1.288   .     A
C842   H843    1.084   .     S
H846   N736    1.029   1_655 S
H847   O854    1.014   .     S
H848   O1030   1.014   .     S
H849   O858    1.014   .     S
H850   O860    1.014   .     S
N851   Zn870   2.018   .     S
N851   H729    1.029   1_655 S
N851   N736    1.282   1_655 S
N852   Zn869   2.018   .     S
O853   Zn869   1.986   .     S
O861   Zn870   1.986   .     S
O862   Zn870   2.007   .     S
O863   Zn869   2.007   .     S
O864   Zn869   1.987   .     S
O865   Zn870   1.987   .     S
O866   Zn870   2.003   .     S
O867   Zn869   2.003   .     S
Br871  C879    1.940   .     S
Br872  C880    1.941   .     S
Br873  C888    1.940   .     S
Br874  C889    1.932   .     S
C875   O920    1.291   .     A
C875   C896    1.409   .     S
C875   O911    1.275   .     A
C876   H902    1.083   .     S
C876   C878    1.382   .     A
C876   C887    1.389   .     A
C877   C899    1.425   .     S
C877   C900    1.383   .     A
C877   C879    1.400   .     A
C878   C898    1.420   .     S
C878   C880    1.394   .     A
C879   C881    1.409   .     A
C880   C882    1.404   .     A
C881   C888    1.418   .     A
C881   C883    1.424   .     A
C882   C889    1.412   .     A
C882   C884    1.423   .     A
C883   C885    1.415   .     A
C884   C887    1.415   .     A
C884   C361    1.395   1_556 S
C885   C900    1.384   .     A
C885   C895    1.412   .     A
C886   O921    1.293   .     A
C886   C897    1.411   .     S
C886   O919    1.273   .     A
C887   C894    1.412   .     A
C889   C373    1.399   1_556 S
C890   O926    1.223   .     D
C890   C894    1.482   .     S
C890   O564    1.397   1_565 S
C891   O914    1.398   .     S
C891   C895    1.487   .     S
C891   O913    1.223   .     D
C892   O916    1.397   .     S
C892   O915    1.220   .     D
C893   O918    1.397   .     S
C893   O917    1.220   .     D
C893   C549    1.488   1_565 S
C894   C366    1.403   1_556 S
C896   C544    1.489   1_565 S
C896   C549    1.365   1_565 S
C898   O922    1.283   .     A
C898   O924    1.288   .     A
C899   O925    1.286   .     A
C899   O923    1.288   .     A
C900   H901    1.084   .     S
H903   N1025   1.029   1_455 S
H904   N968    1.029   .     S
H905   O912    1.014   .     S
H906   O566    1.014   1_565 S
H907   O916    1.014   .     S
H908   O918    1.014   .     S
N909   Zn928   2.018   .     S
N909   H961    1.029   .     S
N909   N968    1.282   .     S
N910   Zn927   2.018   .     S
N910   H1020   1.029   1_455 S
N910   N1025   1.282   1_455 S
O911   Zn927   1.986   .     S
O919   Zn928   1.986   .     S
O920   Zn928   2.007   .     S
O921   Zn927   2.007   .     S
O922   Zn927   1.987   .     S
O923   Zn928   1.987   .     S
O924   Zn928   2.003   .     S
O925   Zn927   2.003   .     S
Br929  C937    1.940   .     S
Br930  C938    1.941   .     S
Br931  C946    1.940   .     S
Br932  C947    1.932   .     S
C933   O978    1.291   .     A
C933   C954    1.409   .     S
C933   O969    1.275   .     A
C934   H960    1.083   .     S
C934   C936    1.382   .     A
C934   C945    1.389   .     A
C935   C957    1.425   .     S
C935   C958    1.383   .     A
C935   C937    1.400   .     A
C936   C956    1.420   .     S
C936   C938    1.394   .     A
C937   C939    1.409   .     A
C938   C940    1.404   .     A
C939   C946    1.418   .     A
C939   C941    1.424   .     A
C940   C947    1.412   .     A
C940   C942    1.423   .     A
C941   C943    1.415   .     A
C942   C945    1.415   .     A
C942   C419    1.395   1_556 S
C943   C958    1.384   .     A
C943   C953    1.412   .     A
C944   O979    1.293   .     A
C944   C955    1.411   .     S
C944   O977    1.273   .     A
C945   C952    1.412   .     A
C947   C431    1.399   1_556 S
C948   O984    1.223   .     D
C948   C952    1.482   .     S
C948   O622    1.397   1_565 S
C949   O972    1.398   .     S
C949   C953    1.487   .     S
C949   O971    1.223   .     D
C950   O974    1.397   .     S
C950   O973    1.220   .     D
C951   O976    1.397   .     S
C951   O975    1.220   .     D
C951   C607    1.488   1_565 S
C952   C424    1.403   1_556 S
C954   C602    1.489   1_565 S
C954   C607    1.365   1_565 S
C956   O980    1.283   .     A
C956   O982    1.288   .     A
C957   O983    1.286   .     A
C957   O981    1.288   .     A
C958   H959    1.084   .     S
H962   N1026   1.029   .     S
H963   O970    1.014   .     S
H964   O624    1.014   1_565 S
H965   O974    1.014   .     S
H966   O976    1.014   .     S
N967   Zn986   2.018   .     S
N967   H1019   1.029   .     S
N967   N1026   1.282   .     S
N968   Zn985   2.018   .     S
O969   Zn985   1.986   .     S
O977   Zn986   1.986   .     S
O978   Zn986   2.007   .     S
O979   Zn985   2.007   .     S
O980   Zn985   1.987   .     S
O981   Zn986   1.987   .     S
O982   Zn986   2.003   .     S
O983   Zn985   2.003   .     S
Br987  C995    1.940   .     S
Br988  C996    1.941   .     S
Br989  C1004   1.940   .     S
Br990  C1005   1.932   .     S
C991   O1036   1.291   .     A
C991   C1012   1.409   .     S
C991   O1027   1.275   .     A
C992   H1018   1.083   .     S
C992   C994    1.382   .     A
C992   C1003   1.389   .     A
C993   C1015   1.425   .     S
C993   C1016   1.383   .     A
C993   C995    1.400   .     A
C994   C1014   1.420   .     S
C994   C996    1.394   .     A
C995   C997    1.409   .     A
C996   C998    1.404   .     A
C997   C1004   1.418   .     A
C997   C999    1.424   .     A
C998   C1005   1.412   .     A
C998   C1000   1.423   .     A
C999   C1001   1.415   .     A
C1000  C1003   1.415   .     A
C1000  C477    1.395   1_556 S
C1001  C1016   1.384   .     A
C1001  C1011   1.412   .     A
C1002  O1037   1.293   .     A
C1002  C1013   1.411   .     S
C1002  O1035   1.273   .     A
C1003  C1010   1.412   .     A
C1005  C489    1.399   1_556 S
C1006  O1042   1.223   .     D
C1006  C1010   1.482   .     S
C1006  O680    1.397   1_565 S
C1007  O1030   1.398   .     S
C1007  C1011   1.487   .     S
C1007  O1029   1.223   .     D
C1008  O1032   1.397   .     S
C1008  O1031   1.220   .     D
C1009  O1034   1.397   .     S
C1009  O1033   1.220   .     D
C1009  C665    1.488   1_565 S
C1010  C482    1.403   1_556 S
C1012  C660    1.489   1_565 S
C1012  C665    1.365   1_565 S
C1014  O1038   1.283   .     A
C1014  O1040   1.288   .     A
C1015  O1041   1.286   .     A
C1015  O1039   1.288   .     A
C1016  H1017   1.084   .     S
H1020  N910    1.029   1_655 S
H1021  O1028   1.014   .     S
H1022  O682    1.014   1_565 S
H1023  O1032   1.014   .     S
H1024  O1034   1.014   .     S
N1025  Zn1044  2.018   .     S
N1025  H903    1.029   1_655 S
N1025  N910    1.282   1_655 S
N1026  Zn1043  2.018   .     S
O1027  Zn1043  1.986   .     S
O1035  Zn1044  1.986   .     S
O1036  Zn1044  2.007   .     S
O1037  Zn1043  2.007   .     S
O1038  Zn1043  1.987   .     S
O1039  Zn1044  1.987   .     S
O1040  Zn1044  2.003   .     S
O1041  Zn1043  2.003   .     S
