data_str_m3_o10_o17_pcu_sym.21
_audit_creation_date              2020-01-03
_audit_creation_method            'Materials Studio'
_symmetry_space_group_name_H-M    'P1'
_symmetry_Int_Tables_number       1
_symmetry_cell_setting            triclinic
loop_
_symmetry_equiv_pos_as_xyz
  x,y,z
_cell_length_a                    23.3326
_cell_length_b                    25.6668
_cell_length_c                    30.0320
_cell_angle_alpha                 92.6011
_cell_angle_beta                  86.4370
_cell_angle_gamma                 94.0411
loop_
_atom_site_label
_atom_site_type_symbol
_atom_site_fract_x
_atom_site_fract_y
_atom_site_fract_z
_atom_site_U_iso_or_equiv
_atom_site_adp_type
_atom_site_occupancy
C1     C     0.18197   0.26491   0.24925   0.00000  Uiso   1.00
C2     C     0.19809   0.20812   0.40652   0.00000  Uiso   1.00
C3     C     0.16442   0.16874   0.11630   0.00000  Uiso   1.00
C4     C     0.16866   0.16626   0.38377   0.00000  Uiso   1.00
C5     C     0.19726   0.20856   0.09389   0.00000  Uiso   1.00
C6     C     0.13849   0.12467   0.40588   0.00000  Uiso   1.00
C7     C     0.19778   0.20724   0.04695   0.00000  Uiso   1.00
C8     C     0.13668   0.12617   0.45285   0.00000  Uiso   1.00
C9     C     0.16520   0.16745   0.02355   0.00000  Uiso   1.00
C10    C     0.16576   0.16804   0.47654   0.00000  Uiso   1.00
C11    C     0.13356   0.12650   0.04691   0.00000  Uiso   1.00
C12    C     0.15137   0.06842   0.25078   0.00000  Uiso   1.00
C13    C     0.19585   0.21015   0.45343   0.00000  Uiso   1.00
C14    C     0.22952   0.24611   0.02319   0.00000  Uiso   1.00
C15    C     0.10816   0.08517   0.47631   0.00000  Uiso   1.00
C16    C     0.22844   0.25410   0.12009   0.00000  Uiso   1.00
C17    C     0.19852   0.30539   0.11836   0.00000  Uiso   1.00
C18    C     0.23766   0.01908   0.13299   0.00000  Uiso   1.00
C19    C     0.11228   0.07717   0.37893   0.00000  Uiso   1.00
C20    C     0.04572   0.07393   0.38161   0.00000  Uiso   1.00
C21    C     0.01984   0.06546   0.33626   0.00000  Uiso   1.00
C22    C     0.24509   0.30500   0.45843   0.00000  Uiso   1.00
C23    C     0.22352   0.25242   0.47818   0.00000  Uiso   1.00
C24    C     0.24821   0.01901   0.49232   0.00000  Uiso   1.00
C25    C     0.26454   0.07040   0.46984   0.00000  Uiso   1.00
C26    C     0.08198   0.03311   0.04458   0.00000  Uiso   1.00
C27    C     0.07554   0.31653   0.01405   0.00000  Uiso   1.00
C28    C     0.06133   0.26798   0.04116   0.00000  Uiso   1.00
C29    C     0.10745   0.08309   0.02249   0.00000  Uiso   1.00
C30    C     0.18997   0.31953   0.24958   0.00000  Uiso   1.00
C31    C     0.14337   0.01382   0.25109   0.00000  Uiso   1.00
C32    C     0.16759   0.16707   0.33624   0.00000  Uiso   1.00
C33    C     0.16585   0.16731   0.16378   0.00000  Uiso   1.00
C34    C     0.13080   0.12949   0.09385   0.00000  Uiso   1.00
H35    H     0.25791   0.27357   0.04019   0.00000  Uiso   1.00
H36    H     0.25226   0.01408   0.16688   0.00000  Uiso   1.00
H37    H     0.27588   0.02378   0.10920   0.00000  Uiso   1.00
H38    H     0.18622   0.31168   0.08419   0.00000  Uiso   1.00
H39    H     0.15853   0.30334   0.14054   0.00000  Uiso   1.00
H40    H     0.23141   0.24741   0.15582   0.00000  Uiso   1.00
H41    H     0.27414   0.25854   0.10779   0.00000  Uiso   1.00
H42    H     0.02890   0.10080   0.31660   0.00000  Uiso   1.00
H43    H     0.03732   0.03102   0.31783   0.00000  Uiso   1.00
H44    H     0.30571   0.05840   0.34107   0.00000  Uiso   1.00
H45    H     0.02956   0.04000   0.40153   0.00000  Uiso   1.00
H46    H     0.08658   0.05347   0.45848   0.00000  Uiso   1.00
H47    H     0.02915   0.11005   0.39799   0.00000  Uiso   1.00
H48    H     0.12890   0.07607   0.34363   0.00000  Uiso   1.00
H49    H     0.12790   0.04074   0.39108   0.00000  Uiso   1.00
H50    H     0.31125   0.07344   0.46099   0.00000  Uiso   1.00
H51    H     0.24033   0.07374   0.43955   0.00000  Uiso   1.00
H52    H     0.25558   0.10344   0.49374   0.00000  Uiso   1.00
H53    H     0.20591   0.02183   0.01089   0.00000  Uiso   1.00
H54    H     0.28123   0.01514   0.01669   0.00000  Uiso   1.00
H55    H     0.28811   0.30115   0.44103   0.00000  Uiso   1.00
H56    H     0.21408   0.31501   0.43405   0.00000  Uiso   1.00
H57    H     0.23392   0.00349   0.24865   0.00000  Uiso   1.00
H58    H     0.09669   0.26185   0.06294   0.00000  Uiso   1.00
H59    H     0.02140   0.27246   0.06237   0.00000  Uiso   1.00
H60    H     0.05513   0.23306   0.01831   0.00000  Uiso   1.00
H61    H     0.04019   0.31954   0.49142   0.00000  Uiso   1.00
H62    H     0.11608   0.31106   0.49354   0.00000  Uiso   1.00
H63    H     0.11119   0.02375   0.07026   0.00000  Uiso   1.00
H64    H     0.03919   0.04063   0.06100   0.00000  Uiso   1.00
H65    H     0.09943   0.32985   0.25215   0.00000  Uiso   1.00
H66    H     0.00421   0.12730   0.21584   0.00000  Uiso   1.00
H67    H     0.32911   0.20595   0.28422   0.00000  Uiso   1.00
H68    H     0.11058   0.08501   0.14417   0.00000  Uiso   1.00
H69    H     0.21553   0.25193   0.35507   0.00000  Uiso   1.00
H70    H     0.21390   0.05509   0.13349   0.00000  Uiso   1.00
N71    N     0.31678   0.15265   0.23783   0.00000  Uiso   1.00
N72    N     0.01656   0.18068   0.26217   0.00000  Uiso   1.00
O73    O     0.12975   0.24619   0.25299   0.00000  Uiso   1.00
O74    O     0.23283   0.24485   0.38326   0.00000  Uiso   1.00
O75    O     0.20358   0.08714   0.24701   0.00000  Uiso   1.00
O76    O     0.22613   0.23721   0.24519   0.00000  Uiso   1.00
O77    O     0.10720   0.09613   0.25481   0.00000  Uiso   1.00
O78    O     0.11847   0.17117   0.31997   0.00000  Uiso   1.00
O79    O     0.21486   0.16216   0.18003   0.00000  Uiso   1.00
O80    O     0.21485   0.16219   0.31218   0.00000  Uiso   1.00
O81    O     0.11848   0.17115   0.18783   0.00000  Uiso   1.00
O82    O     0.09232   0.09621   0.11761   0.00000  Uiso   1.00
Zn83   Zn    0.10231   0.17266   0.25521   0.00000  Uiso   1.00
Zn84   Zn    0.23102   0.16067   0.24479   0.00000  Uiso   1.00
C85    C     0.51530   0.26491   0.24925   0.00000  Uiso   1.00
C86    C     0.53142   0.20812   0.40652   0.00000  Uiso   1.00
C87    C     0.49775   0.16874   0.11630   0.00000  Uiso   1.00
C88    C     0.50199   0.16626   0.38377   0.00000  Uiso   1.00
C89    C     0.53059   0.20856   0.09389   0.00000  Uiso   1.00
C90    C     0.47182   0.12467   0.40588   0.00000  Uiso   1.00
C91    C     0.53112   0.20724   0.04695   0.00000  Uiso   1.00
C92    C     0.47001   0.12617   0.45285   0.00000  Uiso   1.00
C93    C     0.49853   0.16745   0.02355   0.00000  Uiso   1.00
C94    C     0.49909   0.16804   0.47654   0.00000  Uiso   1.00
C95    C     0.46689   0.12650   0.04691   0.00000  Uiso   1.00
C96    C     0.48470   0.06842   0.25078   0.00000  Uiso   1.00
C97    C     0.52918   0.21015   0.45343   0.00000  Uiso   1.00
C98    C     0.56286   0.24611   0.02319   0.00000  Uiso   1.00
C99    C     0.44149   0.08517   0.47631   0.00000  Uiso   1.00
C100   C     0.56178   0.25410   0.12009   0.00000  Uiso   1.00
C101   C     0.53186   0.30539   0.11836   0.00000  Uiso   1.00
C102   C     0.57099   0.01908   0.13299   0.00000  Uiso   1.00
C103   C     0.44562   0.07717   0.37893   0.00000  Uiso   1.00
C104   C     0.37905   0.07393   0.38161   0.00000  Uiso   1.00
C105   C     0.35317   0.06546   0.33626   0.00000  Uiso   1.00
C106   C     0.57842   0.30500   0.45843   0.00000  Uiso   1.00
C107   C     0.55685   0.25242   0.47818   0.00000  Uiso   1.00
C108   C     0.58154   0.01901   0.49232   0.00000  Uiso   1.00
C109   C     0.59787   0.07040   0.46984   0.00000  Uiso   1.00
C110   C     0.41531   0.03311   0.04458   0.00000  Uiso   1.00
C111   C     0.40887   0.31653   0.01405   0.00000  Uiso   1.00
C112   C     0.39466   0.26798   0.04116   0.00000  Uiso   1.00
C113   C     0.44078   0.08309   0.02249   0.00000  Uiso   1.00
C114   C     0.52330   0.31953   0.24958   0.00000  Uiso   1.00
C115   C     0.47671   0.01382   0.25109   0.00000  Uiso   1.00
C116   C     0.50092   0.16707   0.33624   0.00000  Uiso   1.00
C117   C     0.49918   0.16731   0.16378   0.00000  Uiso   1.00
C118   C     0.46414   0.12949   0.09385   0.00000  Uiso   1.00
H119   H     0.59125   0.27357   0.04019   0.00000  Uiso   1.00
H120   H     0.58559   0.01408   0.16688   0.00000  Uiso   1.00
H121   H     0.60921   0.02378   0.10920   0.00000  Uiso   1.00
H122   H     0.51955   0.31168   0.08419   0.00000  Uiso   1.00
H123   H     0.49186   0.30334   0.14054   0.00000  Uiso   1.00
H124   H     0.56474   0.24741   0.15582   0.00000  Uiso   1.00
H125   H     0.60747   0.25854   0.10779   0.00000  Uiso   1.00
H126   H     0.36224   0.10080   0.31660   0.00000  Uiso   1.00
H127   H     0.37065   0.03102   0.31783   0.00000  Uiso   1.00
H128   H     0.63904   0.05840   0.34107   0.00000  Uiso   1.00
H129   H     0.36289   0.04000   0.40153   0.00000  Uiso   1.00
H130   H     0.41992   0.05347   0.45848   0.00000  Uiso   1.00
H131   H     0.36248   0.11005   0.39799   0.00000  Uiso   1.00
H132   H     0.46224   0.07607   0.34363   0.00000  Uiso   1.00
H133   H     0.46124   0.04074   0.39108   0.00000  Uiso   1.00
H134   H     0.64459   0.07344   0.46099   0.00000  Uiso   1.00
H135   H     0.57366   0.07374   0.43955   0.00000  Uiso   1.00
H136   H     0.58892   0.10344   0.49374   0.00000  Uiso   1.00
H137   H     0.53925   0.02183   0.01089   0.00000  Uiso   1.00
H138   H     0.61456   0.01514   0.01669   0.00000  Uiso   1.00
H139   H     0.62144   0.30115   0.44103   0.00000  Uiso   1.00
H140   H     0.54742   0.31501   0.43405   0.00000  Uiso   1.00
H141   H     0.56726   0.00349   0.24865   0.00000  Uiso   1.00
H142   H     0.43002   0.26185   0.06294   0.00000  Uiso   1.00
H143   H     0.35474   0.27246   0.06237   0.00000  Uiso   1.00
H144   H     0.38846   0.23306   0.01831   0.00000  Uiso   1.00
H145   H     0.37353   0.31954   0.49142   0.00000  Uiso   1.00
H146   H     0.44942   0.31106   0.49354   0.00000  Uiso   1.00
H147   H     0.44453   0.02375   0.07026   0.00000  Uiso   1.00
H148   H     0.37252   0.04063   0.06100   0.00000  Uiso   1.00
H149   H     0.43276   0.32985   0.25215   0.00000  Uiso   1.00
H150   H     0.33754   0.12730   0.21584   0.00000  Uiso   1.00
H151   H     0.66245   0.20595   0.28422   0.00000  Uiso   1.00
H152   H     0.44391   0.08501   0.14417   0.00000  Uiso   1.00
H153   H     0.54886   0.25193   0.35507   0.00000  Uiso   1.00
H154   H     0.54723   0.05509   0.13349   0.00000  Uiso   1.00
N155   N     0.65011   0.15265   0.23783   0.00000  Uiso   1.00
N156   N     0.34989   0.18068   0.26217   0.00000  Uiso   1.00
O157   O     0.46308   0.24619   0.25299   0.00000  Uiso   1.00
O158   O     0.56617   0.24485   0.38326   0.00000  Uiso   1.00
O159   O     0.53692   0.08714   0.24701   0.00000  Uiso   1.00
O160   O     0.55946   0.23721   0.24519   0.00000  Uiso   1.00
O161   O     0.44054   0.09613   0.25481   0.00000  Uiso   1.00
O162   O     0.45181   0.17117   0.31997   0.00000  Uiso   1.00
O163   O     0.54819   0.16216   0.18003   0.00000  Uiso   1.00
O164   O     0.54819   0.16219   0.31218   0.00000  Uiso   1.00
O165   O     0.45181   0.17115   0.18783   0.00000  Uiso   1.00
O166   O     0.42565   0.09621   0.11761   0.00000  Uiso   1.00
Zn167  Zn    0.43565   0.17266   0.25521   0.00000  Uiso   1.00
Zn168  Zn    0.56435   0.16067   0.24479   0.00000  Uiso   1.00
C169   C     0.84863   0.26491   0.24925   0.00000  Uiso   1.00
C170   C     0.86475   0.20812   0.40652   0.00000  Uiso   1.00
C171   C     0.83109   0.16874   0.11630   0.00000  Uiso   1.00
C172   C     0.83533   0.16626   0.38377   0.00000  Uiso   1.00
C173   C     0.86393   0.20856   0.09389   0.00000  Uiso   1.00
C174   C     0.80516   0.12467   0.40588   0.00000  Uiso   1.00
C175   C     0.86445   0.20724   0.04695   0.00000  Uiso   1.00
C176   C     0.80334   0.12617   0.45285   0.00000  Uiso   1.00
C177   C     0.83186   0.16745   0.02355   0.00000  Uiso   1.00
C178   C     0.83243   0.16804   0.47654   0.00000  Uiso   1.00
C179   C     0.80022   0.12650   0.04691   0.00000  Uiso   1.00
C180   C     0.81803   0.06842   0.25078   0.00000  Uiso   1.00
C181   C     0.86251   0.21015   0.45343   0.00000  Uiso   1.00
C182   C     0.89619   0.24611   0.02319   0.00000  Uiso   1.00
C183   C     0.77482   0.08517   0.47631   0.00000  Uiso   1.00
C184   C     0.89511   0.25410   0.12009   0.00000  Uiso   1.00
C185   C     0.86519   0.30539   0.11836   0.00000  Uiso   1.00
C186   C     0.90432   0.01908   0.13299   0.00000  Uiso   1.00
C187   C     0.77895   0.07717   0.37893   0.00000  Uiso   1.00
C188   C     0.71238   0.07393   0.38161   0.00000  Uiso   1.00
C189   C     0.68650   0.06546   0.33626   0.00000  Uiso   1.00
C190   C     0.91175   0.30500   0.45843   0.00000  Uiso   1.00
C191   C     0.89018   0.25242   0.47818   0.00000  Uiso   1.00
C192   C     0.91487   0.01901   0.49232   0.00000  Uiso   1.00
C193   C     0.93121   0.07040   0.46984   0.00000  Uiso   1.00
C194   C     0.74865   0.03311   0.04458   0.00000  Uiso   1.00
C195   C     0.74220   0.31653   0.01405   0.00000  Uiso   1.00
C196   C     0.72800   0.26798   0.04116   0.00000  Uiso   1.00
C197   C     0.77412   0.08309   0.02249   0.00000  Uiso   1.00
C198   C     0.85664   0.31953   0.24958   0.00000  Uiso   1.00
C199   C     0.81004   0.01382   0.25109   0.00000  Uiso   1.00
C200   C     0.83425   0.16707   0.33624   0.00000  Uiso   1.00
C201   C     0.83251   0.16731   0.16378   0.00000  Uiso   1.00
C202   C     0.79747   0.12949   0.09385   0.00000  Uiso   1.00
H203   H     0.92458   0.27357   0.04019   0.00000  Uiso   1.00
H204   H     0.91893   0.01408   0.16688   0.00000  Uiso   1.00
H205   H     0.94254   0.02378   0.10920   0.00000  Uiso   1.00
H206   H     0.85289   0.31168   0.08419   0.00000  Uiso   1.00
H207   H     0.82519   0.30334   0.14054   0.00000  Uiso   1.00
H208   H     0.89807   0.24741   0.15582   0.00000  Uiso   1.00
H209   H     0.94080   0.25854   0.10779   0.00000  Uiso   1.00
H210   H     0.69557   0.10080   0.31660   0.00000  Uiso   1.00
H211   H     0.70399   0.03102   0.31783   0.00000  Uiso   1.00
H212   H     0.97237   0.05840   0.34107   0.00000  Uiso   1.00
H213   H     0.69623   0.04000   0.40153   0.00000  Uiso   1.00
H214   H     0.75325   0.05347   0.45848   0.00000  Uiso   1.00
H215   H     0.69581   0.11005   0.39799   0.00000  Uiso   1.00
H216   H     0.79557   0.07607   0.34363   0.00000  Uiso   1.00
H217   H     0.79457   0.04074   0.39108   0.00000  Uiso   1.00
H218   H     0.97792   0.07344   0.46099   0.00000  Uiso   1.00
H219   H     0.90699   0.07374   0.43955   0.00000  Uiso   1.00
H220   H     0.92225   0.10344   0.49374   0.00000  Uiso   1.00
H221   H     0.87258   0.02183   0.01089   0.00000  Uiso   1.00
H222   H     0.94789   0.01514   0.01669   0.00000  Uiso   1.00
H223   H     0.95478   0.30115   0.44103   0.00000  Uiso   1.00
H224   H     0.88075   0.31501   0.43405   0.00000  Uiso   1.00
H225   H     0.90059   0.00349   0.24865   0.00000  Uiso   1.00
H226   H     0.76335   0.26185   0.06294   0.00000  Uiso   1.00
H227   H     0.68807   0.27246   0.06237   0.00000  Uiso   1.00
H228   H     0.72179   0.23306   0.01831   0.00000  Uiso   1.00
H229   H     0.70686   0.31954   0.49142   0.00000  Uiso   1.00
H230   H     0.78275   0.31106   0.49354   0.00000  Uiso   1.00
H231   H     0.77786   0.02375   0.07026   0.00000  Uiso   1.00
H232   H     0.70586   0.04063   0.06100   0.00000  Uiso   1.00
H233   H     0.76610   0.32985   0.25215   0.00000  Uiso   1.00
H234   H     0.67087   0.12730   0.21584   0.00000  Uiso   1.00
H235   H     0.99578   0.20595   0.28422   0.00000  Uiso   1.00
H236   H     0.77725   0.08501   0.14417   0.00000  Uiso   1.00
H237   H     0.88220   0.25193   0.35507   0.00000  Uiso   1.00
H238   H     0.88057   0.05509   0.13349   0.00000  Uiso   1.00
N239   N     0.98344   0.15265   0.23783   0.00000  Uiso   1.00
N240   N     0.68322   0.18068   0.26217   0.00000  Uiso   1.00
O241   O     0.79642   0.24619   0.25299   0.00000  Uiso   1.00
O242   O     0.89950   0.24485   0.38326   0.00000  Uiso   1.00
O243   O     0.87025   0.08714   0.24701   0.00000  Uiso   1.00
O244   O     0.89280   0.23721   0.24519   0.00000  Uiso   1.00
O245   O     0.77387   0.09613   0.25481   0.00000  Uiso   1.00
O246   O     0.78514   0.17117   0.31997   0.00000  Uiso   1.00
O247   O     0.88153   0.16216   0.18003   0.00000  Uiso   1.00
O248   O     0.88152   0.16219   0.31218   0.00000  Uiso   1.00
O249   O     0.78515   0.17115   0.18783   0.00000  Uiso   1.00
O250   O     0.75899   0.09621   0.11761   0.00000  Uiso   1.00
Zn251  Zn    0.76898   0.17266   0.25521   0.00000  Uiso   1.00
Zn252  Zn    0.89769   0.16067   0.24479   0.00000  Uiso   1.00
C253   C     0.18197   0.59825   0.24925   0.00000  Uiso   1.00
C254   C     0.19809   0.54145   0.40652   0.00000  Uiso   1.00
C255   C     0.16442   0.50208   0.11630   0.00000  Uiso   1.00
C256   C     0.16866   0.49960   0.38377   0.00000  Uiso   1.00
C257   C     0.19726   0.54189   0.09389   0.00000  Uiso   1.00
C258   C     0.13849   0.45801   0.40588   0.00000  Uiso   1.00
C259   C     0.19778   0.54058   0.04695   0.00000  Uiso   1.00
C260   C     0.13668   0.45950   0.45285   0.00000  Uiso   1.00
C261   C     0.16520   0.50079   0.02355   0.00000  Uiso   1.00
C262   C     0.16576   0.50137   0.47654   0.00000  Uiso   1.00
C263   C     0.13356   0.45984   0.04691   0.00000  Uiso   1.00
C264   C     0.15137   0.40175   0.25078   0.00000  Uiso   1.00
C265   C     0.19585   0.54348   0.45343   0.00000  Uiso   1.00
C266   C     0.22952   0.57944   0.02319   0.00000  Uiso   1.00
C267   C     0.10816   0.41851   0.47631   0.00000  Uiso   1.00
C268   C     0.22844   0.58743   0.12009   0.00000  Uiso   1.00
C269   C     0.19852   0.63872   0.11836   0.00000  Uiso   1.00
C270   C     0.23766   0.35241   0.13299   0.00000  Uiso   1.00
C271   C     0.11228   0.41050   0.37893   0.00000  Uiso   1.00
C272   C     0.04572   0.40726   0.38161   0.00000  Uiso   1.00
C273   C     0.01984   0.39879   0.33626   0.00000  Uiso   1.00
C274   C     0.24509   0.63833   0.45843   0.00000  Uiso   1.00
C275   C     0.22352   0.58576   0.47818   0.00000  Uiso   1.00
C276   C     0.24821   0.35234   0.49232   0.00000  Uiso   1.00
C277   C     0.26454   0.40373   0.46984   0.00000  Uiso   1.00
C278   C     0.08198   0.36644   0.04458   0.00000  Uiso   1.00
C279   C     0.07554   0.64986   0.01405   0.00000  Uiso   1.00
C280   C     0.06133   0.60131   0.04116   0.00000  Uiso   1.00
C281   C     0.10745   0.41642   0.02249   0.00000  Uiso   1.00
C282   C     0.18997   0.65287   0.24958   0.00000  Uiso   1.00
C283   C     0.14337   0.34715   0.25109   0.00000  Uiso   1.00
C284   C     0.16759   0.50041   0.33624   0.00000  Uiso   1.00
C285   C     0.16585   0.50064   0.16378   0.00000  Uiso   1.00
C286   C     0.13080   0.46283   0.09385   0.00000  Uiso   1.00
H287   H     0.25791   0.60690   0.04019   0.00000  Uiso   1.00
H288   H     0.25226   0.34741   0.16688   0.00000  Uiso   1.00
H289   H     0.27588   0.35711   0.10920   0.00000  Uiso   1.00
H290   H     0.18622   0.64502   0.08419   0.00000  Uiso   1.00
H291   H     0.15853   0.63667   0.14054   0.00000  Uiso   1.00
H292   H     0.23141   0.58074   0.15582   0.00000  Uiso   1.00
H293   H     0.27414   0.59187   0.10779   0.00000  Uiso   1.00
H294   H     0.02890   0.43414   0.31660   0.00000  Uiso   1.00
H295   H     0.03732   0.36435   0.31783   0.00000  Uiso   1.00
H296   H     0.30571   0.39173   0.34107   0.00000  Uiso   1.00
H297   H     0.02956   0.37333   0.40153   0.00000  Uiso   1.00
H298   H     0.08658   0.38681   0.45848   0.00000  Uiso   1.00
H299   H     0.02915   0.44339   0.39799   0.00000  Uiso   1.00
H300   H     0.12890   0.40940   0.34363   0.00000  Uiso   1.00
H301   H     0.12790   0.37407   0.39108   0.00000  Uiso   1.00
H302   H     0.31125   0.40677   0.46099   0.00000  Uiso   1.00
H303   H     0.24033   0.40707   0.43955   0.00000  Uiso   1.00
H304   H     0.25558   0.43677   0.49374   0.00000  Uiso   1.00
H305   H     0.20591   0.35516   0.01089   0.00000  Uiso   1.00
H306   H     0.28123   0.34847   0.01669   0.00000  Uiso   1.00
H307   H     0.28811   0.63448   0.44103   0.00000  Uiso   1.00
H308   H     0.21408   0.64834   0.43405   0.00000  Uiso   1.00
H309   H     0.23392   0.33682   0.24865   0.00000  Uiso   1.00
H310   H     0.09669   0.59518   0.06294   0.00000  Uiso   1.00
H311   H     0.02140   0.60579   0.06237   0.00000  Uiso   1.00
H312   H     0.05513   0.56639   0.01831   0.00000  Uiso   1.00
H313   H     0.04019   0.65287   0.49142   0.00000  Uiso   1.00
H314   H     0.11608   0.64439   0.49354   0.00000  Uiso   1.00
H315   H     0.11119   0.35708   0.07026   0.00000  Uiso   1.00
H316   H     0.03919   0.37397   0.06100   0.00000  Uiso   1.00
H317   H     0.09943   0.66318   0.25215   0.00000  Uiso   1.00
H318   H     0.00421   0.46064   0.21584   0.00000  Uiso   1.00
H319   H     0.32911   0.53928   0.28422   0.00000  Uiso   1.00
H320   H     0.11058   0.41834   0.14417   0.00000  Uiso   1.00
H321   H     0.21553   0.58526   0.35507   0.00000  Uiso   1.00
H322   H     0.21390   0.38842   0.13349   0.00000  Uiso   1.00
N323   N     0.31678   0.48598   0.23783   0.00000  Uiso   1.00
N324   N     0.01656   0.51402   0.26217   0.00000  Uiso   1.00
O325   O     0.12975   0.57952   0.25299   0.00000  Uiso   1.00
O326   O     0.23283   0.57818   0.38326   0.00000  Uiso   1.00
O327   O     0.20358   0.42048   0.24701   0.00000  Uiso   1.00
O328   O     0.22613   0.57054   0.24519   0.00000  Uiso   1.00
O329   O     0.10720   0.42946   0.25481   0.00000  Uiso   1.00
O330   O     0.11847   0.50450   0.31997   0.00000  Uiso   1.00
O331   O     0.21486   0.49550   0.18003   0.00000  Uiso   1.00
O332   O     0.21485   0.49552   0.31218   0.00000  Uiso   1.00
O333   O     0.11848   0.50448   0.18783   0.00000  Uiso   1.00
O334   O     0.09232   0.42954   0.11761   0.00000  Uiso   1.00
Zn335  Zn    0.10231   0.50600   0.25521   0.00000  Uiso   1.00
Zn336  Zn    0.23102   0.49400   0.24479   0.00000  Uiso   1.00
C337   C     0.51530   0.59825   0.24925   0.00000  Uiso   1.00
C338   C     0.53142   0.54145   0.40652   0.00000  Uiso   1.00
C339   C     0.49775   0.50208   0.11630   0.00000  Uiso   1.00
C340   C     0.50199   0.49960   0.38377   0.00000  Uiso   1.00
C341   C     0.53059   0.54189   0.09389   0.00000  Uiso   1.00
C342   C     0.47182   0.45801   0.40588   0.00000  Uiso   1.00
C343   C     0.53112   0.54058   0.04695   0.00000  Uiso   1.00
C344   C     0.47001   0.45950   0.45285   0.00000  Uiso   1.00
C345   C     0.49853   0.50079   0.02355   0.00000  Uiso   1.00
C346   C     0.49909   0.50137   0.47654   0.00000  Uiso   1.00
C347   C     0.46689   0.45984   0.04691   0.00000  Uiso   1.00
C348   C     0.48470   0.40175   0.25078   0.00000  Uiso   1.00
C349   C     0.52918   0.54348   0.45343   0.00000  Uiso   1.00
C350   C     0.56286   0.57944   0.02319   0.00000  Uiso   1.00
C351   C     0.44149   0.41851   0.47631   0.00000  Uiso   1.00
C352   C     0.56178   0.58743   0.12009   0.00000  Uiso   1.00
C353   C     0.53186   0.63872   0.11836   0.00000  Uiso   1.00
C354   C     0.57099   0.35241   0.13299   0.00000  Uiso   1.00
C355   C     0.44562   0.41050   0.37893   0.00000  Uiso   1.00
C356   C     0.37905   0.40726   0.38161   0.00000  Uiso   1.00
C357   C     0.35317   0.39879   0.33626   0.00000  Uiso   1.00
C358   C     0.57842   0.63833   0.45843   0.00000  Uiso   1.00
C359   C     0.55685   0.58576   0.47818   0.00000  Uiso   1.00
C360   C     0.58154   0.35234   0.49232   0.00000  Uiso   1.00
C361   C     0.59787   0.40373   0.46984   0.00000  Uiso   1.00
C362   C     0.41531   0.36644   0.04458   0.00000  Uiso   1.00
C363   C     0.40887   0.64986   0.01405   0.00000  Uiso   1.00
C364   C     0.39466   0.60131   0.04116   0.00000  Uiso   1.00
C365   C     0.44078   0.41642   0.02249   0.00000  Uiso   1.00
C366   C     0.52330   0.65287   0.24958   0.00000  Uiso   1.00
C367   C     0.47671   0.34715   0.25109   0.00000  Uiso   1.00
C368   C     0.50092   0.50041   0.33624   0.00000  Uiso   1.00
C369   C     0.49918   0.50064   0.16378   0.00000  Uiso   1.00
C370   C     0.46414   0.46283   0.09385   0.00000  Uiso   1.00
H371   H     0.59125   0.60690   0.04019   0.00000  Uiso   1.00
H372   H     0.58559   0.34741   0.16688   0.00000  Uiso   1.00
H373   H     0.60921   0.35711   0.10920   0.00000  Uiso   1.00
H374   H     0.51955   0.64502   0.08419   0.00000  Uiso   1.00
H375   H     0.49186   0.63667   0.14054   0.00000  Uiso   1.00
H376   H     0.56474   0.58074   0.15582   0.00000  Uiso   1.00
H377   H     0.60747   0.59187   0.10779   0.00000  Uiso   1.00
H378   H     0.36224   0.43414   0.31660   0.00000  Uiso   1.00
H379   H     0.37065   0.36435   0.31783   0.00000  Uiso   1.00
H380   H     0.63904   0.39173   0.34107   0.00000  Uiso   1.00
H381   H     0.36289   0.37333   0.40153   0.00000  Uiso   1.00
H382   H     0.41992   0.38681   0.45848   0.00000  Uiso   1.00
H383   H     0.36248   0.44339   0.39799   0.00000  Uiso   1.00
H384   H     0.46224   0.40940   0.34363   0.00000  Uiso   1.00
H385   H     0.46124   0.37407   0.39108   0.00000  Uiso   1.00
H386   H     0.64459   0.40677   0.46099   0.00000  Uiso   1.00
H387   H     0.57366   0.40707   0.43955   0.00000  Uiso   1.00
H388   H     0.58892   0.43677   0.49374   0.00000  Uiso   1.00
H389   H     0.53925   0.35516   0.01089   0.00000  Uiso   1.00
H390   H     0.61456   0.34847   0.01669   0.00000  Uiso   1.00
H391   H     0.62144   0.63448   0.44103   0.00000  Uiso   1.00
H392   H     0.54742   0.64834   0.43405   0.00000  Uiso   1.00
H393   H     0.56726   0.33682   0.24865   0.00000  Uiso   1.00
H394   H     0.43002   0.59518   0.06294   0.00000  Uiso   1.00
H395   H     0.35474   0.60579   0.06237   0.00000  Uiso   1.00
H396   H     0.38846   0.56639   0.01831   0.00000  Uiso   1.00
H397   H     0.37353   0.65287   0.49142   0.00000  Uiso   1.00
H398   H     0.44942   0.64439   0.49354   0.00000  Uiso   1.00
H399   H     0.44453   0.35708   0.07026   0.00000  Uiso   1.00
H400   H     0.37252   0.37397   0.06100   0.00000  Uiso   1.00
H401   H     0.43276   0.66318   0.25215   0.00000  Uiso   1.00
H402   H     0.33754   0.46064   0.21584   0.00000  Uiso   1.00
H403   H     0.66245   0.53928   0.28422   0.00000  Uiso   1.00
H404   H     0.44391   0.41834   0.14417   0.00000  Uiso   1.00
H405   H     0.54886   0.58526   0.35507   0.00000  Uiso   1.00
H406   H     0.54723   0.38842   0.13349   0.00000  Uiso   1.00
N407   N     0.65011   0.48598   0.23783   0.00000  Uiso   1.00
N408   N     0.34989   0.51402   0.26217   0.00000  Uiso   1.00
O409   O     0.46308   0.57952   0.25299   0.00000  Uiso   1.00
O410   O     0.56617   0.57818   0.38326   0.00000  Uiso   1.00
O411   O     0.53692   0.42048   0.24701   0.00000  Uiso   1.00
O412   O     0.55946   0.57054   0.24519   0.00000  Uiso   1.00
O413   O     0.44054   0.42946   0.25481   0.00000  Uiso   1.00
O414   O     0.45181   0.50450   0.31997   0.00000  Uiso   1.00
O415   O     0.54819   0.49550   0.18003   0.00000  Uiso   1.00
O416   O     0.54819   0.49552   0.31218   0.00000  Uiso   1.00
O417   O     0.45181   0.50448   0.18783   0.00000  Uiso   1.00
O418   O     0.42565   0.42954   0.11761   0.00000  Uiso   1.00
Zn419  Zn    0.43565   0.50600   0.25521   0.00000  Uiso   1.00
Zn420  Zn    0.56435   0.49400   0.24479   0.00000  Uiso   1.00
C421   C     0.84863   0.59825   0.24925   0.00000  Uiso   1.00
C422   C     0.86475   0.54145   0.40652   0.00000  Uiso   1.00
C423   C     0.83109   0.50208   0.11630   0.00000  Uiso   1.00
C424   C     0.83533   0.49960   0.38377   0.00000  Uiso   1.00
C425   C     0.86393   0.54189   0.09389   0.00000  Uiso   1.00
C426   C     0.80516   0.45801   0.40588   0.00000  Uiso   1.00
C427   C     0.86445   0.54058   0.04695   0.00000  Uiso   1.00
C428   C     0.80334   0.45950   0.45285   0.00000  Uiso   1.00
C429   C     0.83186   0.50079   0.02355   0.00000  Uiso   1.00
C430   C     0.83243   0.50137   0.47654   0.00000  Uiso   1.00
C431   C     0.80022   0.45984   0.04691   0.00000  Uiso   1.00
C432   C     0.81803   0.40175   0.25078   0.00000  Uiso   1.00
C433   C     0.86251   0.54348   0.45343   0.00000  Uiso   1.00
C434   C     0.89619   0.57944   0.02319   0.00000  Uiso   1.00
C435   C     0.77482   0.41851   0.47631   0.00000  Uiso   1.00
C436   C     0.89511   0.58743   0.12009   0.00000  Uiso   1.00
C437   C     0.86519   0.63872   0.11836   0.00000  Uiso   1.00
C438   C     0.90432   0.35241   0.13299   0.00000  Uiso   1.00
C439   C     0.77895   0.41050   0.37893   0.00000  Uiso   1.00
C440   C     0.71238   0.40726   0.38161   0.00000  Uiso   1.00
C441   C     0.68650   0.39879   0.33626   0.00000  Uiso   1.00
C442   C     0.91175   0.63833   0.45843   0.00000  Uiso   1.00
C443   C     0.89018   0.58576   0.47818   0.00000  Uiso   1.00
C444   C     0.91487   0.35234   0.49232   0.00000  Uiso   1.00
C445   C     0.93121   0.40373   0.46984   0.00000  Uiso   1.00
C446   C     0.74865   0.36644   0.04458   0.00000  Uiso   1.00
C447   C     0.74220   0.64986   0.01405   0.00000  Uiso   1.00
C448   C     0.72800   0.60131   0.04116   0.00000  Uiso   1.00
C449   C     0.77412   0.41642   0.02249   0.00000  Uiso   1.00
C450   C     0.85664   0.65287   0.24958   0.00000  Uiso   1.00
C451   C     0.81004   0.34715   0.25109   0.00000  Uiso   1.00
C452   C     0.83425   0.50041   0.33624   0.00000  Uiso   1.00
C453   C     0.83251   0.50064   0.16378   0.00000  Uiso   1.00
C454   C     0.79747   0.46283   0.09385   0.00000  Uiso   1.00
H455   H     0.92458   0.60690   0.04019   0.00000  Uiso   1.00
H456   H     0.91893   0.34741   0.16688   0.00000  Uiso   1.00
H457   H     0.94254   0.35711   0.10920   0.00000  Uiso   1.00
H458   H     0.85289   0.64502   0.08419   0.00000  Uiso   1.00
H459   H     0.82519   0.63667   0.14054   0.00000  Uiso   1.00
H460   H     0.89807   0.58074   0.15582   0.00000  Uiso   1.00
H461   H     0.94080   0.59187   0.10779   0.00000  Uiso   1.00
H462   H     0.69557   0.43414   0.31660   0.00000  Uiso   1.00
H463   H     0.70399   0.36435   0.31783   0.00000  Uiso   1.00
H464   H     0.97237   0.39173   0.34107   0.00000  Uiso   1.00
H465   H     0.69623   0.37333   0.40153   0.00000  Uiso   1.00
H466   H     0.75325   0.38681   0.45848   0.00000  Uiso   1.00
H467   H     0.69581   0.44339   0.39799   0.00000  Uiso   1.00
H468   H     0.79557   0.40940   0.34363   0.00000  Uiso   1.00
H469   H     0.79457   0.37407   0.39108   0.00000  Uiso   1.00
H470   H     0.97792   0.40677   0.46099   0.00000  Uiso   1.00
H471   H     0.90699   0.40707   0.43955   0.00000  Uiso   1.00
H472   H     0.92225   0.43677   0.49374   0.00000  Uiso   1.00
H473   H     0.87258   0.35516   0.01089   0.00000  Uiso   1.00
H474   H     0.94789   0.34847   0.01669   0.00000  Uiso   1.00
H475   H     0.95478   0.63448   0.44103   0.00000  Uiso   1.00
H476   H     0.88075   0.64834   0.43405   0.00000  Uiso   1.00
H477   H     0.90059   0.33682   0.24865   0.00000  Uiso   1.00
H478   H     0.76335   0.59518   0.06294   0.00000  Uiso   1.00
H479   H     0.68807   0.60579   0.06237   0.00000  Uiso   1.00
H480   H     0.72179   0.56639   0.01831   0.00000  Uiso   1.00
H481   H     0.70686   0.65287   0.49142   0.00000  Uiso   1.00
H482   H     0.78275   0.64439   0.49354   0.00000  Uiso   1.00
H483   H     0.77786   0.35708   0.07026   0.00000  Uiso   1.00
H484   H     0.70586   0.37397   0.06100   0.00000  Uiso   1.00
H485   H     0.76610   0.66318   0.25215   0.00000  Uiso   1.00
H486   H     0.67087   0.46064   0.21584   0.00000  Uiso   1.00
H487   H     0.99578   0.53928   0.28422   0.00000  Uiso   1.00
H488   H     0.77725   0.41834   0.14417   0.00000  Uiso   1.00
H489   H     0.88220   0.58526   0.35507   0.00000  Uiso   1.00
H490   H     0.88057   0.38842   0.13349   0.00000  Uiso   1.00
N491   N     0.98344   0.48598   0.23783   0.00000  Uiso   1.00
N492   N     0.68322   0.51402   0.26217   0.00000  Uiso   1.00
O493   O     0.79642   0.57952   0.25299   0.00000  Uiso   1.00
O494   O     0.89950   0.57818   0.38326   0.00000  Uiso   1.00
O495   O     0.87025   0.42048   0.24701   0.00000  Uiso   1.00
O496   O     0.89280   0.57054   0.24519   0.00000  Uiso   1.00
O497   O     0.77387   0.42946   0.25481   0.00000  Uiso   1.00
O498   O     0.78514   0.50450   0.31997   0.00000  Uiso   1.00
O499   O     0.88153   0.49550   0.18003   0.00000  Uiso   1.00
O500   O     0.88152   0.49552   0.31218   0.00000  Uiso   1.00
O501   O     0.78515   0.50448   0.18783   0.00000  Uiso   1.00
O502   O     0.75899   0.42954   0.11761   0.00000  Uiso   1.00
Zn503  Zn    0.76898   0.50600   0.25521   0.00000  Uiso   1.00
Zn504  Zn    0.89769   0.49400   0.24479   0.00000  Uiso   1.00
C505   C     0.18197   0.93158   0.24925   0.00000  Uiso   1.00
C506   C     0.19809   0.87479   0.40652   0.00000  Uiso   1.00
C507   C     0.16442   0.83541   0.11630   0.00000  Uiso   1.00
C508   C     0.16866   0.83293   0.38377   0.00000  Uiso   1.00
C509   C     0.19726   0.87523   0.09389   0.00000  Uiso   1.00
C510   C     0.13849   0.79134   0.40588   0.00000  Uiso   1.00
C511   C     0.19778   0.87391   0.04695   0.00000  Uiso   1.00
C512   C     0.13668   0.79283   0.45285   0.00000  Uiso   1.00
C513   C     0.16520   0.83412   0.02355   0.00000  Uiso   1.00
C514   C     0.16576   0.83470   0.47654   0.00000  Uiso   1.00
C515   C     0.13356   0.79317   0.04691   0.00000  Uiso   1.00
C516   C     0.15137   0.73508   0.25078   0.00000  Uiso   1.00
C517   C     0.19585   0.87682   0.45343   0.00000  Uiso   1.00
C518   C     0.22952   0.91278   0.02319   0.00000  Uiso   1.00
C519   C     0.10816   0.75184   0.47631   0.00000  Uiso   1.00
C520   C     0.22844   0.92077   0.12009   0.00000  Uiso   1.00
C521   C     0.19852   0.97206   0.11836   0.00000  Uiso   1.00
C522   C     0.23766   0.68575   0.13299   0.00000  Uiso   1.00
C523   C     0.11228   0.74384   0.37893   0.00000  Uiso   1.00
C524   C     0.04572   0.74060   0.38161   0.00000  Uiso   1.00
C525   C     0.01984   0.73212   0.33626   0.00000  Uiso   1.00
C526   C     0.24509   0.97167   0.45843   0.00000  Uiso   1.00
C527   C     0.22352   0.91909   0.47818   0.00000  Uiso   1.00
C528   C     0.24821   0.68567   0.49232   0.00000  Uiso   1.00
C529   C     0.26454   0.73707   0.46984   0.00000  Uiso   1.00
C530   C     0.08198   0.69978   0.04458   0.00000  Uiso   1.00
C531   C     0.07554   0.98320   0.01405   0.00000  Uiso   1.00
C532   C     0.06133   0.93464   0.04116   0.00000  Uiso   1.00
C533   C     0.10745   0.74976   0.02249   0.00000  Uiso   1.00
C534   C     0.18997   0.98620   0.24958   0.00000  Uiso   1.00
C535   C     0.14337   0.68049   0.25109   0.00000  Uiso   1.00
C536   C     0.16759   0.83374   0.33624   0.00000  Uiso   1.00
C537   C     0.16585   0.83398   0.16378   0.00000  Uiso   1.00
C538   C     0.13080   0.79616   0.09385   0.00000  Uiso   1.00
H539   H     0.25791   0.94023   0.04019   0.00000  Uiso   1.00
H540   H     0.25226   0.68075   0.16688   0.00000  Uiso   1.00
H541   H     0.27588   0.69045   0.10920   0.00000  Uiso   1.00
H542   H     0.18622   0.97835   0.08419   0.00000  Uiso   1.00
H543   H     0.15853   0.97001   0.14054   0.00000  Uiso   1.00
H544   H     0.23141   0.91408   0.15582   0.00000  Uiso   1.00
H545   H     0.27414   0.92521   0.10779   0.00000  Uiso   1.00
H546   H     0.02890   0.76747   0.31660   0.00000  Uiso   1.00
H547   H     0.03732   0.69769   0.31783   0.00000  Uiso   1.00
H548   H     0.30571   0.72506   0.34107   0.00000  Uiso   1.00
H549   H     0.02956   0.70666   0.40153   0.00000  Uiso   1.00
H550   H     0.08658   0.72014   0.45848   0.00000  Uiso   1.00
H551   H     0.02915   0.77672   0.39799   0.00000  Uiso   1.00
H552   H     0.12890   0.74274   0.34363   0.00000  Uiso   1.00
H553   H     0.12790   0.70740   0.39108   0.00000  Uiso   1.00
H554   H     0.31125   0.74011   0.46099   0.00000  Uiso   1.00
H555   H     0.24033   0.74040   0.43955   0.00000  Uiso   1.00
H556   H     0.25558   0.77011   0.49374   0.00000  Uiso   1.00
H557   H     0.20591   0.68849   0.01089   0.00000  Uiso   1.00
H558   H     0.28123   0.68181   0.01669   0.00000  Uiso   1.00
H559   H     0.28811   0.96781   0.44103   0.00000  Uiso   1.00
H560   H     0.21408   0.98167   0.43405   0.00000  Uiso   1.00
H561   H     0.23392   0.67016   0.24865   0.00000  Uiso   1.00
H562   H     0.09669   0.92852   0.06294   0.00000  Uiso   1.00
H563   H     0.02140   0.93912   0.06237   0.00000  Uiso   1.00
H564   H     0.05513   0.89972   0.01831   0.00000  Uiso   1.00
H565   H     0.04019   0.98621   0.49142   0.00000  Uiso   1.00
H566   H     0.11608   0.97773   0.49354   0.00000  Uiso   1.00
H567   H     0.11119   0.69042   0.07026   0.00000  Uiso   1.00
H568   H     0.03919   0.70730   0.06100   0.00000  Uiso   1.00
H569   H     0.09943   0.99651   0.25215   0.00000  Uiso   1.00
H570   H     0.00421   0.79397   0.21584   0.00000  Uiso   1.00
H571   H     0.32911   0.87262   0.28422   0.00000  Uiso   1.00
H572   H     0.11058   0.75168   0.14417   0.00000  Uiso   1.00
H573   H     0.21553   0.91860   0.35507   0.00000  Uiso   1.00
H574   H     0.21390   0.72175   0.13349   0.00000  Uiso   1.00
N575   N     0.31678   0.81932   0.23783   0.00000  Uiso   1.00
N576   N     0.01656   0.84735   0.26217   0.00000  Uiso   1.00
O577   O     0.12975   0.91286   0.25299   0.00000  Uiso   1.00
O578   O     0.23283   0.91151   0.38326   0.00000  Uiso   1.00
O579   O     0.20358   0.75381   0.24701   0.00000  Uiso   1.00
O580   O     0.22613   0.90387   0.24519   0.00000  Uiso   1.00
O581   O     0.10720   0.76279   0.25481   0.00000  Uiso   1.00
O582   O     0.11847   0.83784   0.31997   0.00000  Uiso   1.00
O583   O     0.21486   0.82883   0.18003   0.00000  Uiso   1.00
O584   O     0.21485   0.82885   0.31218   0.00000  Uiso   1.00
O585   O     0.11848   0.83781   0.18783   0.00000  Uiso   1.00
O586   O     0.09232   0.76288   0.11761   0.00000  Uiso   1.00
Zn587  Zn    0.10231   0.83933   0.25521   0.00000  Uiso   1.00
Zn588  Zn    0.23102   0.82734   0.24479   0.00000  Uiso   1.00
C589   C     0.51530   0.93158   0.24925   0.00000  Uiso   1.00
C590   C     0.53142   0.87479   0.40652   0.00000  Uiso   1.00
C591   C     0.49775   0.83541   0.11630   0.00000  Uiso   1.00
C592   C     0.50199   0.83293   0.38377   0.00000  Uiso   1.00
C593   C     0.53059   0.87523   0.09389   0.00000  Uiso   1.00
C594   C     0.47182   0.79134   0.40588   0.00000  Uiso   1.00
C595   C     0.53112   0.87391   0.04695   0.00000  Uiso   1.00
C596   C     0.47001   0.79283   0.45285   0.00000  Uiso   1.00
C597   C     0.49853   0.83412   0.02355   0.00000  Uiso   1.00
C598   C     0.49909   0.83470   0.47654   0.00000  Uiso   1.00
C599   C     0.46689   0.79317   0.04691   0.00000  Uiso   1.00
C600   C     0.48470   0.73508   0.25078   0.00000  Uiso   1.00
C601   C     0.52918   0.87682   0.45343   0.00000  Uiso   1.00
C602   C     0.56286   0.91278   0.02319   0.00000  Uiso   1.00
C603   C     0.44149   0.75184   0.47631   0.00000  Uiso   1.00
C604   C     0.56178   0.92077   0.12009   0.00000  Uiso   1.00
C605   C     0.53186   0.97206   0.11836   0.00000  Uiso   1.00
C606   C     0.57099   0.68575   0.13299   0.00000  Uiso   1.00
C607   C     0.44562   0.74384   0.37893   0.00000  Uiso   1.00
C608   C     0.37905   0.74060   0.38161   0.00000  Uiso   1.00
C609   C     0.35317   0.73212   0.33626   0.00000  Uiso   1.00
C610   C     0.57842   0.97167   0.45843   0.00000  Uiso   1.00
C611   C     0.55685   0.91909   0.47818   0.00000  Uiso   1.00
C612   C     0.58154   0.68567   0.49232   0.00000  Uiso   1.00
C613   C     0.59787   0.73707   0.46984   0.00000  Uiso   1.00
C614   C     0.41531   0.69978   0.04458   0.00000  Uiso   1.00
C615   C     0.40887   0.98320   0.01405   0.00000  Uiso   1.00
C616   C     0.39466   0.93464   0.04116   0.00000  Uiso   1.00
C617   C     0.44078   0.74976   0.02249   0.00000  Uiso   1.00
C618   C     0.52330   0.98620   0.24958   0.00000  Uiso   1.00
C619   C     0.47671   0.68049   0.25109   0.00000  Uiso   1.00
C620   C     0.50092   0.83374   0.33624   0.00000  Uiso   1.00
C621   C     0.49918   0.83398   0.16378   0.00000  Uiso   1.00
C622   C     0.46414   0.79616   0.09385   0.00000  Uiso   1.00
H623   H     0.59125   0.94023   0.04019   0.00000  Uiso   1.00
H624   H     0.58559   0.68075   0.16688   0.00000  Uiso   1.00
H625   H     0.60921   0.69045   0.10920   0.00000  Uiso   1.00
H626   H     0.51955   0.97835   0.08419   0.00000  Uiso   1.00
H627   H     0.49186   0.97001   0.14054   0.00000  Uiso   1.00
H628   H     0.56474   0.91408   0.15582   0.00000  Uiso   1.00
H629   H     0.60747   0.92521   0.10779   0.00000  Uiso   1.00
H630   H     0.36224   0.76747   0.31660   0.00000  Uiso   1.00
H631   H     0.37065   0.69769   0.31783   0.00000  Uiso   1.00
H632   H     0.63904   0.72506   0.34107   0.00000  Uiso   1.00
H633   H     0.36289   0.70666   0.40153   0.00000  Uiso   1.00
H634   H     0.41992   0.72014   0.45848   0.00000  Uiso   1.00
H635   H     0.36248   0.77672   0.39799   0.00000  Uiso   1.00
H636   H     0.46224   0.74274   0.34363   0.00000  Uiso   1.00
H637   H     0.46124   0.70740   0.39108   0.00000  Uiso   1.00
H638   H     0.64459   0.74011   0.46099   0.00000  Uiso   1.00
H639   H     0.57366   0.74040   0.43955   0.00000  Uiso   1.00
H640   H     0.58892   0.77011   0.49374   0.00000  Uiso   1.00
H641   H     0.53925   0.68849   0.01089   0.00000  Uiso   1.00
H642   H     0.61456   0.68181   0.01669   0.00000  Uiso   1.00
H643   H     0.62144   0.96781   0.44103   0.00000  Uiso   1.00
H644   H     0.54742   0.98167   0.43405   0.00000  Uiso   1.00
H645   H     0.56726   0.67016   0.24865   0.00000  Uiso   1.00
H646   H     0.43002   0.92852   0.06294   0.00000  Uiso   1.00
H647   H     0.35474   0.93912   0.06237   0.00000  Uiso   1.00
H648   H     0.38846   0.89972   0.01831   0.00000  Uiso   1.00
H649   H     0.37353   0.98621   0.49142   0.00000  Uiso   1.00
H650   H     0.44942   0.97773   0.49354   0.00000  Uiso   1.00
H651   H     0.44453   0.69042   0.07026   0.00000  Uiso   1.00
H652   H     0.37252   0.70730   0.06100   0.00000  Uiso   1.00
H653   H     0.43276   0.99651   0.25215   0.00000  Uiso   1.00
H654   H     0.33754   0.79397   0.21584   0.00000  Uiso   1.00
H655   H     0.66245   0.87262   0.28422   0.00000  Uiso   1.00
H656   H     0.44391   0.75168   0.14417   0.00000  Uiso   1.00
H657   H     0.54886   0.91860   0.35507   0.00000  Uiso   1.00
H658   H     0.54723   0.72175   0.13349   0.00000  Uiso   1.00
N659   N     0.65011   0.81932   0.23783   0.00000  Uiso   1.00
N660   N     0.34989   0.84735   0.26217   0.00000  Uiso   1.00
O661   O     0.46308   0.91286   0.25299   0.00000  Uiso   1.00
O662   O     0.56617   0.91151   0.38326   0.00000  Uiso   1.00
O663   O     0.53692   0.75381   0.24701   0.00000  Uiso   1.00
O664   O     0.55946   0.90387   0.24519   0.00000  Uiso   1.00
O665   O     0.44054   0.76279   0.25481   0.00000  Uiso   1.00
O666   O     0.45181   0.83784   0.31997   0.00000  Uiso   1.00
O667   O     0.54819   0.82883   0.18003   0.00000  Uiso   1.00
O668   O     0.54819   0.82885   0.31218   0.00000  Uiso   1.00
O669   O     0.45181   0.83781   0.18783   0.00000  Uiso   1.00
O670   O     0.42565   0.76288   0.11761   0.00000  Uiso   1.00
Zn671  Zn    0.43565   0.83933   0.25521   0.00000  Uiso   1.00
Zn672  Zn    0.56435   0.82734   0.24479   0.00000  Uiso   1.00
C673   C     0.84863   0.93158   0.24925   0.00000  Uiso   1.00
C674   C     0.86475   0.87479   0.40652   0.00000  Uiso   1.00
C675   C     0.83109   0.83541   0.11630   0.00000  Uiso   1.00
C676   C     0.83533   0.83293   0.38377   0.00000  Uiso   1.00
C677   C     0.86393   0.87523   0.09389   0.00000  Uiso   1.00
C678   C     0.80516   0.79134   0.40588   0.00000  Uiso   1.00
C679   C     0.86445   0.87391   0.04695   0.00000  Uiso   1.00
C680   C     0.80334   0.79283   0.45285   0.00000  Uiso   1.00
C681   C     0.83186   0.83412   0.02355   0.00000  Uiso   1.00
C682   C     0.83243   0.83470   0.47654   0.00000  Uiso   1.00
C683   C     0.80022   0.79317   0.04691   0.00000  Uiso   1.00
C684   C     0.81803   0.73508   0.25078   0.00000  Uiso   1.00
C685   C     0.86251   0.87682   0.45343   0.00000  Uiso   1.00
C686   C     0.89619   0.91278   0.02319   0.00000  Uiso   1.00
C687   C     0.77482   0.75184   0.47631   0.00000  Uiso   1.00
C688   C     0.89511   0.92077   0.12009   0.00000  Uiso   1.00
C689   C     0.86519   0.97206   0.11836   0.00000  Uiso   1.00
C690   C     0.90432   0.68575   0.13299   0.00000  Uiso   1.00
C691   C     0.77895   0.74384   0.37893   0.00000  Uiso   1.00
C692   C     0.71238   0.74060   0.38161   0.00000  Uiso   1.00
C693   C     0.68650   0.73212   0.33626   0.00000  Uiso   1.00
C694   C     0.91175   0.97167   0.45843   0.00000  Uiso   1.00
C695   C     0.89018   0.91909   0.47818   0.00000  Uiso   1.00
C696   C     0.91487   0.68567   0.49232   0.00000  Uiso   1.00
C697   C     0.93121   0.73707   0.46984   0.00000  Uiso   1.00
C698   C     0.74865   0.69978   0.04458   0.00000  Uiso   1.00
C699   C     0.74220   0.98320   0.01405   0.00000  Uiso   1.00
C700   C     0.72800   0.93464   0.04116   0.00000  Uiso   1.00
C701   C     0.77412   0.74976   0.02249   0.00000  Uiso   1.00
C702   C     0.85664   0.98620   0.24958   0.00000  Uiso   1.00
C703   C     0.81004   0.68049   0.25109   0.00000  Uiso   1.00
C704   C     0.83425   0.83374   0.33624   0.00000  Uiso   1.00
C705   C     0.83251   0.83398   0.16378   0.00000  Uiso   1.00
C706   C     0.79747   0.79616   0.09385   0.00000  Uiso   1.00
H707   H     0.92458   0.94023   0.04019   0.00000  Uiso   1.00
H708   H     0.91893   0.68075   0.16688   0.00000  Uiso   1.00
H709   H     0.94254   0.69045   0.10920   0.00000  Uiso   1.00
H710   H     0.85289   0.97835   0.08419   0.00000  Uiso   1.00
H711   H     0.82519   0.97001   0.14054   0.00000  Uiso   1.00
H712   H     0.89807   0.91408   0.15582   0.00000  Uiso   1.00
H713   H     0.94080   0.92521   0.10779   0.00000  Uiso   1.00
H714   H     0.69557   0.76747   0.31660   0.00000  Uiso   1.00
H715   H     0.70399   0.69769   0.31783   0.00000  Uiso   1.00
H716   H     0.97237   0.72506   0.34107   0.00000  Uiso   1.00
H717   H     0.69623   0.70666   0.40153   0.00000  Uiso   1.00
H718   H     0.75325   0.72014   0.45848   0.00000  Uiso   1.00
H719   H     0.69581   0.77672   0.39799   0.00000  Uiso   1.00
H720   H     0.79557   0.74274   0.34363   0.00000  Uiso   1.00
H721   H     0.79457   0.70740   0.39108   0.00000  Uiso   1.00
H722   H     0.97792   0.74011   0.46099   0.00000  Uiso   1.00
H723   H     0.90699   0.74040   0.43955   0.00000  Uiso   1.00
H724   H     0.92225   0.77011   0.49374   0.00000  Uiso   1.00
H725   H     0.87258   0.68849   0.01089   0.00000  Uiso   1.00
H726   H     0.94789   0.68181   0.01669   0.00000  Uiso   1.00
H727   H     0.95478   0.96781   0.44103   0.00000  Uiso   1.00
H728   H     0.88075   0.98167   0.43405   0.00000  Uiso   1.00
H729   H     0.90059   0.67016   0.24865   0.00000  Uiso   1.00
H730   H     0.76335   0.92852   0.06294   0.00000  Uiso   1.00
H731   H     0.68807   0.93912   0.06237   0.00000  Uiso   1.00
H732   H     0.72179   0.89972   0.01831   0.00000  Uiso   1.00
H733   H     0.70686   0.98621   0.49142   0.00000  Uiso   1.00
H734   H     0.78275   0.97773   0.49354   0.00000  Uiso   1.00
H735   H     0.77786   0.69042   0.07026   0.00000  Uiso   1.00
H736   H     0.70586   0.70730   0.06100   0.00000  Uiso   1.00
H737   H     0.76610   0.99651   0.25215   0.00000  Uiso   1.00
H738   H     0.67087   0.79397   0.21584   0.00000  Uiso   1.00
H739   H     0.99578   0.87262   0.28422   0.00000  Uiso   1.00
H740   H     0.77725   0.75168   0.14417   0.00000  Uiso   1.00
H741   H     0.88220   0.91860   0.35507   0.00000  Uiso   1.00
H742   H     0.88057   0.72175   0.13349   0.00000  Uiso   1.00
N743   N     0.98344   0.81932   0.23783   0.00000  Uiso   1.00
N744   N     0.68322   0.84735   0.26217   0.00000  Uiso   1.00
O745   O     0.79642   0.91286   0.25299   0.00000  Uiso   1.00
O746   O     0.89950   0.91151   0.38326   0.00000  Uiso   1.00
O747   O     0.87025   0.75381   0.24701   0.00000  Uiso   1.00
O748   O     0.89280   0.90387   0.24519   0.00000  Uiso   1.00
O749   O     0.77387   0.76279   0.25481   0.00000  Uiso   1.00
O750   O     0.78514   0.83784   0.31997   0.00000  Uiso   1.00
O751   O     0.88153   0.82883   0.18003   0.00000  Uiso   1.00
O752   O     0.88152   0.82885   0.31218   0.00000  Uiso   1.00
O753   O     0.78515   0.83781   0.18783   0.00000  Uiso   1.00
O754   O     0.75899   0.76288   0.11761   0.00000  Uiso   1.00
Zn755  Zn    0.76898   0.83933   0.25521   0.00000  Uiso   1.00
Zn756  Zn    0.89769   0.82734   0.24479   0.00000  Uiso   1.00
C757   C     0.18197   0.26491   0.74925   0.00000  Uiso   1.00
C758   C     0.19809   0.20812   0.90652   0.00000  Uiso   1.00
C759   C     0.16442   0.16874   0.61630   0.00000  Uiso   1.00
C760   C     0.16866   0.16626   0.88377   0.00000  Uiso   1.00
C761   C     0.19726   0.20856   0.59389   0.00000  Uiso   1.00
C762   C     0.13849   0.12467   0.90588   0.00000  Uiso   1.00
C763   C     0.19778   0.20724   0.54695   0.00000  Uiso   1.00
C764   C     0.13668   0.12617   0.95285   0.00000  Uiso   1.00
C765   C     0.16520   0.16745   0.52355   0.00000  Uiso   1.00
C766   C     0.16576   0.16804   0.97654   0.00000  Uiso   1.00
C767   C     0.13356   0.12650   0.54691   0.00000  Uiso   1.00
C768   C     0.15137   0.06842   0.75078   0.00000  Uiso   1.00
C769   C     0.19585   0.21015   0.95343   0.00000  Uiso   1.00
C770   C     0.22952   0.24611   0.52319   0.00000  Uiso   1.00
C771   C     0.10816   0.08517   0.97631   0.00000  Uiso   1.00
C772   C     0.22844   0.25410   0.62009   0.00000  Uiso   1.00
C773   C     0.19852   0.30539   0.61836   0.00000  Uiso   1.00
C774   C     0.23766   0.01908   0.63299   0.00000  Uiso   1.00
C775   C     0.11228   0.07717   0.87893   0.00000  Uiso   1.00
C776   C     0.04572   0.07393   0.88161   0.00000  Uiso   1.00
C777   C     0.01984   0.06546   0.83626   0.00000  Uiso   1.00
C778   C     0.24509   0.30500   0.95843   0.00000  Uiso   1.00
C779   C     0.22352   0.25242   0.97818   0.00000  Uiso   1.00
C780   C     0.24821   0.01901   0.99232   0.00000  Uiso   1.00
C781   C     0.26454   0.07040   0.96984   0.00000  Uiso   1.00
C782   C     0.08198   0.03311   0.54458   0.00000  Uiso   1.00
C783   C     0.07554   0.31653   0.51405   0.00000  Uiso   1.00
C784   C     0.06133   0.26798   0.54116   0.00000  Uiso   1.00
C785   C     0.10745   0.08309   0.52249   0.00000  Uiso   1.00
C786   C     0.18997   0.31953   0.74958   0.00000  Uiso   1.00
C787   C     0.14337   0.01382   0.75109   0.00000  Uiso   1.00
C788   C     0.16759   0.16707   0.83624   0.00000  Uiso   1.00
C789   C     0.16585   0.16731   0.66378   0.00000  Uiso   1.00
C790   C     0.13080   0.12949   0.59385   0.00000  Uiso   1.00
H791   H     0.25791   0.27357   0.54019   0.00000  Uiso   1.00
H792   H     0.25226   0.01408   0.66688   0.00000  Uiso   1.00
H793   H     0.27588   0.02378   0.60920   0.00000  Uiso   1.00
H794   H     0.18622   0.31168   0.58419   0.00000  Uiso   1.00
H795   H     0.15853   0.30334   0.64054   0.00000  Uiso   1.00
H796   H     0.23141   0.24741   0.65582   0.00000  Uiso   1.00
H797   H     0.27414   0.25854   0.60779   0.00000  Uiso   1.00
H798   H     0.02890   0.10080   0.81660   0.00000  Uiso   1.00
H799   H     0.03732   0.03102   0.81783   0.00000  Uiso   1.00
H800   H     0.30571   0.05840   0.84107   0.00000  Uiso   1.00
H801   H     0.02956   0.04000   0.90153   0.00000  Uiso   1.00
H802   H     0.08658   0.05347   0.95848   0.00000  Uiso   1.00
H803   H     0.02915   0.11005   0.89799   0.00000  Uiso   1.00
H804   H     0.12890   0.07607   0.84363   0.00000  Uiso   1.00
H805   H     0.12790   0.04074   0.89108   0.00000  Uiso   1.00
H806   H     0.31125   0.07344   0.96099   0.00000  Uiso   1.00
H807   H     0.24033   0.07374   0.93955   0.00000  Uiso   1.00
H808   H     0.25558   0.10344   0.99374   0.00000  Uiso   1.00
H809   H     0.20591   0.02183   0.51089   0.00000  Uiso   1.00
H810   H     0.28123   0.01514   0.51669   0.00000  Uiso   1.00
H811   H     0.28811   0.30115   0.94103   0.00000  Uiso   1.00
H812   H     0.21408   0.31501   0.93405   0.00000  Uiso   1.00
H813   H     0.23392   0.00349   0.74865   0.00000  Uiso   1.00
H814   H     0.09669   0.26185   0.56294   0.00000  Uiso   1.00
H815   H     0.02140   0.27246   0.56237   0.00000  Uiso   1.00
H816   H     0.05513   0.23306   0.51831   0.00000  Uiso   1.00
H817   H     0.04019   0.31954   0.99142   0.00000  Uiso   1.00
H818   H     0.11608   0.31106   0.99354   0.00000  Uiso   1.00
H819   H     0.11119   0.02375   0.57026   0.00000  Uiso   1.00
H820   H     0.03919   0.04063   0.56100   0.00000  Uiso   1.00
H821   H     0.09943   0.32985   0.75215   0.00000  Uiso   1.00
H822   H     0.00421   0.12730   0.71584   0.00000  Uiso   1.00
H823   H     0.32911   0.20595   0.78422   0.00000  Uiso   1.00
H824   H     0.11058   0.08501   0.64417   0.00000  Uiso   1.00
H825   H     0.21553   0.25193   0.85507   0.00000  Uiso   1.00
H826   H     0.21390   0.05509   0.63349   0.00000  Uiso   1.00
N827   N     0.31678   0.15265   0.73783   0.00000  Uiso   1.00
N828   N     0.01656   0.18068   0.76217   0.00000  Uiso   1.00
O829   O     0.12975   0.24619   0.75299   0.00000  Uiso   1.00
O830   O     0.23283   0.24485   0.88326   0.00000  Uiso   1.00
O831   O     0.20358   0.08714   0.74701   0.00000  Uiso   1.00
O832   O     0.22613   0.23721   0.74519   0.00000  Uiso   1.00
O833   O     0.10720   0.09613   0.75481   0.00000  Uiso   1.00
O834   O     0.11847   0.17117   0.81997   0.00000  Uiso   1.00
O835   O     0.21486   0.16216   0.68003   0.00000  Uiso   1.00
O836   O     0.21485   0.16219   0.81218   0.00000  Uiso   1.00
O837   O     0.11848   0.17115   0.68783   0.00000  Uiso   1.00
O838   O     0.09232   0.09621   0.61761   0.00000  Uiso   1.00
Zn839  Zn    0.10231   0.17266   0.75521   0.00000  Uiso   1.00
Zn840  Zn    0.23102   0.16067   0.74479   0.00000  Uiso   1.00
C841   C     0.51530   0.26491   0.74925   0.00000  Uiso   1.00
C842   C     0.53142   0.20812   0.90652   0.00000  Uiso   1.00
C843   C     0.49775   0.16874   0.61630   0.00000  Uiso   1.00
C844   C     0.50199   0.16626   0.88377   0.00000  Uiso   1.00
C845   C     0.53059   0.20856   0.59389   0.00000  Uiso   1.00
C846   C     0.47182   0.12467   0.90588   0.00000  Uiso   1.00
C847   C     0.53112   0.20724   0.54695   0.00000  Uiso   1.00
C848   C     0.47001   0.12617   0.95285   0.00000  Uiso   1.00
C849   C     0.49853   0.16745   0.52355   0.00000  Uiso   1.00
C850   C     0.49909   0.16804   0.97654   0.00000  Uiso   1.00
C851   C     0.46689   0.12650   0.54691   0.00000  Uiso   1.00
C852   C     0.48470   0.06842   0.75078   0.00000  Uiso   1.00
C853   C     0.52918   0.21015   0.95343   0.00000  Uiso   1.00
C854   C     0.56286   0.24611   0.52319   0.00000  Uiso   1.00
C855   C     0.44149   0.08517   0.97631   0.00000  Uiso   1.00
C856   C     0.56178   0.25410   0.62009   0.00000  Uiso   1.00
C857   C     0.53186   0.30539   0.61836   0.00000  Uiso   1.00
C858   C     0.57099   0.01908   0.63299   0.00000  Uiso   1.00
C859   C     0.44562   0.07717   0.87893   0.00000  Uiso   1.00
C860   C     0.37905   0.07393   0.88161   0.00000  Uiso   1.00
C861   C     0.35317   0.06546   0.83626   0.00000  Uiso   1.00
C862   C     0.57842   0.30500   0.95843   0.00000  Uiso   1.00
C863   C     0.55685   0.25242   0.97818   0.00000  Uiso   1.00
C864   C     0.58154   0.01901   0.99232   0.00000  Uiso   1.00
C865   C     0.59787   0.07040   0.96984   0.00000  Uiso   1.00
C866   C     0.41531   0.03311   0.54458   0.00000  Uiso   1.00
C867   C     0.40887   0.31653   0.51405   0.00000  Uiso   1.00
C868   C     0.39466   0.26798   0.54116   0.00000  Uiso   1.00
C869   C     0.44078   0.08309   0.52249   0.00000  Uiso   1.00
C870   C     0.52330   0.31953   0.74958   0.00000  Uiso   1.00
C871   C     0.47671   0.01382   0.75109   0.00000  Uiso   1.00
C872   C     0.50092   0.16707   0.83624   0.00000  Uiso   1.00
C873   C     0.49918   0.16731   0.66378   0.00000  Uiso   1.00
C874   C     0.46414   0.12949   0.59385   0.00000  Uiso   1.00
H875   H     0.59125   0.27357   0.54019   0.00000  Uiso   1.00
H876   H     0.58559   0.01408   0.66688   0.00000  Uiso   1.00
H877   H     0.60921   0.02378   0.60920   0.00000  Uiso   1.00
H878   H     0.51955   0.31168   0.58419   0.00000  Uiso   1.00
H879   H     0.49186   0.30334   0.64054   0.00000  Uiso   1.00
H880   H     0.56474   0.24741   0.65582   0.00000  Uiso   1.00
H881   H     0.60747   0.25854   0.60779   0.00000  Uiso   1.00
H882   H     0.36224   0.10080   0.81660   0.00000  Uiso   1.00
H883   H     0.37065   0.03102   0.81783   0.00000  Uiso   1.00
H884   H     0.63904   0.05840   0.84107   0.00000  Uiso   1.00
H885   H     0.36289   0.04000   0.90153   0.00000  Uiso   1.00
H886   H     0.41992   0.05347   0.95848   0.00000  Uiso   1.00
H887   H     0.36248   0.11005   0.89799   0.00000  Uiso   1.00
H888   H     0.46224   0.07607   0.84363   0.00000  Uiso   1.00
H889   H     0.46124   0.04074   0.89108   0.00000  Uiso   1.00
H890   H     0.64459   0.07344   0.96099   0.00000  Uiso   1.00
H891   H     0.57366   0.07374   0.93955   0.00000  Uiso   1.00
H892   H     0.58892   0.10344   0.99374   0.00000  Uiso   1.00
H893   H     0.53925   0.02183   0.51089   0.00000  Uiso   1.00
H894   H     0.61456   0.01514   0.51669   0.00000  Uiso   1.00
H895   H     0.62144   0.30115   0.94103   0.00000  Uiso   1.00
H896   H     0.54742   0.31501   0.93405   0.00000  Uiso   1.00
H897   H     0.56726   0.00349   0.74865   0.00000  Uiso   1.00
H898   H     0.43002   0.26185   0.56294   0.00000  Uiso   1.00
H899   H     0.35474   0.27246   0.56237   0.00000  Uiso   1.00
H900   H     0.38846   0.23306   0.51831   0.00000  Uiso   1.00
H901   H     0.37353   0.31954   0.99142   0.00000  Uiso   1.00
H902   H     0.44942   0.31106   0.99354   0.00000  Uiso   1.00
H903   H     0.44453   0.02375   0.57026   0.00000  Uiso   1.00
H904   H     0.37252   0.04063   0.56100   0.00000  Uiso   1.00
H905   H     0.43276   0.32985   0.75215   0.00000  Uiso   1.00
H906   H     0.33754   0.12730   0.71584   0.00000  Uiso   1.00
H907   H     0.66245   0.20595   0.78422   0.00000  Uiso   1.00
H908   H     0.44391   0.08501   0.64417   0.00000  Uiso   1.00
H909   H     0.54886   0.25193   0.85507   0.00000  Uiso   1.00
H910   H     0.54723   0.05509   0.63349   0.00000  Uiso   1.00
N911   N     0.65011   0.15265   0.73783   0.00000  Uiso   1.00
N912   N     0.34989   0.18068   0.76217   0.00000  Uiso   1.00
O913   O     0.46308   0.24619   0.75299   0.00000  Uiso   1.00
O914   O     0.56617   0.24485   0.88326   0.00000  Uiso   1.00
O915   O     0.53692   0.08714   0.74701   0.00000  Uiso   1.00
O916   O     0.55946   0.23721   0.74519   0.00000  Uiso   1.00
O917   O     0.44054   0.09613   0.75481   0.00000  Uiso   1.00
O918   O     0.45181   0.17117   0.81997   0.00000  Uiso   1.00
O919   O     0.54819   0.16216   0.68003   0.00000  Uiso   1.00
O920   O     0.54819   0.16219   0.81218   0.00000  Uiso   1.00
O921   O     0.45181   0.17115   0.68783   0.00000  Uiso   1.00
O922   O     0.42565   0.09621   0.61761   0.00000  Uiso   1.00
Zn923  Zn    0.43565   0.17266   0.75521   0.00000  Uiso   1.00
Zn924  Zn    0.56435   0.16067   0.74479   0.00000  Uiso   1.00
C925   C     0.84863   0.26491   0.74925   0.00000  Uiso   1.00
C926   C     0.86475   0.20812   0.90652   0.00000  Uiso   1.00
C927   C     0.83109   0.16874   0.61630   0.00000  Uiso   1.00
C928   C     0.83533   0.16626   0.88377   0.00000  Uiso   1.00
C929   C     0.86393   0.20856   0.59389   0.00000  Uiso   1.00
C930   C     0.80516   0.12467   0.90588   0.00000  Uiso   1.00
C931   C     0.86445   0.20724   0.54695   0.00000  Uiso   1.00
C932   C     0.80334   0.12617   0.95285   0.00000  Uiso   1.00
C933   C     0.83186   0.16745   0.52355   0.00000  Uiso   1.00
C934   C     0.83243   0.16804   0.97654   0.00000  Uiso   1.00
C935   C     0.80022   0.12650   0.54691   0.00000  Uiso   1.00
C936   C     0.81803   0.06842   0.75078   0.00000  Uiso   1.00
C937   C     0.86251   0.21015   0.95343   0.00000  Uiso   1.00
C938   C     0.89619   0.24611   0.52319   0.00000  Uiso   1.00
C939   C     0.77482   0.08517   0.97631   0.00000  Uiso   1.00
C940   C     0.89511   0.25410   0.62009   0.00000  Uiso   1.00
C941   C     0.86519   0.30539   0.61836   0.00000  Uiso   1.00
C942   C     0.90432   0.01908   0.63299   0.00000  Uiso   1.00
C943   C     0.77895   0.07717   0.87893   0.00000  Uiso   1.00
C944   C     0.71238   0.07393   0.88161   0.00000  Uiso   1.00
C945   C     0.68650   0.06546   0.83626   0.00000  Uiso   1.00
C946   C     0.91175   0.30500   0.95843   0.00000  Uiso   1.00
C947   C     0.89018   0.25242   0.97818   0.00000  Uiso   1.00
C948   C     0.91487   0.01901   0.99232   0.00000  Uiso   1.00
C949   C     0.93121   0.07040   0.96984   0.00000  Uiso   1.00
C950   C     0.74865   0.03311   0.54458   0.00000  Uiso   1.00
C951   C     0.74220   0.31653   0.51405   0.00000  Uiso   1.00
C952   C     0.72800   0.26798   0.54116   0.00000  Uiso   1.00
C953   C     0.77412   0.08309   0.52249   0.00000  Uiso   1.00
C954   C     0.85664   0.31953   0.74958   0.00000  Uiso   1.00
C955   C     0.81004   0.01382   0.75109   0.00000  Uiso   1.00
C956   C     0.83425   0.16707   0.83624   0.00000  Uiso   1.00
C957   C     0.83251   0.16731   0.66378   0.00000  Uiso   1.00
C958   C     0.79747   0.12949   0.59385   0.00000  Uiso   1.00
H959   H     0.92458   0.27357   0.54019   0.00000  Uiso   1.00
H960   H     0.91893   0.01408   0.66688   0.00000  Uiso   1.00
H961   H     0.94254   0.02378   0.60920   0.00000  Uiso   1.00
H962   H     0.85289   0.31168   0.58419   0.00000  Uiso   1.00
H963   H     0.82519   0.30334   0.64054   0.00000  Uiso   1.00
H964   H     0.89807   0.24741   0.65582   0.00000  Uiso   1.00
H965   H     0.94080   0.25854   0.60779   0.00000  Uiso   1.00
H966   H     0.69557   0.10080   0.81660   0.00000  Uiso   1.00
H967   H     0.70399   0.03102   0.81783   0.00000  Uiso   1.00
H968   H     0.97237   0.05840   0.84107   0.00000  Uiso   1.00
H969   H     0.69623   0.04000   0.90153   0.00000  Uiso   1.00
H970   H     0.75325   0.05347   0.95848   0.00000  Uiso   1.00
H971   H     0.69581   0.11005   0.89799   0.00000  Uiso   1.00
H972   H     0.79557   0.07607   0.84363   0.00000  Uiso   1.00
H973   H     0.79457   0.04074   0.89108   0.00000  Uiso   1.00
H974   H     0.97792   0.07344   0.96099   0.00000  Uiso   1.00
H975   H     0.90699   0.07374   0.93955   0.00000  Uiso   1.00
H976   H     0.92225   0.10344   0.99374   0.00000  Uiso   1.00
H977   H     0.87258   0.02183   0.51089   0.00000  Uiso   1.00
H978   H     0.94789   0.01514   0.51669   0.00000  Uiso   1.00
H979   H     0.95478   0.30115   0.94103   0.00000  Uiso   1.00
H980   H     0.88075   0.31501   0.93405   0.00000  Uiso   1.00
H981   H     0.90059   0.00349   0.74865   0.00000  Uiso   1.00
H982   H     0.76335   0.26185   0.56294   0.00000  Uiso   1.00
H983   H     0.68807   0.27246   0.56237   0.00000  Uiso   1.00
H984   H     0.72179   0.23306   0.51831   0.00000  Uiso   1.00
H985   H     0.70686   0.31954   0.99142   0.00000  Uiso   1.00
H986   H     0.78275   0.31106   0.99354   0.00000  Uiso   1.00
H987   H     0.77786   0.02375   0.57026   0.00000  Uiso   1.00
H988   H     0.70586   0.04063   0.56100   0.00000  Uiso   1.00
H989   H     0.76610   0.32985   0.75215   0.00000  Uiso   1.00
H990   H     0.67087   0.12730   0.71584   0.00000  Uiso   1.00
H991   H     0.99578   0.20595   0.78422   0.00000  Uiso   1.00
H992   H     0.77725   0.08501   0.64417   0.00000  Uiso   1.00
H993   H     0.88220   0.25193   0.85507   0.00000  Uiso   1.00
H994   H     0.88057   0.05509   0.63349   0.00000  Uiso   1.00
N995   N     0.98344   0.15265   0.73783   0.00000  Uiso   1.00
N996   N     0.68322   0.18068   0.76217   0.00000  Uiso   1.00
O997   O     0.79642   0.24619   0.75299   0.00000  Uiso   1.00
O998   O     0.89950   0.24485   0.88326   0.00000  Uiso   1.00
O999   O     0.87025   0.08714   0.74701   0.00000  Uiso   1.00
O1000  O     0.89280   0.23721   0.74519   0.00000  Uiso   1.00
O1001  O     0.77387   0.09613   0.75481   0.00000  Uiso   1.00
O1002  O     0.78514   0.17117   0.81997   0.00000  Uiso   1.00
O1003  O     0.88153   0.16216   0.68003   0.00000  Uiso   1.00
O1004  O     0.88152   0.16219   0.81218   0.00000  Uiso   1.00
O1005  O     0.78515   0.17115   0.68783   0.00000  Uiso   1.00
O1006  O     0.75899   0.09621   0.61761   0.00000  Uiso   1.00
Zn1007 Zn    0.76898   0.17266   0.75521   0.00000  Uiso   1.00
Zn1008 Zn    0.89769   0.16067   0.74479   0.00000  Uiso   1.00
C1009  C     0.18197   0.59825   0.74925   0.00000  Uiso   1.00
C1010  C     0.19809   0.54145   0.90652   0.00000  Uiso   1.00
C1011  C     0.16442   0.50208   0.61630   0.00000  Uiso   1.00
C1012  C     0.16866   0.49960   0.88377   0.00000  Uiso   1.00
C1013  C     0.19726   0.54189   0.59389   0.00000  Uiso   1.00
C1014  C     0.13849   0.45801   0.90588   0.00000  Uiso   1.00
C1015  C     0.19778   0.54058   0.54695   0.00000  Uiso   1.00
C1016  C     0.13668   0.45950   0.95285   0.00000  Uiso   1.00
C1017  C     0.16520   0.50079   0.52355   0.00000  Uiso   1.00
C1018  C     0.16576   0.50137   0.97654   0.00000  Uiso   1.00
C1019  C     0.13356   0.45984   0.54691   0.00000  Uiso   1.00
C1020  C     0.15137   0.40175   0.75078   0.00000  Uiso   1.00
C1021  C     0.19585   0.54348   0.95343   0.00000  Uiso   1.00
C1022  C     0.22952   0.57944   0.52319   0.00000  Uiso   1.00
C1023  C     0.10816   0.41851   0.97631   0.00000  Uiso   1.00
C1024  C     0.22844   0.58743   0.62009   0.00000  Uiso   1.00
C1025  C     0.19852   0.63872   0.61836   0.00000  Uiso   1.00
C1026  C     0.23766   0.35241   0.63299   0.00000  Uiso   1.00
C1027  C     0.11228   0.41050   0.87893   0.00000  Uiso   1.00
C1028  C     0.04572   0.40726   0.88161   0.00000  Uiso   1.00
C1029  C     0.01984   0.39879   0.83626   0.00000  Uiso   1.00
C1030  C     0.24509   0.63833   0.95843   0.00000  Uiso   1.00
C1031  C     0.22352   0.58576   0.97818   0.00000  Uiso   1.00
C1032  C     0.24821   0.35234   0.99232   0.00000  Uiso   1.00
C1033  C     0.26454   0.40373   0.96984   0.00000  Uiso   1.00
C1034  C     0.08198   0.36644   0.54458   0.00000  Uiso   1.00
C1035  C     0.07554   0.64986   0.51405   0.00000  Uiso   1.00
C1036  C     0.06133   0.60131   0.54116   0.00000  Uiso   1.00
C1037  C     0.10745   0.41642   0.52249   0.00000  Uiso   1.00
C1038  C     0.18997   0.65287   0.74958   0.00000  Uiso   1.00
C1039  C     0.14337   0.34715   0.75109   0.00000  Uiso   1.00
C1040  C     0.16759   0.50041   0.83624   0.00000  Uiso   1.00
C1041  C     0.16585   0.50064   0.66378   0.00000  Uiso   1.00
C1042  C     0.13080   0.46283   0.59385   0.00000  Uiso   1.00
H1043  H     0.25791   0.60690   0.54019   0.00000  Uiso   1.00
H1044  H     0.25226   0.34741   0.66688   0.00000  Uiso   1.00
H1045  H     0.27588   0.35711   0.60920   0.00000  Uiso   1.00
H1046  H     0.18622   0.64502   0.58419   0.00000  Uiso   1.00
H1047  H     0.15853   0.63667   0.64054   0.00000  Uiso   1.00
H1048  H     0.23141   0.58074   0.65582   0.00000  Uiso   1.00
H1049  H     0.27414   0.59187   0.60779   0.00000  Uiso   1.00
H1050  H     0.02890   0.43414   0.81660   0.00000  Uiso   1.00
H1051  H     0.03732   0.36435   0.81783   0.00000  Uiso   1.00
H1052  H     0.30571   0.39173   0.84107   0.00000  Uiso   1.00
H1053  H     0.02956   0.37333   0.90153   0.00000  Uiso   1.00
H1054  H     0.08658   0.38681   0.95848   0.00000  Uiso   1.00
H1055  H     0.02915   0.44339   0.89799   0.00000  Uiso   1.00
H1056  H     0.12890   0.40940   0.84363   0.00000  Uiso   1.00
H1057  H     0.12790   0.37407   0.89108   0.00000  Uiso   1.00
H1058  H     0.31125   0.40677   0.96099   0.00000  Uiso   1.00
H1059  H     0.24033   0.40707   0.93955   0.00000  Uiso   1.00
H1060  H     0.25558   0.43677   0.99374   0.00000  Uiso   1.00
H1061  H     0.20591   0.35516   0.51089   0.00000  Uiso   1.00
H1062  H     0.28123   0.34847   0.51669   0.00000  Uiso   1.00
H1063  H     0.28811   0.63448   0.94103   0.00000  Uiso   1.00
H1064  H     0.21408   0.64834   0.93405   0.00000  Uiso   1.00
H1065  H     0.23392   0.33682   0.74865   0.00000  Uiso   1.00
H1066  H     0.09669   0.59518   0.56294   0.00000  Uiso   1.00
H1067  H     0.02140   0.60579   0.56237   0.00000  Uiso   1.00
H1068  H     0.05513   0.56639   0.51831   0.00000  Uiso   1.00
H1069  H     0.04019   0.65287   0.99142   0.00000  Uiso   1.00
H1070  H     0.11608   0.64439   0.99354   0.00000  Uiso   1.00
H1071  H     0.11119   0.35708   0.57026   0.00000  Uiso   1.00
H1072  H     0.03919   0.37397   0.56100   0.00000  Uiso   1.00
H1073  H     0.09943   0.66318   0.75215   0.00000  Uiso   1.00
H1074  H     0.00421   0.46064   0.71584   0.00000  Uiso   1.00
H1075  H     0.32911   0.53928   0.78422   0.00000  Uiso   1.00
H1076  H     0.11058   0.41834   0.64417   0.00000  Uiso   1.00
H1077  H     0.21553   0.58526   0.85507   0.00000  Uiso   1.00
H1078  H     0.21390   0.38842   0.63349   0.00000  Uiso   1.00
N1079  N     0.31678   0.48598   0.73783   0.00000  Uiso   1.00
N1080  N     0.01656   0.51402   0.76217   0.00000  Uiso   1.00
O1081  O     0.12975   0.57952   0.75299   0.00000  Uiso   1.00
O1082  O     0.23283   0.57818   0.88326   0.00000  Uiso   1.00
O1083  O     0.20358   0.42048   0.74701   0.00000  Uiso   1.00
O1084  O     0.22613   0.57054   0.74519   0.00000  Uiso   1.00
O1085  O     0.10720   0.42946   0.75481   0.00000  Uiso   1.00
O1086  O     0.11847   0.50450   0.81997   0.00000  Uiso   1.00
O1087  O     0.21486   0.49550   0.68003   0.00000  Uiso   1.00
O1088  O     0.21485   0.49552   0.81218   0.00000  Uiso   1.00
O1089  O     0.11848   0.50448   0.68783   0.00000  Uiso   1.00
O1090  O     0.09232   0.42954   0.61761   0.00000  Uiso   1.00
Zn1091 Zn    0.10231   0.50600   0.75521   0.00000  Uiso   1.00
Zn1092 Zn    0.23102   0.49400   0.74479   0.00000  Uiso   1.00
C1093  C     0.51530   0.59825   0.74925   0.00000  Uiso   1.00
C1094  C     0.53142   0.54145   0.90652   0.00000  Uiso   1.00
C1095  C     0.49775   0.50208   0.61630   0.00000  Uiso   1.00
C1096  C     0.50199   0.49960   0.88377   0.00000  Uiso   1.00
C1097  C     0.53059   0.54189   0.59389   0.00000  Uiso   1.00
C1098  C     0.47182   0.45801   0.90588   0.00000  Uiso   1.00
C1099  C     0.53112   0.54058   0.54695   0.00000  Uiso   1.00
C1100  C     0.47001   0.45950   0.95285   0.00000  Uiso   1.00
C1101  C     0.49853   0.50079   0.52355   0.00000  Uiso   1.00
C1102  C     0.49909   0.50137   0.97654   0.00000  Uiso   1.00
C1103  C     0.46689   0.45984   0.54691   0.00000  Uiso   1.00
C1104  C     0.48470   0.40175   0.75078   0.00000  Uiso   1.00
C1105  C     0.52918   0.54348   0.95343   0.00000  Uiso   1.00
C1106  C     0.56286   0.57944   0.52319   0.00000  Uiso   1.00
C1107  C     0.44149   0.41851   0.97631   0.00000  Uiso   1.00
C1108  C     0.56178   0.58743   0.62009   0.00000  Uiso   1.00
C1109  C     0.53186   0.63872   0.61836   0.00000  Uiso   1.00
C1110  C     0.57099   0.35241   0.63299   0.00000  Uiso   1.00
C1111  C     0.44562   0.41050   0.87893   0.00000  Uiso   1.00
C1112  C     0.37905   0.40726   0.88161   0.00000  Uiso   1.00
C1113  C     0.35317   0.39879   0.83626   0.00000  Uiso   1.00
C1114  C     0.57842   0.63833   0.95843   0.00000  Uiso   1.00
C1115  C     0.55685   0.58576   0.97818   0.00000  Uiso   1.00
C1116  C     0.58154   0.35234   0.99232   0.00000  Uiso   1.00
C1117  C     0.59787   0.40373   0.96984   0.00000  Uiso   1.00
C1118  C     0.41531   0.36644   0.54458   0.00000  Uiso   1.00
C1119  C     0.40887   0.64986   0.51405   0.00000  Uiso   1.00
C1120  C     0.39466   0.60131   0.54116   0.00000  Uiso   1.00
C1121  C     0.44078   0.41642   0.52249   0.00000  Uiso   1.00
C1122  C     0.52330   0.65287   0.74958   0.00000  Uiso   1.00
C1123  C     0.47671   0.34715   0.75109   0.00000  Uiso   1.00
C1124  C     0.50092   0.50041   0.83624   0.00000  Uiso   1.00
C1125  C     0.49918   0.50064   0.66378   0.00000  Uiso   1.00
C1126  C     0.46414   0.46283   0.59385   0.00000  Uiso   1.00
H1127  H     0.59125   0.60690   0.54019   0.00000  Uiso   1.00
H1128  H     0.58559   0.34741   0.66688   0.00000  Uiso   1.00
H1129  H     0.60921   0.35711   0.60920   0.00000  Uiso   1.00
H1130  H     0.51955   0.64502   0.58419   0.00000  Uiso   1.00
H1131  H     0.49186   0.63667   0.64054   0.00000  Uiso   1.00
H1132  H     0.56474   0.58074   0.65582   0.00000  Uiso   1.00
H1133  H     0.60747   0.59187   0.60779   0.00000  Uiso   1.00
H1134  H     0.36224   0.43414   0.81660   0.00000  Uiso   1.00
H1135  H     0.37065   0.36435   0.81783   0.00000  Uiso   1.00
H1136  H     0.63904   0.39173   0.84107   0.00000  Uiso   1.00
H1137  H     0.36289   0.37333   0.90153   0.00000  Uiso   1.00
H1138  H     0.41992   0.38681   0.95848   0.00000  Uiso   1.00
H1139  H     0.36248   0.44339   0.89799   0.00000  Uiso   1.00
H1140  H     0.46224   0.40940   0.84363   0.00000  Uiso   1.00
H1141  H     0.46124   0.37407   0.89108   0.00000  Uiso   1.00
H1142  H     0.64459   0.40677   0.96099   0.00000  Uiso   1.00
H1143  H     0.57366   0.40707   0.93955   0.00000  Uiso   1.00
H1144  H     0.58892   0.43677   0.99374   0.00000  Uiso   1.00
H1145  H     0.53925   0.35516   0.51089   0.00000  Uiso   1.00
H1146  H     0.61456   0.34847   0.51669   0.00000  Uiso   1.00
H1147  H     0.62144   0.63448   0.94103   0.00000  Uiso   1.00
H1148  H     0.54742   0.64834   0.93405   0.00000  Uiso   1.00
H1149  H     0.56726   0.33682   0.74865   0.00000  Uiso   1.00
H1150  H     0.43002   0.59518   0.56294   0.00000  Uiso   1.00
H1151  H     0.35474   0.60579   0.56237   0.00000  Uiso   1.00
H1152  H     0.38846   0.56639   0.51831   0.00000  Uiso   1.00
H1153  H     0.37353   0.65287   0.99142   0.00000  Uiso   1.00
H1154  H     0.44942   0.64439   0.99354   0.00000  Uiso   1.00
H1155  H     0.44453   0.35708   0.57026   0.00000  Uiso   1.00
H1156  H     0.37252   0.37397   0.56100   0.00000  Uiso   1.00
H1157  H     0.43276   0.66318   0.75215   0.00000  Uiso   1.00
H1158  H     0.33754   0.46064   0.71584   0.00000  Uiso   1.00
H1159  H     0.66245   0.53928   0.78422   0.00000  Uiso   1.00
H1160  H     0.44391   0.41834   0.64417   0.00000  Uiso   1.00
H1161  H     0.54886   0.58526   0.85507   0.00000  Uiso   1.00
H1162  H     0.54723   0.38842   0.63349   0.00000  Uiso   1.00
N1163  N     0.65011   0.48598   0.73783   0.00000  Uiso   1.00
N1164  N     0.34989   0.51402   0.76217   0.00000  Uiso   1.00
O1165  O     0.46308   0.57952   0.75299   0.00000  Uiso   1.00
O1166  O     0.56617   0.57818   0.88326   0.00000  Uiso   1.00
O1167  O     0.53692   0.42048   0.74701   0.00000  Uiso   1.00
O1168  O     0.55946   0.57054   0.74519   0.00000  Uiso   1.00
O1169  O     0.44054   0.42946   0.75481   0.00000  Uiso   1.00
O1170  O     0.45181   0.50450   0.81997   0.00000  Uiso   1.00
O1171  O     0.54819   0.49550   0.68003   0.00000  Uiso   1.00
O1172  O     0.54819   0.49552   0.81218   0.00000  Uiso   1.00
O1173  O     0.45181   0.50448   0.68783   0.00000  Uiso   1.00
O1174  O     0.42565   0.42954   0.61761   0.00000  Uiso   1.00
Zn1175 Zn    0.43565   0.50600   0.75521   0.00000  Uiso   1.00
Zn1176 Zn    0.56435   0.49400   0.74479   0.00000  Uiso   1.00
C1177  C     0.84863   0.59825   0.74925   0.00000  Uiso   1.00
C1178  C     0.86475   0.54145   0.90652   0.00000  Uiso   1.00
C1179  C     0.83109   0.50208   0.61630   0.00000  Uiso   1.00
C1180  C     0.83533   0.49960   0.88377   0.00000  Uiso   1.00
C1181  C     0.86393   0.54189   0.59389   0.00000  Uiso   1.00
C1182  C     0.80516   0.45801   0.90588   0.00000  Uiso   1.00
C1183  C     0.86445   0.54058   0.54695   0.00000  Uiso   1.00
C1184  C     0.80334   0.45950   0.95285   0.00000  Uiso   1.00
C1185  C     0.83186   0.50079   0.52355   0.00000  Uiso   1.00
C1186  C     0.83243   0.50137   0.97654   0.00000  Uiso   1.00
C1187  C     0.80022   0.45984   0.54691   0.00000  Uiso   1.00
C1188  C     0.81803   0.40175   0.75078   0.00000  Uiso   1.00
C1189  C     0.86251   0.54348   0.95343   0.00000  Uiso   1.00
C1190  C     0.89619   0.57944   0.52319   0.00000  Uiso   1.00
C1191  C     0.77482   0.41851   0.97631   0.00000  Uiso   1.00
C1192  C     0.89511   0.58743   0.62009   0.00000  Uiso   1.00
C1193  C     0.86519   0.63872   0.61836   0.00000  Uiso   1.00
C1194  C     0.90432   0.35241   0.63299   0.00000  Uiso   1.00
C1195  C     0.77895   0.41050   0.87893   0.00000  Uiso   1.00
C1196  C     0.71238   0.40726   0.88161   0.00000  Uiso   1.00
C1197  C     0.68650   0.39879   0.83626   0.00000  Uiso   1.00
C1198  C     0.91175   0.63833   0.95843   0.00000  Uiso   1.00
C1199  C     0.89018   0.58576   0.97818   0.00000  Uiso   1.00
C1200  C     0.91487   0.35234   0.99232   0.00000  Uiso   1.00
C1201  C     0.93121   0.40373   0.96984   0.00000  Uiso   1.00
C1202  C     0.74865   0.36644   0.54458   0.00000  Uiso   1.00
C1203  C     0.74220   0.64986   0.51405   0.00000  Uiso   1.00
C1204  C     0.72800   0.60131   0.54116   0.00000  Uiso   1.00
C1205  C     0.77412   0.41642   0.52249   0.00000  Uiso   1.00
C1206  C     0.85664   0.65287   0.74958   0.00000  Uiso   1.00
C1207  C     0.81004   0.34715   0.75109   0.00000  Uiso   1.00
C1208  C     0.83425   0.50041   0.83624   0.00000  Uiso   1.00
C1209  C     0.83251   0.50064   0.66378   0.00000  Uiso   1.00
C1210  C     0.79747   0.46283   0.59385   0.00000  Uiso   1.00
H1211  H     0.92458   0.60690   0.54019   0.00000  Uiso   1.00
H1212  H     0.91893   0.34741   0.66688   0.00000  Uiso   1.00
H1213  H     0.94254   0.35711   0.60920   0.00000  Uiso   1.00
H1214  H     0.85289   0.64502   0.58419   0.00000  Uiso   1.00
H1215  H     0.82519   0.63667   0.64054   0.00000  Uiso   1.00
H1216  H     0.89807   0.58074   0.65582   0.00000  Uiso   1.00
H1217  H     0.94080   0.59187   0.60779   0.00000  Uiso   1.00
H1218  H     0.69557   0.43414   0.81660   0.00000  Uiso   1.00
H1219  H     0.70399   0.36435   0.81783   0.00000  Uiso   1.00
H1220  H     0.97237   0.39173   0.84107   0.00000  Uiso   1.00
H1221  H     0.69623   0.37333   0.90153   0.00000  Uiso   1.00
H1222  H     0.75325   0.38681   0.95848   0.00000  Uiso   1.00
H1223  H     0.69581   0.44339   0.89799   0.00000  Uiso   1.00
H1224  H     0.79557   0.40940   0.84363   0.00000  Uiso   1.00
H1225  H     0.79457   0.37407   0.89108   0.00000  Uiso   1.00
H1226  H     0.97792   0.40677   0.96099   0.00000  Uiso   1.00
H1227  H     0.90699   0.40707   0.93955   0.00000  Uiso   1.00
H1228  H     0.92225   0.43677   0.99374   0.00000  Uiso   1.00
H1229  H     0.87258   0.35516   0.51089   0.00000  Uiso   1.00
H1230  H     0.94789   0.34847   0.51669   0.00000  Uiso   1.00
H1231  H     0.95478   0.63448   0.94103   0.00000  Uiso   1.00
H1232  H     0.88075   0.64834   0.93405   0.00000  Uiso   1.00
H1233  H     0.90059   0.33682   0.74865   0.00000  Uiso   1.00
H1234  H     0.76335   0.59518   0.56294   0.00000  Uiso   1.00
H1235  H     0.68807   0.60579   0.56237   0.00000  Uiso   1.00
H1236  H     0.72179   0.56639   0.51831   0.00000  Uiso   1.00
H1237  H     0.70686   0.65287   0.99142   0.00000  Uiso   1.00
H1238  H     0.78275   0.64439   0.99354   0.00000  Uiso   1.00
H1239  H     0.77786   0.35708   0.57026   0.00000  Uiso   1.00
H1240  H     0.70586   0.37397   0.56100   0.00000  Uiso   1.00
H1241  H     0.76610   0.66318   0.75215   0.00000  Uiso   1.00
H1242  H     0.67087   0.46064   0.71584   0.00000  Uiso   1.00
H1243  H     0.99578   0.53928   0.78422   0.00000  Uiso   1.00
H1244  H     0.77725   0.41834   0.64417   0.00000  Uiso   1.00
H1245  H     0.88220   0.58526   0.85507   0.00000  Uiso   1.00
H1246  H     0.88057   0.38842   0.63349   0.00000  Uiso   1.00
N1247  N     0.98344   0.48598   0.73783   0.00000  Uiso   1.00
N1248  N     0.68322   0.51402   0.76217   0.00000  Uiso   1.00
O1249  O     0.79642   0.57952   0.75299   0.00000  Uiso   1.00
O1250  O     0.89950   0.57818   0.88326   0.00000  Uiso   1.00
O1251  O     0.87025   0.42048   0.74701   0.00000  Uiso   1.00
O1252  O     0.89280   0.57054   0.74519   0.00000  Uiso   1.00
O1253  O     0.77387   0.42946   0.75481   0.00000  Uiso   1.00
O1254  O     0.78514   0.50450   0.81997   0.00000  Uiso   1.00
O1255  O     0.88153   0.49550   0.68003   0.00000  Uiso   1.00
O1256  O     0.88152   0.49552   0.81218   0.00000  Uiso   1.00
O1257  O     0.78515   0.50448   0.68783   0.00000  Uiso   1.00
O1258  O     0.75899   0.42954   0.61761   0.00000  Uiso   1.00
Zn1259 Zn    0.76898   0.50600   0.75521   0.00000  Uiso   1.00
Zn1260 Zn    0.89769   0.49400   0.74479   0.00000  Uiso   1.00
C1261  C     0.18197   0.93158   0.74925   0.00000  Uiso   1.00
C1262  C     0.19809   0.87479   0.90652   0.00000  Uiso   1.00
C1263  C     0.16442   0.83541   0.61630   0.00000  Uiso   1.00
C1264  C     0.16866   0.83293   0.88377   0.00000  Uiso   1.00
C1265  C     0.19726   0.87523   0.59389   0.00000  Uiso   1.00
C1266  C     0.13849   0.79134   0.90588   0.00000  Uiso   1.00
C1267  C     0.19778   0.87391   0.54695   0.00000  Uiso   1.00
C1268  C     0.13668   0.79283   0.95285   0.00000  Uiso   1.00
C1269  C     0.16520   0.83412   0.52355   0.00000  Uiso   1.00
C1270  C     0.16576   0.83470   0.97654   0.00000  Uiso   1.00
C1271  C     0.13356   0.79317   0.54691   0.00000  Uiso   1.00
C1272  C     0.15137   0.73508   0.75078   0.00000  Uiso   1.00
C1273  C     0.19585   0.87682   0.95343   0.00000  Uiso   1.00
C1274  C     0.22952   0.91278   0.52319   0.00000  Uiso   1.00
C1275  C     0.10816   0.75184   0.97631   0.00000  Uiso   1.00
C1276  C     0.22844   0.92077   0.62009   0.00000  Uiso   1.00
C1277  C     0.19852   0.97206   0.61836   0.00000  Uiso   1.00
C1278  C     0.23766   0.68575   0.63299   0.00000  Uiso   1.00
C1279  C     0.11228   0.74384   0.87893   0.00000  Uiso   1.00
C1280  C     0.04572   0.74060   0.88161   0.00000  Uiso   1.00
C1281  C     0.01984   0.73212   0.83626   0.00000  Uiso   1.00
C1282  C     0.24509   0.97167   0.95843   0.00000  Uiso   1.00
C1283  C     0.22352   0.91909   0.97818   0.00000  Uiso   1.00
C1284  C     0.24821   0.68567   0.99232   0.00000  Uiso   1.00
C1285  C     0.26454   0.73707   0.96984   0.00000  Uiso   1.00
C1286  C     0.08198   0.69978   0.54458   0.00000  Uiso   1.00
C1287  C     0.07554   0.98320   0.51405   0.00000  Uiso   1.00
C1288  C     0.06133   0.93464   0.54116   0.00000  Uiso   1.00
C1289  C     0.10745   0.74976   0.52249   0.00000  Uiso   1.00
C1290  C     0.18997   0.98620   0.74958   0.00000  Uiso   1.00
C1291  C     0.14337   0.68049   0.75109   0.00000  Uiso   1.00
C1292  C     0.16759   0.83374   0.83624   0.00000  Uiso   1.00
C1293  C     0.16585   0.83398   0.66378   0.00000  Uiso   1.00
C1294  C     0.13080   0.79616   0.59385   0.00000  Uiso   1.00
H1295  H     0.25791   0.94023   0.54019   0.00000  Uiso   1.00
H1296  H     0.25226   0.68075   0.66688   0.00000  Uiso   1.00
H1297  H     0.27588   0.69045   0.60920   0.00000  Uiso   1.00
H1298  H     0.18622   0.97835   0.58419   0.00000  Uiso   1.00
H1299  H     0.15853   0.97001   0.64054   0.00000  Uiso   1.00
H1300  H     0.23141   0.91408   0.65582   0.00000  Uiso   1.00
H1301  H     0.27414   0.92521   0.60779   0.00000  Uiso   1.00
H1302  H     0.02890   0.76747   0.81660   0.00000  Uiso   1.00
H1303  H     0.03732   0.69769   0.81783   0.00000  Uiso   1.00
H1304  H     0.30571   0.72506   0.84107   0.00000  Uiso   1.00
H1305  H     0.02956   0.70666   0.90153   0.00000  Uiso   1.00
H1306  H     0.08658   0.72014   0.95848   0.00000  Uiso   1.00
H1307  H     0.02915   0.77672   0.89799   0.00000  Uiso   1.00
H1308  H     0.12890   0.74274   0.84363   0.00000  Uiso   1.00
H1309  H     0.12790   0.70740   0.89108   0.00000  Uiso   1.00
H1310  H     0.31125   0.74011   0.96099   0.00000  Uiso   1.00
H1311  H     0.24033   0.74040   0.93955   0.00000  Uiso   1.00
H1312  H     0.25558   0.77011   0.99374   0.00000  Uiso   1.00
H1313  H     0.20591   0.68849   0.51089   0.00000  Uiso   1.00
H1314  H     0.28123   0.68181   0.51669   0.00000  Uiso   1.00
H1315  H     0.28811   0.96781   0.94103   0.00000  Uiso   1.00
H1316  H     0.21408   0.98167   0.93405   0.00000  Uiso   1.00
H1317  H     0.23392   0.67016   0.74865   0.00000  Uiso   1.00
H1318  H     0.09669   0.92852   0.56294   0.00000  Uiso   1.00
H1319  H     0.02140   0.93912   0.56237   0.00000  Uiso   1.00
H1320  H     0.05513   0.89972   0.51831   0.00000  Uiso   1.00
H1321  H     0.04019   0.98621   0.99142   0.00000  Uiso   1.00
H1322  H     0.11608   0.97773   0.99354   0.00000  Uiso   1.00
H1323  H     0.11119   0.69042   0.57026   0.00000  Uiso   1.00
H1324  H     0.03919   0.70730   0.56100   0.00000  Uiso   1.00
H1325  H     0.09943   0.99651   0.75215   0.00000  Uiso   1.00
H1326  H     0.00421   0.79397   0.71584   0.00000  Uiso   1.00
H1327  H     0.32911   0.87262   0.78422   0.00000  Uiso   1.00
H1328  H     0.11058   0.75168   0.64417   0.00000  Uiso   1.00
H1329  H     0.21553   0.91860   0.85507   0.00000  Uiso   1.00
H1330  H     0.21390   0.72175   0.63349   0.00000  Uiso   1.00
N1331  N     0.31678   0.81932   0.73783   0.00000  Uiso   1.00
N1332  N     0.01656   0.84735   0.76217   0.00000  Uiso   1.00
O1333  O     0.12975   0.91286   0.75299   0.00000  Uiso   1.00
O1334  O     0.23283   0.91151   0.88326   0.00000  Uiso   1.00
O1335  O     0.20358   0.75381   0.74701   0.00000  Uiso   1.00
O1336  O     0.22613   0.90387   0.74519   0.00000  Uiso   1.00
O1337  O     0.10720   0.76279   0.75481   0.00000  Uiso   1.00
O1338  O     0.11847   0.83784   0.81997   0.00000  Uiso   1.00
O1339  O     0.21486   0.82883   0.68003   0.00000  Uiso   1.00
O1340  O     0.21485   0.82885   0.81218   0.00000  Uiso   1.00
O1341  O     0.11848   0.83781   0.68783   0.00000  Uiso   1.00
O1342  O     0.09232   0.76288   0.61761   0.00000  Uiso   1.00
Zn1343 Zn    0.10231   0.83933   0.75521   0.00000  Uiso   1.00
Zn1344 Zn    0.23102   0.82734   0.74479   0.00000  Uiso   1.00
C1345  C     0.51530   0.93158   0.74925   0.00000  Uiso   1.00
C1346  C     0.53142   0.87479   0.90652   0.00000  Uiso   1.00
C1347  C     0.49775   0.83541   0.61630   0.00000  Uiso   1.00
C1348  C     0.50199   0.83293   0.88377   0.00000  Uiso   1.00
C1349  C     0.53059   0.87523   0.59389   0.00000  Uiso   1.00
C1350  C     0.47182   0.79134   0.90588   0.00000  Uiso   1.00
C1351  C     0.53112   0.87391   0.54695   0.00000  Uiso   1.00
C1352  C     0.47001   0.79283   0.95285   0.00000  Uiso   1.00
C1353  C     0.49853   0.83412   0.52355   0.00000  Uiso   1.00
C1354  C     0.49909   0.83470   0.97654   0.00000  Uiso   1.00
C1355  C     0.46689   0.79317   0.54691   0.00000  Uiso   1.00
C1356  C     0.48470   0.73508   0.75078   0.00000  Uiso   1.00
C1357  C     0.52918   0.87682   0.95343   0.00000  Uiso   1.00
C1358  C     0.56286   0.91278   0.52319   0.00000  Uiso   1.00
C1359  C     0.44149   0.75184   0.97631   0.00000  Uiso   1.00
C1360  C     0.56178   0.92077   0.62009   0.00000  Uiso   1.00
C1361  C     0.53186   0.97206   0.61836   0.00000  Uiso   1.00
C1362  C     0.57099   0.68575   0.63299   0.00000  Uiso   1.00
C1363  C     0.44562   0.74384   0.87893   0.00000  Uiso   1.00
C1364  C     0.37905   0.74060   0.88161   0.00000  Uiso   1.00
C1365  C     0.35317   0.73212   0.83626   0.00000  Uiso   1.00
C1366  C     0.57842   0.97167   0.95843   0.00000  Uiso   1.00
C1367  C     0.55685   0.91909   0.97818   0.00000  Uiso   1.00
C1368  C     0.58154   0.68567   0.99232   0.00000  Uiso   1.00
C1369  C     0.59787   0.73707   0.96984   0.00000  Uiso   1.00
C1370  C     0.41531   0.69978   0.54458   0.00000  Uiso   1.00
C1371  C     0.40887   0.98320   0.51405   0.00000  Uiso   1.00
C1372  C     0.39466   0.93464   0.54116   0.00000  Uiso   1.00
C1373  C     0.44078   0.74976   0.52249   0.00000  Uiso   1.00
C1374  C     0.52330   0.98620   0.74958   0.00000  Uiso   1.00
C1375  C     0.47671   0.68049   0.75109   0.00000  Uiso   1.00
C1376  C     0.50092   0.83374   0.83624   0.00000  Uiso   1.00
C1377  C     0.49918   0.83398   0.66378   0.00000  Uiso   1.00
C1378  C     0.46414   0.79616   0.59385   0.00000  Uiso   1.00
H1379  H     0.59125   0.94023   0.54019   0.00000  Uiso   1.00
H1380  H     0.58559   0.68075   0.66688   0.00000  Uiso   1.00
H1381  H     0.60921   0.69045   0.60920   0.00000  Uiso   1.00
H1382  H     0.51955   0.97835   0.58419   0.00000  Uiso   1.00
H1383  H     0.49186   0.97001   0.64054   0.00000  Uiso   1.00
H1384  H     0.56474   0.91408   0.65582   0.00000  Uiso   1.00
H1385  H     0.60747   0.92521   0.60779   0.00000  Uiso   1.00
H1386  H     0.36224   0.76747   0.81660   0.00000  Uiso   1.00
H1387  H     0.37065   0.69769   0.81783   0.00000  Uiso   1.00
H1388  H     0.63904   0.72506   0.84107   0.00000  Uiso   1.00
H1389  H     0.36289   0.70666   0.90153   0.00000  Uiso   1.00
H1390  H     0.41992   0.72014   0.95848   0.00000  Uiso   1.00
H1391  H     0.36248   0.77672   0.89799   0.00000  Uiso   1.00
H1392  H     0.46224   0.74274   0.84363   0.00000  Uiso   1.00
H1393  H     0.46124   0.70740   0.89108   0.00000  Uiso   1.00
H1394  H     0.64459   0.74011   0.96099   0.00000  Uiso   1.00
H1395  H     0.57366   0.74040   0.93955   0.00000  Uiso   1.00
H1396  H     0.58892   0.77011   0.99374   0.00000  Uiso   1.00
H1397  H     0.53925   0.68849   0.51089   0.00000  Uiso   1.00
H1398  H     0.61456   0.68181   0.51669   0.00000  Uiso   1.00
H1399  H     0.62144   0.96781   0.94103   0.00000  Uiso   1.00
H1400  H     0.54742   0.98167   0.93405   0.00000  Uiso   1.00
H1401  H     0.56726   0.67016   0.74865   0.00000  Uiso   1.00
H1402  H     0.43002   0.92852   0.56294   0.00000  Uiso   1.00
H1403  H     0.35474   0.93912   0.56237   0.00000  Uiso   1.00
H1404  H     0.38846   0.89972   0.51831   0.00000  Uiso   1.00
H1405  H     0.37353   0.98621   0.99142   0.00000  Uiso   1.00
H1406  H     0.44942   0.97773   0.99354   0.00000  Uiso   1.00
H1407  H     0.44453   0.69042   0.57026   0.00000  Uiso   1.00
H1408  H     0.37252   0.70730   0.56100   0.00000  Uiso   1.00
H1409  H     0.43276   0.99651   0.75215   0.00000  Uiso   1.00
H1410  H     0.33754   0.79397   0.71584   0.00000  Uiso   1.00
H1411  H     0.66245   0.87262   0.78422   0.00000  Uiso   1.00
H1412  H     0.44391   0.75168   0.64417   0.00000  Uiso   1.00
H1413  H     0.54886   0.91860   0.85507   0.00000  Uiso   1.00
H1414  H     0.54723   0.72175   0.63349   0.00000  Uiso   1.00
N1415  N     0.65011   0.81932   0.73783   0.00000  Uiso   1.00
N1416  N     0.34989   0.84735   0.76217   0.00000  Uiso   1.00
O1417  O     0.46308   0.91286   0.75299   0.00000  Uiso   1.00
O1418  O     0.56617   0.91151   0.88326   0.00000  Uiso   1.00
O1419  O     0.53692   0.75381   0.74701   0.00000  Uiso   1.00
O1420  O     0.55946   0.90387   0.74519   0.00000  Uiso   1.00
O1421  O     0.44054   0.76279   0.75481   0.00000  Uiso   1.00
O1422  O     0.45181   0.83784   0.81997   0.00000  Uiso   1.00
O1423  O     0.54819   0.82883   0.68003   0.00000  Uiso   1.00
O1424  O     0.54819   0.82885   0.81218   0.00000  Uiso   1.00
O1425  O     0.45181   0.83781   0.68783   0.00000  Uiso   1.00
O1426  O     0.42565   0.76288   0.61761   0.00000  Uiso   1.00
Zn1427 Zn    0.43565   0.83933   0.75521   0.00000  Uiso   1.00
Zn1428 Zn    0.56435   0.82734   0.74479   0.00000  Uiso   1.00
C1429  C     0.84863   0.93158   0.74925   0.00000  Uiso   1.00
C1430  C     0.86475   0.87479   0.90652   0.00000  Uiso   1.00
C1431  C     0.83109   0.83541   0.61630   0.00000  Uiso   1.00
C1432  C     0.83533   0.83293   0.88377   0.00000  Uiso   1.00
C1433  C     0.86393   0.87523   0.59389   0.00000  Uiso   1.00
C1434  C     0.80516   0.79134   0.90588   0.00000  Uiso   1.00
C1435  C     0.86445   0.87391   0.54695   0.00000  Uiso   1.00
C1436  C     0.80334   0.79283   0.95285   0.00000  Uiso   1.00
C1437  C     0.83186   0.83412   0.52355   0.00000  Uiso   1.00
C1438  C     0.83243   0.83470   0.97654   0.00000  Uiso   1.00
C1439  C     0.80022   0.79317   0.54691   0.00000  Uiso   1.00
C1440  C     0.81803   0.73508   0.75078   0.00000  Uiso   1.00
C1441  C     0.86251   0.87682   0.95343   0.00000  Uiso   1.00
C1442  C     0.89619   0.91278   0.52319   0.00000  Uiso   1.00
C1443  C     0.77482   0.75184   0.97631   0.00000  Uiso   1.00
C1444  C     0.89511   0.92077   0.62009   0.00000  Uiso   1.00
C1445  C     0.86519   0.97206   0.61836   0.00000  Uiso   1.00
C1446  C     0.90432   0.68575   0.63299   0.00000  Uiso   1.00
C1447  C     0.77895   0.74384   0.87893   0.00000  Uiso   1.00
C1448  C     0.71238   0.74060   0.88161   0.00000  Uiso   1.00
C1449  C     0.68650   0.73212   0.83626   0.00000  Uiso   1.00
C1450  C     0.91175   0.97167   0.95843   0.00000  Uiso   1.00
C1451  C     0.89018   0.91909   0.97818   0.00000  Uiso   1.00
C1452  C     0.91487   0.68567   0.99232   0.00000  Uiso   1.00
C1453  C     0.93121   0.73707   0.96984   0.00000  Uiso   1.00
C1454  C     0.74865   0.69978   0.54458   0.00000  Uiso   1.00
C1455  C     0.74220   0.98320   0.51405   0.00000  Uiso   1.00
C1456  C     0.72800   0.93464   0.54116   0.00000  Uiso   1.00
C1457  C     0.77412   0.74976   0.52249   0.00000  Uiso   1.00
C1458  C     0.85664   0.98620   0.74958   0.00000  Uiso   1.00
C1459  C     0.81004   0.68049   0.75109   0.00000  Uiso   1.00
C1460  C     0.83425   0.83374   0.83624   0.00000  Uiso   1.00
C1461  C     0.83251   0.83398   0.66378   0.00000  Uiso   1.00
C1462  C     0.79747   0.79616   0.59385   0.00000  Uiso   1.00
H1463  H     0.92458   0.94023   0.54019   0.00000  Uiso   1.00
H1464  H     0.91893   0.68075   0.66688   0.00000  Uiso   1.00
H1465  H     0.94254   0.69045   0.60920   0.00000  Uiso   1.00
H1466  H     0.85289   0.97835   0.58419   0.00000  Uiso   1.00
H1467  H     0.82519   0.97001   0.64054   0.00000  Uiso   1.00
H1468  H     0.89807   0.91408   0.65582   0.00000  Uiso   1.00
H1469  H     0.94080   0.92521   0.60779   0.00000  Uiso   1.00
H1470  H     0.69557   0.76747   0.81660   0.00000  Uiso   1.00
H1471  H     0.70399   0.69769   0.81783   0.00000  Uiso   1.00
H1472  H     0.97237   0.72506   0.84107   0.00000  Uiso   1.00
H1473  H     0.69623   0.70666   0.90153   0.00000  Uiso   1.00
H1474  H     0.75325   0.72014   0.95848   0.00000  Uiso   1.00
H1475  H     0.69581   0.77672   0.89799   0.00000  Uiso   1.00
H1476  H     0.79557   0.74274   0.84363   0.00000  Uiso   1.00
H1477  H     0.79457   0.70740   0.89108   0.00000  Uiso   1.00
H1478  H     0.97792   0.74011   0.96099   0.00000  Uiso   1.00
H1479  H     0.90699   0.74040   0.93955   0.00000  Uiso   1.00
H1480  H     0.92225   0.77011   0.99374   0.00000  Uiso   1.00
H1481  H     0.87258   0.68849   0.51089   0.00000  Uiso   1.00
H1482  H     0.94789   0.68181   0.51669   0.00000  Uiso   1.00
H1483  H     0.95478   0.96781   0.94103   0.00000  Uiso   1.00
H1484  H     0.88075   0.98167   0.93405   0.00000  Uiso   1.00
H1485  H     0.90059   0.67016   0.74865   0.00000  Uiso   1.00
H1486  H     0.76335   0.92852   0.56294   0.00000  Uiso   1.00
H1487  H     0.68807   0.93912   0.56237   0.00000  Uiso   1.00
H1488  H     0.72179   0.89972   0.51831   0.00000  Uiso   1.00
H1489  H     0.70686   0.98621   0.99142   0.00000  Uiso   1.00
H1490  H     0.78275   0.97773   0.99354   0.00000  Uiso   1.00
H1491  H     0.77786   0.69042   0.57026   0.00000  Uiso   1.00
H1492  H     0.70586   0.70730   0.56100   0.00000  Uiso   1.00
H1493  H     0.76610   0.99651   0.75215   0.00000  Uiso   1.00
H1494  H     0.67087   0.79397   0.71584   0.00000  Uiso   1.00
H1495  H     0.99578   0.87262   0.78422   0.00000  Uiso   1.00
H1496  H     0.77725   0.75168   0.64417   0.00000  Uiso   1.00
H1497  H     0.88220   0.91860   0.85507   0.00000  Uiso   1.00
H1498  H     0.88057   0.72175   0.63349   0.00000  Uiso   1.00
N1499  N     0.98344   0.81932   0.73783   0.00000  Uiso   1.00
N1500  N     0.68322   0.84735   0.76217   0.00000  Uiso   1.00
O1501  O     0.79642   0.91286   0.75299   0.00000  Uiso   1.00
O1502  O     0.89950   0.91151   0.88326   0.00000  Uiso   1.00
O1503  O     0.87025   0.75381   0.74701   0.00000  Uiso   1.00
O1504  O     0.89280   0.90387   0.74519   0.00000  Uiso   1.00
O1505  O     0.77387   0.76279   0.75481   0.00000  Uiso   1.00
O1506  O     0.78514   0.83784   0.81997   0.00000  Uiso   1.00
O1507  O     0.88153   0.82883   0.68003   0.00000  Uiso   1.00
O1508  O     0.88152   0.82885   0.81218   0.00000  Uiso   1.00
O1509  O     0.78515   0.83781   0.68783   0.00000  Uiso   1.00
O1510  O     0.75899   0.76288   0.61761   0.00000  Uiso   1.00
Zn1511 Zn    0.76898   0.83933   0.75521   0.00000  Uiso   1.00
Zn1512 Zn    0.89769   0.82734   0.74479   0.00000  Uiso   1.00
loop_
_geom_bond_atom_site_label_1
_geom_bond_atom_site_label_2
_geom_bond_distance
_geom_bond_site_symmetry_2
_ccdc_geom_bond_type
C1     O76     1.289   .     A
C1     O73     1.278   .     A
C1     C30     1.401   .     S
C2     C13     1.405   .     A
C2     O74     1.384   .     S
C2     C4      1.407   .     A
C3     C33     1.431   .     S
C3     C34     1.406   .     A
C3     C5      1.404   .     A
C4     C6      1.406   .     A
C4     C32     1.430   .     S
C5     C16     1.544   .     S
C5     C7      1.408   .     A
C6     C19     1.543   .     S
C6     C8      1.407   .     A
C7     C9      1.417   .     A
C7     C14     1.396   .     A
C8     C15     1.399   .     A
C8     C10     1.418   .     A
C9     C11     1.426   .     A
C9     C766    1.412   1_554 S
C10    C13     1.430   .     A
C10    C765    1.412   .     S
C11    C34     1.406   .     A
C11    C29     1.427   .     A
C12    O77     1.289   .     A
C12    C31     1.401   .     S
C12    O75     1.278   .     A
C13    C23     1.426   .     A
C14    H35     1.068   .     S
C14    C779    1.386   1_554 S
C15    H46     1.067   .     S
C15    C785    1.389   .     S
C16    C17     1.537   .     S
C16    H40     1.101   .     S
C16    H41     1.106   .     S
C17    H39     1.112   .     S
C17    H38     1.104   .     S
C17    C270    1.526   .     S
C18    H70     1.110   .     S
C18    H37     1.111   .     S
C18    H36     1.109   .     S
C18    C521    1.526   1_545 S
C19    C20     1.547   .     S
C19    H48     1.106   .     S
C19    H49     1.112   .     S
C20    H45     1.110   .     S
C20    H47     1.112   .     S
C20    C21     1.524   .     S
C21    H43     1.110   .     S
C21    H42     1.106   .     S
C21    H212    1.111   1_455 S
C22    H56     1.111   .     S
C22    H55     1.111   .     S
C22    C23     1.538   .     S
C22    C276    1.550   .     S
C23    C770    1.386   .     S
C24    C25     1.523   .     S
C24    C526    1.550   1_545 S
C24    H809    1.108   .     S
C24    H810    1.108   .     S
C25    H50     1.104   .     S
C25    H51     1.110   .     S
C25    H52     1.109   .     S
C26    H64     1.111   .     S
C26    H63     1.106   .     S
C26    C29     1.536   .     S
C26    C531    1.545   1_545 S
C27    C28     1.525   .     S
C27    C278    1.545   .     S
C27    H817    1.110   1_554 S
C27    H818    1.110   1_554 S
C28    H60     1.111   .     S
C28    H59     1.105   .     S
C28    H58     1.108   .     S
C29    C771    1.389   1_554 S
C30    C283    1.336   .     S
C30    H309    1.088   .     S
C31    C534    1.336   1_545 S
C31    H569    1.087   1_545 S
C32    O80     1.291   .     A
C32    O78     1.286   .     A
C33    O79     1.288   .     A
C33    O81     1.289   .     A
C34    O82     1.383   .     S
H44    C105    1.111   .     S
H53    C780    1.108   1_554 S
H54    C780    1.108   1_554 S
H57    C534    1.088   1_545 S
H61    C783    1.110   .     S
H62    C783    1.110   .     S
H65    C283    1.087   .     S
H66    N239    1.029   1_455 S
H67    N156    1.029   .     S
H68    O82     0.990   .     S
H69    O74     0.990   .     S
N71    Zn84    2.023   .     S
N71    H150    1.029   .     S
N71    N156    1.262   .     S
N72    Zn83    2.023   .     S
N72    H235    1.029   1_455 S
N72    N239    1.262   1_455 S
O73    Zn83    1.952   .     S
O75    Zn84    1.952   .     S
O76    Zn84    1.975   .     S
O77    Zn83    1.975   .     S
O78    Zn83    2.007   .     S
O79    Zn84    2.007   .     S
O80    Zn84    2.035   .     S
O81    Zn83    2.035   .     S
C85    O160    1.289   .     A
C85    O157    1.278   .     A
C85    C114    1.401   .     S
C86    C97     1.405   .     A
C86    O158    1.384   .     S
C86    C88     1.407   .     A
C87    C117    1.431   .     S
C87    C118    1.406   .     A
C87    C89     1.404   .     A
C88    C90     1.406   .     A
C88    C116    1.430   .     S
C89    C100    1.544   .     S
C89    C91     1.408   .     A
C90    C103    1.543   .     S
C90    C92     1.407   .     A
C91    C93     1.417   .     A
C91    C98     1.396   .     A
C92    C99     1.399   .     A
C92    C94     1.418   .     A
C93    C95     1.426   .     A
C93    C850    1.412   1_554 S
C94    C97     1.430   .     A
C94    C849    1.412   .     S
C95    C118    1.406   .     A
C95    C113    1.427   .     A
C96    O161    1.289   .     A
C96    C115    1.401   .     S
C96    O159    1.278   .     A
C97    C107    1.426   .     A
C98    H119    1.068   .     S
C98    C863    1.386   1_554 S
C99    H130    1.067   .     S
C99    C869    1.389   .     S
C100   C101    1.537   .     S
C100   H124    1.101   .     S
C100   H125    1.106   .     S
C101   H123    1.112   .     S
C101   H122    1.104   .     S
C101   C354    1.526   .     S
C102   H154    1.110   .     S
C102   H121    1.111   .     S
C102   H120    1.109   .     S
C102   C605    1.526   1_545 S
C103   C104    1.547   .     S
C103   H132    1.106   .     S
C103   H133    1.112   .     S
C104   H129    1.110   .     S
C104   H131    1.112   .     S
C104   C105    1.524   .     S
C105   H127    1.110   .     S
C105   H126    1.106   .     S
C106   H140    1.111   .     S
C106   H139    1.111   .     S
C106   C107    1.538   .     S
C106   C360    1.550   .     S
C107   C854    1.386   .     S
C108   C109    1.523   .     S
C108   C610    1.550   1_545 S
C108   H893    1.108   .     S
C108   H894    1.108   .     S
C109   H134    1.104   .     S
C109   H135    1.110   .     S
C109   H136    1.109   .     S
C110   H148    1.111   .     S
C110   H147    1.106   .     S
C110   C113    1.536   .     S
C110   C615    1.545   1_545 S
C111   C112    1.525   .     S
C111   C362    1.545   .     S
C111   H901    1.110   1_554 S
C111   H902    1.110   1_554 S
C112   H144    1.111   .     S
C112   H143    1.105   .     S
C112   H142    1.108   .     S
C113   C855    1.389   1_554 S
C114   C367    1.336   .     S
C114   H393    1.088   .     S
C115   C618    1.336   1_545 S
C115   H653    1.087   1_545 S
C116   O164    1.291   .     A
C116   O162    1.286   .     A
C117   O163    1.288   .     A
C117   O165    1.289   .     A
C118   O166    1.383   .     S
H128   C189    1.111   .     S
H137   C864    1.108   1_554 S
H138   C864    1.108   1_554 S
H141   C618    1.088   1_545 S
H145   C867    1.110   .     S
H146   C867    1.110   .     S
H149   C367    1.087   .     S
H151   N240    1.029   .     S
H152   O166    0.990   .     S
H153   O158    0.990   .     S
N155   Zn168   2.023   .     S
N155   H234    1.029   .     S
N155   N240    1.262   .     S
N156   Zn167   2.023   .     S
O157   Zn167   1.952   .     S
O159   Zn168   1.952   .     S
O160   Zn168   1.975   .     S
O161   Zn167   1.975   .     S
O162   Zn167   2.007   .     S
O163   Zn168   2.007   .     S
O164   Zn168   2.035   .     S
O165   Zn167   2.035   .     S
C169   O244    1.289   .     A
C169   O241    1.278   .     A
C169   C198    1.401   .     S
C170   C181    1.405   .     A
C170   O242    1.384   .     S
C170   C172    1.407   .     A
C171   C201    1.431   .     S
C171   C202    1.406   .     A
C171   C173    1.404   .     A
C172   C174    1.406   .     A
C172   C200    1.430   .     S
C173   C184    1.544   .     S
C173   C175    1.408   .     A
C174   C187    1.543   .     S
C174   C176    1.407   .     A
C175   C177    1.417   .     A
C175   C182    1.396   .     A
C176   C183    1.399   .     A
C176   C178    1.418   .     A
C177   C179    1.426   .     A
C177   C934    1.412   1_554 S
C178   C181    1.430   .     A
C178   C933    1.412   .     S
C179   C202    1.406   .     A
C179   C197    1.427   .     A
C180   O245    1.289   .     A
C180   C199    1.401   .     S
C180   O243    1.278   .     A
C181   C191    1.426   .     A
C182   H203    1.068   .     S
C182   C947    1.386   1_554 S
C183   H214    1.067   .     S
C183   C953    1.389   .     S
C184   C185    1.537   .     S
C184   H208    1.101   .     S
C184   H209    1.106   .     S
C185   H207    1.112   .     S
C185   H206    1.104   .     S
C185   C438    1.526   .     S
C186   H238    1.110   .     S
C186   H205    1.111   .     S
C186   H204    1.109   .     S
C186   C689    1.526   1_545 S
C187   C188    1.547   .     S
C187   H216    1.106   .     S
C187   H217    1.112   .     S
C188   H213    1.110   .     S
C188   H215    1.112   .     S
C188   C189    1.524   .     S
C189   H211    1.110   .     S
C189   H210    1.106   .     S
C190   H224    1.111   .     S
C190   H223    1.111   .     S
C190   C191    1.538   .     S
C190   C444    1.550   .     S
C191   C938    1.386   .     S
C192   C193    1.523   .     S
C192   C694    1.550   1_545 S
C192   H977    1.108   .     S
C192   H978    1.108   .     S
C193   H218    1.104   .     S
C193   H219    1.110   .     S
C193   H220    1.109   .     S
C194   H232    1.111   .     S
C194   H231    1.106   .     S
C194   C197    1.536   .     S
C194   C699    1.545   1_545 S
C195   C196    1.525   .     S
C195   C446    1.545   .     S
C195   H985    1.110   1_554 S
C195   H986    1.110   1_554 S
C196   H228    1.111   .     S
C196   H227    1.105   .     S
C196   H226    1.108   .     S
C197   C939    1.389   1_554 S
C198   C451    1.336   .     S
C198   H477    1.088   .     S
C199   C702    1.336   1_545 S
C199   H737    1.087   1_545 S
C200   O248    1.291   .     A
C200   O246    1.286   .     A
C201   O247    1.288   .     A
C201   O249    1.289   .     A
C202   O250    1.383   .     S
H212   C21     1.111   1_655 S
H221   C948    1.108   1_554 S
H222   C948    1.108   1_554 S
H225   C702    1.088   1_545 S
H229   C951    1.110   .     S
H230   C951    1.110   .     S
H233   C451    1.087   .     S
H235   N72     1.029   1_655 S
H236   O250    0.990   .     S
H237   O242    0.990   .     S
N239   Zn252   2.023   .     S
N239   H66     1.029   1_655 S
N239   N72     1.262   1_655 S
N240   Zn251   2.023   .     S
O241   Zn251   1.952   .     S
O243   Zn252   1.952   .     S
O244   Zn252   1.975   .     S
O245   Zn251   1.975   .     S
O246   Zn251   2.007   .     S
O247   Zn252   2.007   .     S
O248   Zn252   2.035   .     S
O249   Zn251   2.035   .     S
C253   O328    1.289   .     A
C253   O325    1.278   .     A
C253   C282    1.401   .     S
C254   C265    1.405   .     A
C254   O326    1.384   .     S
C254   C256    1.407   .     A
C255   C285    1.431   .     S
C255   C286    1.406   .     A
C255   C257    1.404   .     A
C256   C258    1.406   .     A
C256   C284    1.430   .     S
C257   C268    1.544   .     S
C257   C259    1.408   .     A
C258   C271    1.543   .     S
C258   C260    1.407   .     A
C259   C261    1.417   .     A
C259   C266    1.396   .     A
C260   C267    1.399   .     A
C260   C262    1.418   .     A
C261   C263    1.426   .     A
C261   C1018   1.412   1_554 S
C262   C265    1.430   .     A
C262   C1017   1.412   .     S
C263   C286    1.406   .     A
C263   C281    1.427   .     A
C264   O329    1.289   .     A
C264   C283    1.401   .     S
C264   O327    1.278   .     A
C265   C275    1.426   .     A
C266   H287    1.068   .     S
C266   C1031   1.386   1_554 S
C267   H298    1.067   .     S
C267   C1037   1.389   .     S
C268   C269    1.537   .     S
C268   H292    1.101   .     S
C268   H293    1.106   .     S
C269   H291    1.112   .     S
C269   H290    1.104   .     S
C269   C522    1.526   .     S
C270   H322    1.110   .     S
C270   H289    1.111   .     S
C270   H288    1.109   .     S
C271   C272    1.547   .     S
C271   H300    1.106   .     S
C271   H301    1.112   .     S
C272   H297    1.110   .     S
C272   H299    1.112   .     S
C272   C273    1.524   .     S
C273   H295    1.110   .     S
C273   H294    1.106   .     S
C273   H464    1.111   1_455 S
C274   H308    1.111   .     S
C274   H307    1.111   .     S
C274   C275    1.538   .     S
C274   C528    1.550   .     S
C275   C1022   1.386   .     S
C276   C277    1.523   .     S
C276   H1061   1.108   .     S
C276   H1062   1.108   .     S
C277   H302    1.104   .     S
C277   H303    1.110   .     S
C277   H304    1.109   .     S
C278   H316    1.111   .     S
C278   H315    1.106   .     S
C278   C281    1.536   .     S
C279   C280    1.525   .     S
C279   C530    1.545   .     S
C279   H1069   1.110   1_554 S
C279   H1070   1.110   1_554 S
C280   H312    1.111   .     S
C280   H311    1.105   .     S
C280   H310    1.108   .     S
C281   C1023   1.389   1_554 S
C282   C535    1.336   .     S
C282   H561    1.088   .     S
C284   O332    1.291   .     A
C284   O330    1.286   .     A
C285   O331    1.288   .     A
C285   O333    1.289   .     A
C286   O334    1.383   .     S
H296   C357    1.111   .     S
H305   C1032   1.108   1_554 S
H306   C1032   1.108   1_554 S
H313   C1035   1.110   .     S
H314   C1035   1.110   .     S
H317   C535    1.087   .     S
H318   N491    1.029   1_455 S
H319   N408    1.029   .     S
H320   O334    0.990   .     S
H321   O326    0.990   .     S
N323   Zn336   2.023   .     S
N323   H402    1.029   .     S
N323   N408    1.262   .     S
N324   Zn335   2.023   .     S
N324   H487    1.029   1_455 S
N324   N491    1.262   1_455 S
O325   Zn335   1.952   .     S
O327   Zn336   1.952   .     S
O328   Zn336   1.975   .     S
O329   Zn335   1.975   .     S
O330   Zn335   2.007   .     S
O331   Zn336   2.007   .     S
O332   Zn336   2.035   .     S
O333   Zn335   2.035   .     S
C337   O412    1.289   .     A
C337   O409    1.278   .     A
C337   C366    1.401   .     S
C338   C349    1.405   .     A
C338   O410    1.384   .     S
C338   C340    1.407   .     A
C339   C369    1.431   .     S
C339   C370    1.406   .     A
C339   C341    1.404   .     A
C340   C342    1.406   .     A
C340   C368    1.430   .     S
C341   C352    1.544   .     S
C341   C343    1.408   .     A
C342   C355    1.543   .     S
C342   C344    1.407   .     A
C343   C345    1.417   .     A
C343   C350    1.396   .     A
C344   C351    1.399   .     A
C344   C346    1.418   .     A
C345   C347    1.426   .     A
C345   C1102   1.412   1_554 S
C346   C349    1.430   .     A
C346   C1101   1.412   .     S
C347   C370    1.406   .     A
C347   C365    1.427   .     A
C348   O413    1.289   .     A
C348   C367    1.401   .     S
C348   O411    1.278   .     A
C349   C359    1.426   .     A
C350   H371    1.068   .     S
C350   C1115   1.386   1_554 S
C351   H382    1.067   .     S
C351   C1121   1.389   .     S
C352   C353    1.537   .     S
C352   H376    1.101   .     S
C352   H377    1.106   .     S
C353   H375    1.112   .     S
C353   H374    1.104   .     S
C353   C606    1.526   .     S
C354   H406    1.110   .     S
C354   H373    1.111   .     S
C354   H372    1.109   .     S
C355   C356    1.547   .     S
C355   H384    1.106   .     S
C355   H385    1.112   .     S
C356   H381    1.110   .     S
C356   H383    1.112   .     S
C356   C357    1.524   .     S
C357   H379    1.110   .     S
C357   H378    1.106   .     S
C358   H392    1.111   .     S
C358   H391    1.111   .     S
C358   C359    1.538   .     S
C358   C612    1.550   .     S
C359   C1106   1.386   .     S
C360   C361    1.523   .     S
C360   H1145   1.108   .     S
C360   H1146   1.108   .     S
C361   H386    1.104   .     S
C361   H387    1.110   .     S
C361   H388    1.109   .     S
C362   H400    1.111   .     S
C362   H399    1.106   .     S
C362   C365    1.536   .     S
C363   C364    1.525   .     S
C363   C614    1.545   .     S
C363   H1153   1.110   1_554 S
C363   H1154   1.110   1_554 S
C364   H396    1.111   .     S
C364   H395    1.105   .     S
C364   H394    1.108   .     S
C365   C1107   1.389   1_554 S
C366   C619    1.336   .     S
C366   H645    1.088   .     S
C368   O416    1.291   .     A
C368   O414    1.286   .     A
C369   O415    1.288   .     A
C369   O417    1.289   .     A
C370   O418    1.383   .     S
H380   C441    1.111   .     S
H389   C1116   1.108   1_554 S
H390   C1116   1.108   1_554 S
H397   C1119   1.110   .     S
H398   C1119   1.110   .     S
H401   C619    1.087   .     S
H403   N492    1.029   .     S
H404   O418    0.990   .     S
H405   O410    0.990   .     S
N407   Zn420   2.023   .     S
N407   H486    1.029   .     S
N407   N492    1.262   .     S
N408   Zn419   2.023   .     S
O409   Zn419   1.952   .     S
O411   Zn420   1.952   .     S
O412   Zn420   1.975   .     S
O413   Zn419   1.975   .     S
O414   Zn419   2.007   .     S
O415   Zn420   2.007   .     S
O416   Zn420   2.035   .     S
O417   Zn419   2.035   .     S
C421   O496    1.289   .     A
C421   O493    1.278   .     A
C421   C450    1.401   .     S
C422   C433    1.405   .     A
C422   O494    1.384   .     S
C422   C424    1.407   .     A
C423   C453    1.431   .     S
C423   C454    1.406   .     A
C423   C425    1.404   .     A
C424   C426    1.406   .     A
C424   C452    1.430   .     S
C425   C436    1.544   .     S
C425   C427    1.408   .     A
C426   C439    1.543   .     S
C426   C428    1.407   .     A
C427   C429    1.417   .     A
C427   C434    1.396   .     A
C428   C435    1.399   .     A
C428   C430    1.418   .     A
C429   C431    1.426   .     A
C429   C1186   1.412   1_554 S
C430   C433    1.430   .     A
C430   C1185   1.412   .     S
C431   C454    1.406   .     A
C431   C449    1.427   .     A
C432   O497    1.289   .     A
C432   C451    1.401   .     S
C432   O495    1.278   .     A
C433   C443    1.426   .     A
C434   H455    1.068   .     S
C434   C1199   1.386   1_554 S
C435   H466    1.067   .     S
C435   C1205   1.389   .     S
C436   C437    1.537   .     S
C436   H460    1.101   .     S
C436   H461    1.106   .     S
C437   H459    1.112   .     S
C437   H458    1.104   .     S
C437   C690    1.526   .     S
C438   H490    1.110   .     S
C438   H457    1.111   .     S
C438   H456    1.109   .     S
C439   C440    1.547   .     S
C439   H468    1.106   .     S
C439   H469    1.112   .     S
C440   H465    1.110   .     S
C440   H467    1.112   .     S
C440   C441    1.524   .     S
C441   H463    1.110   .     S
C441   H462    1.106   .     S
C442   H476    1.111   .     S
C442   H475    1.111   .     S
C442   C443    1.538   .     S
C442   C696    1.550   .     S
C443   C1190   1.386   .     S
C444   C445    1.523   .     S
C444   H1229   1.108   .     S
C444   H1230   1.108   .     S
C445   H470    1.104   .     S
C445   H471    1.110   .     S
C445   H472    1.109   .     S
C446   H484    1.111   .     S
C446   H483    1.106   .     S
C446   C449    1.536   .     S
C447   C448    1.525   .     S
C447   C698    1.545   .     S
C447   H1237   1.110   1_554 S
C447   H1238   1.110   1_554 S
C448   H480    1.111   .     S
C448   H479    1.105   .     S
C448   H478    1.108   .     S
C449   C1191   1.389   1_554 S
C450   C703    1.336   .     S
C450   H729    1.088   .     S
C452   O500    1.291   .     A
C452   O498    1.286   .     A
C453   O499    1.288   .     A
C453   O501    1.289   .     A
C454   O502    1.383   .     S
H464   C273    1.111   1_655 S
H473   C1200   1.108   1_554 S
H474   C1200   1.108   1_554 S
H481   C1203   1.110   .     S
H482   C1203   1.110   .     S
H485   C703    1.087   .     S
H487   N324    1.029   1_655 S
H488   O502    0.990   .     S
H489   O494    0.990   .     S
N491   Zn504   2.023   .     S
N491   H318    1.029   1_655 S
N491   N324    1.262   1_655 S
N492   Zn503   2.023   .     S
O493   Zn503   1.952   .     S
O495   Zn504   1.952   .     S
O496   Zn504   1.975   .     S
O497   Zn503   1.975   .     S
O498   Zn503   2.007   .     S
O499   Zn504   2.007   .     S
O500   Zn504   2.035   .     S
O501   Zn503   2.035   .     S
C505   O580    1.289   .     A
C505   O577    1.278   .     A
C505   C534    1.401   .     S
C506   C517    1.405   .     A
C506   O578    1.384   .     S
C506   C508    1.407   .     A
C507   C537    1.431   .     S
C507   C538    1.406   .     A
C507   C509    1.404   .     A
C508   C510    1.406   .     A
C508   C536    1.430   .     S
C509   C520    1.544   .     S
C509   C511    1.408   .     A
C510   C523    1.543   .     S
C510   C512    1.407   .     A
C511   C513    1.417   .     A
C511   C518    1.396   .     A
C512   C519    1.399   .     A
C512   C514    1.418   .     A
C513   C515    1.426   .     A
C513   C1270   1.412   1_554 S
C514   C517    1.430   .     A
C514   C1269   1.412   .     S
C515   C538    1.406   .     A
C515   C533    1.427   .     A
C516   O581    1.289   .     A
C516   C535    1.401   .     S
C516   O579    1.278   .     A
C517   C527    1.426   .     A
C518   H539    1.068   .     S
C518   C1283   1.386   1_554 S
C519   H550    1.067   .     S
C519   C1289   1.389   .     S
C520   C521    1.537   .     S
C520   H544    1.101   .     S
C520   H545    1.106   .     S
C521   H543    1.112   .     S
C521   H542    1.104   .     S
C521   C18     1.526   1_565 S
C522   H574    1.110   .     S
C522   H541    1.111   .     S
C522   H540    1.109   .     S
C523   C524    1.547   .     S
C523   H552    1.106   .     S
C523   H553    1.112   .     S
C524   H549    1.110   .     S
C524   H551    1.112   .     S
C524   C525    1.524   .     S
C525   H547    1.110   .     S
C525   H546    1.106   .     S
C525   H716    1.111   1_455 S
C526   H560    1.111   .     S
C526   H559    1.111   .     S
C526   C527    1.538   .     S
C526   C24     1.550   1_565 S
C527   C1274   1.386   .     S
C528   C529    1.523   .     S
C528   H1313   1.108   .     S
C528   H1314   1.108   .     S
C529   H554    1.104   .     S
C529   H555    1.110   .     S
C529   H556    1.109   .     S
C530   H568    1.111   .     S
C530   H567    1.106   .     S
C530   C533    1.536   .     S
C531   C532    1.525   .     S
C531   C26     1.545   1_565 S
C531   H1321   1.110   1_554 S
C531   H1322   1.110   1_554 S
C532   H564    1.111   .     S
C532   H563    1.105   .     S
C532   H562    1.108   .     S
C533   C1275   1.389   1_554 S
C534   C31     1.336   1_565 S
C534   H57     1.088   1_565 S
C536   O584    1.291   .     A
C536   O582    1.286   .     A
C537   O583    1.288   .     A
C537   O585    1.289   .     A
C538   O586    1.383   .     S
H548   C609    1.111   .     S
H557   C1284   1.108   1_554 S
H558   C1284   1.108   1_554 S
H565   C1287   1.110   .     S
H566   C1287   1.110   .     S
H569   C31     1.087   1_565 S
H570   N743    1.029   1_455 S
H571   N660    1.029   .     S
H572   O586    0.990   .     S
H573   O578    0.990   .     S
N575   Zn588   2.023   .     S
N575   H654    1.029   .     S
N575   N660    1.262   .     S
N576   Zn587   2.023   .     S
N576   H739    1.029   1_455 S
N576   N743    1.262   1_455 S
O577   Zn587   1.952   .     S
O579   Zn588   1.952   .     S
O580   Zn588   1.975   .     S
O581   Zn587   1.975   .     S
O582   Zn587   2.007   .     S
O583   Zn588   2.007   .     S
O584   Zn588   2.035   .     S
O585   Zn587   2.035   .     S
C589   O664    1.289   .     A
C589   O661    1.278   .     A
C589   C618    1.401   .     S
C590   C601    1.405   .     A
C590   O662    1.384   .     S
C590   C592    1.407   .     A
C591   C621    1.431   .     S
C591   C622    1.406   .     A
C591   C593    1.404   .     A
C592   C594    1.406   .     A
C592   C620    1.430   .     S
C593   C604    1.544   .     S
C593   C595    1.408   .     A
C594   C607    1.543   .     S
C594   C596    1.407   .     A
C595   C597    1.417   .     A
C595   C602    1.396   .     A
C596   C603    1.399   .     A
C596   C598    1.418   .     A
C597   C599    1.426   .     A
C597   C1354   1.412   1_554 S
C598   C601    1.430   .     A
C598   C1353   1.412   .     S
C599   C622    1.406   .     A
C599   C617    1.427   .     A
C600   O665    1.289   .     A
C600   C619    1.401   .     S
C600   O663    1.278   .     A
C601   C611    1.426   .     A
C602   H623    1.068   .     S
C602   C1367   1.386   1_554 S
C603   H634    1.067   .     S
C603   C1373   1.389   .     S
C604   C605    1.537   .     S
C604   H628    1.101   .     S
C604   H629    1.106   .     S
C605   H627    1.112   .     S
C605   H626    1.104   .     S
C605   C102    1.526   1_565 S
C606   H658    1.110   .     S
C606   H625    1.111   .     S
C606   H624    1.109   .     S
C607   C608    1.547   .     S
C607   H636    1.106   .     S
C607   H637    1.112   .     S
C608   H633    1.110   .     S
C608   H635    1.112   .     S
C608   C609    1.524   .     S
C609   H631    1.110   .     S
C609   H630    1.106   .     S
C610   H644    1.111   .     S
C610   H643    1.111   .     S
C610   C611    1.538   .     S
C610   C108    1.550   1_565 S
C611   C1358   1.386   .     S
C612   C613    1.523   .     S
C612   H1397   1.108   .     S
C612   H1398   1.108   .     S
C613   H638    1.104   .     S
C613   H639    1.110   .     S
C613   H640    1.109   .     S
C614   H652    1.111   .     S
C614   H651    1.106   .     S
C614   C617    1.536   .     S
C615   C616    1.525   .     S
C615   C110    1.545   1_565 S
C615   H1405   1.110   1_554 S
C615   H1406   1.110   1_554 S
C616   H648    1.111   .     S
C616   H647    1.105   .     S
C616   H646    1.108   .     S
C617   C1359   1.389   1_554 S
C618   C115    1.336   1_565 S
C618   H141    1.088   1_565 S
C620   O668    1.291   .     A
C620   O666    1.286   .     A
C621   O667    1.288   .     A
C621   O669    1.289   .     A
C622   O670    1.383   .     S
H632   C693    1.111   .     S
H641   C1368   1.108   1_554 S
H642   C1368   1.108   1_554 S
H649   C1371   1.110   .     S
H650   C1371   1.110   .     S
H653   C115    1.087   1_565 S
H655   N744    1.029   .     S
H656   O670    0.990   .     S
H657   O662    0.990   .     S
N659   Zn672   2.023   .     S
N659   H738    1.029   .     S
N659   N744    1.262   .     S
N660   Zn671   2.023   .     S
O661   Zn671   1.952   .     S
O663   Zn672   1.952   .     S
O664   Zn672   1.975   .     S
O665   Zn671   1.975   .     S
O666   Zn671   2.007   .     S
O667   Zn672   2.007   .     S
O668   Zn672   2.035   .     S
O669   Zn671   2.035   .     S
C673   O748    1.289   .     A
C673   O745    1.278   .     A
C673   C702    1.401   .     S
C674   C685    1.405   .     A
C674   O746    1.384   .     S
C674   C676    1.407   .     A
C675   C705    1.431   .     S
C675   C706    1.406   .     A
C675   C677    1.404   .     A
C676   C678    1.406   .     A
C676   C704    1.430   .     S
C677   C688    1.544   .     S
C677   C679    1.408   .     A
C678   C691    1.543   .     S
C678   C680    1.407   .     A
C679   C681    1.417   .     A
C679   C686    1.396   .     A
C680   C687    1.399   .     A
C680   C682    1.418   .     A
C681   C683    1.426   .     A
C681   C1438   1.412   1_554 S
C682   C685    1.430   .     A
C682   C1437   1.412   .     S
C683   C706    1.406   .     A
C683   C701    1.427   .     A
C684   O749    1.289   .     A
C684   C703    1.401   .     S
C684   O747    1.278   .     A
C685   C695    1.426   .     A
C686   H707    1.068   .     S
C686   C1451   1.386   1_554 S
C687   H718    1.067   .     S
C687   C1457   1.389   .     S
C688   C689    1.537   .     S
C688   H712    1.101   .     S
C688   H713    1.106   .     S
C689   H711    1.112   .     S
C689   H710    1.104   .     S
C689   C186    1.526   1_565 S
C690   H742    1.110   .     S
C690   H709    1.111   .     S
C690   H708    1.109   .     S
C691   C692    1.547   .     S
C691   H720    1.106   .     S
C691   H721    1.112   .     S
C692   H717    1.110   .     S
C692   H719    1.112   .     S
C692   C693    1.524   .     S
C693   H715    1.110   .     S
C693   H714    1.106   .     S
C694   H728    1.111   .     S
C694   H727    1.111   .     S
C694   C695    1.538   .     S
C694   C192    1.550   1_565 S
C695   C1442   1.386   .     S
C696   C697    1.523   .     S
C696   H1481   1.108   .     S
C696   H1482   1.108   .     S
C697   H722    1.104   .     S
C697   H723    1.110   .     S
C697   H724    1.109   .     S
C698   H736    1.111   .     S
C698   H735    1.106   .     S
C698   C701    1.536   .     S
C699   C700    1.525   .     S
C699   C194    1.545   1_565 S
C699   H1489   1.110   1_554 S
C699   H1490   1.110   1_554 S
C700   H732    1.111   .     S
C700   H731    1.105   .     S
C700   H730    1.108   .     S
C701   C1443   1.389   1_554 S
C702   C199    1.336   1_565 S
C702   H225    1.088   1_565 S
C704   O752    1.291   .     A
C704   O750    1.286   .     A
C705   O751    1.288   .     A
C705   O753    1.289   .     A
C706   O754    1.383   .     S
H716   C525    1.111   1_655 S
H725   C1452   1.108   1_554 S
H726   C1452   1.108   1_554 S
H733   C1455   1.110   .     S
H734   C1455   1.110   .     S
H737   C199    1.087   1_565 S
H739   N576    1.029   1_655 S
H740   O754    0.990   .     S
H741   O746    0.990   .     S
N743   Zn756   2.023   .     S
N743   H570    1.029   1_655 S
N743   N576    1.262   1_655 S
N744   Zn755   2.023   .     S
O745   Zn755   1.952   .     S
O747   Zn756   1.952   .     S
O748   Zn756   1.975   .     S
O749   Zn755   1.975   .     S
O750   Zn755   2.007   .     S
O751   Zn756   2.007   .     S
O752   Zn756   2.035   .     S
O753   Zn755   2.035   .     S
C757   O832    1.289   .     A
C757   O829    1.278   .     A
C757   C786    1.401   .     S
C758   C769    1.405   .     A
C758   O830    1.384   .     S
C758   C760    1.407   .     A
C759   C789    1.431   .     S
C759   C790    1.406   .     A
C759   C761    1.404   .     A
C760   C762    1.406   .     A
C760   C788    1.430   .     S
C761   C772    1.544   .     S
C761   C763    1.408   .     A
C762   C775    1.543   .     S
C762   C764    1.407   .     A
C763   C765    1.417   .     A
C763   C770    1.396   .     A
C764   C771    1.399   .     A
C764   C766    1.418   .     A
C765   C767    1.426   .     A
C766   C769    1.430   .     A
C766   C9      1.412   1_556 S
C767   C790    1.406   .     A
C767   C785    1.427   .     A
C768   O833    1.289   .     A
C768   C787    1.401   .     S
C768   O831    1.278   .     A
C769   C779    1.426   .     A
C770   H791    1.068   .     S
C771   H802    1.067   .     S
C771   C29     1.389   1_556 S
C772   C773    1.537   .     S
C772   H796    1.101   .     S
C772   H797    1.106   .     S
C773   H795    1.112   .     S
C773   H794    1.104   .     S
C773   C1026   1.526   .     S
C774   H826    1.110   .     S
C774   H793    1.111   .     S
C774   H792    1.109   .     S
C774   C1277   1.526   1_545 S
C775   C776    1.547   .     S
C775   H804    1.106   .     S
C775   H805    1.112   .     S
C776   H801    1.110   .     S
C776   H803    1.112   .     S
C776   C777    1.524   .     S
C777   H799    1.110   .     S
C777   H798    1.106   .     S
C777   H968    1.111   1_455 S
C778   H812    1.111   .     S
C778   H811    1.111   .     S
C778   C779    1.538   .     S
C778   C1032   1.550   .     S
C779   C14     1.386   1_556 S
C780   C781    1.523   .     S
C780   C1282   1.550   1_545 S
C780   H53     1.108   1_556 S
C780   H54     1.108   1_556 S
C781   H806    1.104   .     S
C781   H807    1.110   .     S
C781   H808    1.109   .     S
C782   H820    1.111   .     S
C782   H819    1.106   .     S
C782   C785    1.536   .     S
C782   C1287   1.545   1_545 S
C783   C784    1.525   .     S
C783   C1034   1.545   .     S
C784   H816    1.111   .     S
C784   H815    1.105   .     S
C784   H814    1.108   .     S
C786   C1039   1.336   .     S
C786   H1065   1.088   .     S
C787   C1290   1.336   1_545 S
C787   H1325   1.087   1_545 S
C788   O836    1.291   .     A
C788   O834    1.286   .     A
C789   O835    1.288   .     A
C789   O837    1.289   .     A
C790   O838    1.383   .     S
H800   C861    1.111   .     S
H813   C1290   1.088   1_545 S
H817   C27     1.110   1_556 S
H818   C27     1.110   1_556 S
H821   C1039   1.087   .     S
H822   N995    1.029   1_455 S
H823   N912    1.029   .     S
H824   O838    0.990   .     S
H825   O830    0.990   .     S
N827   Zn840   2.023   .     S
N827   H906    1.029   .     S
N827   N912    1.262   .     S
N828   Zn839   2.023   .     S
N828   H991    1.029   1_455 S
N828   N995    1.262   1_455 S
O829   Zn839   1.952   .     S
O831   Zn840   1.952   .     S
O832   Zn840   1.975   .     S
O833   Zn839   1.975   .     S
O834   Zn839   2.007   .     S
O835   Zn840   2.007   .     S
O836   Zn840   2.035   .     S
O837   Zn839   2.035   .     S
C841   O916    1.289   .     A
C841   O913    1.278   .     A
C841   C870    1.401   .     S
C842   C853    1.405   .     A
C842   O914    1.384   .     S
C842   C844    1.407   .     A
C843   C873    1.431   .     S
C843   C874    1.406   .     A
C843   C845    1.404   .     A
C844   C846    1.406   .     A
C844   C872    1.430   .     S
C845   C856    1.544   .     S
C845   C847    1.408   .     A
C846   C859    1.543   .     S
C846   C848    1.407   .     A
C847   C849    1.417   .     A
C847   C854    1.396   .     A
C848   C855    1.399   .     A
C848   C850    1.418   .     A
C849   C851    1.426   .     A
C850   C853    1.430   .     A
C850   C93     1.412   1_556 S
C851   C874    1.406   .     A
C851   C869    1.427   .     A
C852   O917    1.289   .     A
C852   C871    1.401   .     S
C852   O915    1.278   .     A
C853   C863    1.426   .     A
C854   H875    1.068   .     S
C855   H886    1.067   .     S
C855   C113    1.389   1_556 S
C856   C857    1.537   .     S
C856   H880    1.101   .     S
C856   H881    1.106   .     S
C857   H879    1.112   .     S
C857   H878    1.104   .     S
C857   C1110   1.526   .     S
C858   H910    1.110   .     S
C858   H877    1.111   .     S
C858   H876    1.109   .     S
C858   C1361   1.526   1_545 S
C859   C860    1.547   .     S
C859   H888    1.106   .     S
C859   H889    1.112   .     S
C860   H885    1.110   .     S
C860   H887    1.112   .     S
C860   C861    1.524   .     S
C861   H883    1.110   .     S
C861   H882    1.106   .     S
C862   H896    1.111   .     S
C862   H895    1.111   .     S
C862   C863    1.538   .     S
C862   C1116   1.550   .     S
C863   C98     1.386   1_556 S
C864   C865    1.523   .     S
C864   C1366   1.550   1_545 S
C864   H137    1.108   1_556 S
C864   H138    1.108   1_556 S
C865   H890    1.104   .     S
C865   H891    1.110   .     S
C865   H892    1.109   .     S
C866   H904    1.111   .     S
C866   H903    1.106   .     S
C866   C869    1.536   .     S
C866   C1371   1.545   1_545 S
C867   C868    1.525   .     S
C867   C1118   1.545   .     S
C868   H900    1.111   .     S
C868   H899    1.105   .     S
C868   H898    1.108   .     S
C870   C1123   1.336   .     S
C870   H1149   1.088   .     S
C871   C1374   1.336   1_545 S
C871   H1409   1.087   1_545 S
C872   O920    1.291   .     A
C872   O918    1.286   .     A
C873   O919    1.288   .     A
C873   O921    1.289   .     A
C874   O922    1.383   .     S
H884   C945    1.111   .     S
H897   C1374   1.088   1_545 S
H901   C111    1.110   1_556 S
H902   C111    1.110   1_556 S
H905   C1123   1.087   .     S
H907   N996    1.029   .     S
H908   O922    0.990   .     S
H909   O914    0.990   .     S
N911   Zn924   2.023   .     S
N911   H990    1.029   .     S
N911   N996    1.262   .     S
N912   Zn923   2.023   .     S
O913   Zn923   1.952   .     S
O915   Zn924   1.952   .     S
O916   Zn924   1.975   .     S
O917   Zn923   1.975   .     S
O918   Zn923   2.007   .     S
O919   Zn924   2.007   .     S
O920   Zn924   2.035   .     S
O921   Zn923   2.035   .     S
C925   O1000   1.289   .     A
C925   O997    1.278   .     A
C925   C954    1.401   .     S
C926   C937    1.405   .     A
C926   O998    1.384   .     S
C926   C928    1.407   .     A
C927   C957    1.431   .     S
C927   C958    1.406   .     A
C927   C929    1.404   .     A
C928   C930    1.406   .     A
C928   C956    1.430   .     S
C929   C940    1.544   .     S
C929   C931    1.408   .     A
C930   C943    1.543   .     S
C930   C932    1.407   .     A
C931   C933    1.417   .     A
C931   C938    1.396   .     A
C932   C939    1.399   .     A
C932   C934    1.418   .     A
C933   C935    1.426   .     A
C934   C937    1.430   .     A
C934   C177    1.412   1_556 S
C935   C958    1.406   .     A
C935   C953    1.427   .     A
C936   O1001   1.289   .     A
C936   C955    1.401   .     S
C936   O999    1.278   .     A
C937   C947    1.426   .     A
C938   H959    1.068   .     S
C939   H970    1.067   .     S
C939   C197    1.389   1_556 S
C940   C941    1.537   .     S
C940   H964    1.101   .     S
C940   H965    1.106   .     S
C941   H963    1.112   .     S
C941   H962    1.104   .     S
C941   C1194   1.526   .     S
C942   H994    1.110   .     S
C942   H961    1.111   .     S
C942   H960    1.109   .     S
C942   C1445   1.526   1_545 S
C943   C944    1.547   .     S
C943   H972    1.106   .     S
C943   H973    1.112   .     S
C944   H969    1.110   .     S
C944   H971    1.112   .     S
C944   C945    1.524   .     S
C945   H967    1.110   .     S
C945   H966    1.106   .     S
C946   H980    1.111   .     S
C946   H979    1.111   .     S
C946   C947    1.538   .     S
C946   C1200   1.550   .     S
C947   C182    1.386   1_556 S
C948   C949    1.523   .     S
C948   C1450   1.550   1_545 S
C948   H221    1.108   1_556 S
C948   H222    1.108   1_556 S
C949   H974    1.104   .     S
C949   H975    1.110   .     S
C949   H976    1.109   .     S
C950   H988    1.111   .     S
C950   H987    1.106   .     S
C950   C953    1.536   .     S
C950   C1455   1.545   1_545 S
C951   C952    1.525   .     S
C951   C1202   1.545   .     S
C952   H984    1.111   .     S
C952   H983    1.105   .     S
C952   H982    1.108   .     S
C954   C1207   1.336   .     S
C954   H1233   1.088   .     S
C955   C1458   1.336   1_545 S
C955   H1493   1.087   1_545 S
C956   O1004   1.291   .     A
C956   O1002   1.286   .     A
C957   O1003   1.288   .     A
C957   O1005   1.289   .     A
C958   O1006   1.383   .     S
H968   C777    1.111   1_655 S
H981   C1458   1.088   1_545 S
H985   C195    1.110   1_556 S
H986   C195    1.110   1_556 S
H989   C1207   1.087   .     S
H991   N828    1.029   1_655 S
H992   O1006   0.990   .     S
H993   O998    0.990   .     S
N995   Zn1008  2.023   .     S
N995   H822    1.029   1_655 S
N995   N828    1.262   1_655 S
N996   Zn1007  2.023   .     S
O997   Zn1007  1.952   .     S
O999   Zn1008  1.952   .     S
O1000  Zn1008  1.975   .     S
O1001  Zn1007  1.975   .     S
O1002  Zn1007  2.007   .     S
O1003  Zn1008  2.007   .     S
O1004  Zn1008  2.035   .     S
O1005  Zn1007  2.035   .     S
C1009  O1084   1.289   .     A
C1009  O1081   1.278   .     A
C1009  C1038   1.401   .     S
C1010  C1021   1.405   .     A
C1010  O1082   1.384   .     S
C1010  C1012   1.407   .     A
C1011  C1041   1.431   .     S
C1011  C1042   1.406   .     A
C1011  C1013   1.404   .     A
C1012  C1014   1.406   .     A
C1012  C1040   1.430   .     S
C1013  C1024   1.544   .     S
C1013  C1015   1.408   .     A
C1014  C1027   1.543   .     S
C1014  C1016   1.407   .     A
C1015  C1017   1.417   .     A
C1015  C1022   1.396   .     A
C1016  C1023   1.399   .     A
C1016  C1018   1.418   .     A
C1017  C1019   1.426   .     A
C1018  C1021   1.430   .     A
C1018  C261    1.412   1_556 S
C1019  C1042   1.406   .     A
C1019  C1037   1.427   .     A
C1020  O1085   1.289   .     A
C1020  C1039   1.401   .     S
C1020  O1083   1.278   .     A
C1021  C1031   1.426   .     A
C1022  H1043   1.068   .     S
C1023  H1054   1.067   .     S
C1023  C281    1.389   1_556 S
C1024  C1025   1.537   .     S
C1024  H1048   1.101   .     S
C1024  H1049   1.106   .     S
C1025  H1047   1.112   .     S
C1025  H1046   1.104   .     S
C1025  C1278   1.526   .     S
C1026  H1078   1.110   .     S
C1026  H1045   1.111   .     S
C1026  H1044   1.109   .     S
C1027  C1028   1.547   .     S
C1027  H1056   1.106   .     S
C1027  H1057   1.112   .     S
C1028  H1053   1.110   .     S
C1028  H1055   1.112   .     S
C1028  C1029   1.524   .     S
C1029  H1051   1.110   .     S
C1029  H1050   1.106   .     S
C1029  H1220   1.111   1_455 S
C1030  H1064   1.111   .     S
C1030  H1063   1.111   .     S
C1030  C1031   1.538   .     S
C1030  C1284   1.550   .     S
C1031  C266    1.386   1_556 S
C1032  C1033   1.523   .     S
C1032  H305    1.108   1_556 S
C1032  H306    1.108   1_556 S
C1033  H1058   1.104   .     S
C1033  H1059   1.110   .     S
C1033  H1060   1.109   .     S
C1034  H1072   1.111   .     S
C1034  H1071   1.106   .     S
C1034  C1037   1.536   .     S
C1035  C1036   1.525   .     S
C1035  C1286   1.545   .     S
C1036  H1068   1.111   .     S
C1036  H1067   1.105   .     S
C1036  H1066   1.108   .     S
C1038  C1291   1.336   .     S
C1038  H1317   1.088   .     S
C1040  O1088   1.291   .     A
C1040  O1086   1.286   .     A
C1041  O1087   1.288   .     A
C1041  O1089   1.289   .     A
C1042  O1090   1.383   .     S
H1052  C1113   1.111   .     S
H1069  C279    1.110   1_556 S
H1070  C279    1.110   1_556 S
H1073  C1291   1.087   .     S
H1074  N1247   1.029   1_455 S
H1075  N1164   1.029   .     S
H1076  O1090   0.990   .     S
H1077  O1082   0.990   .     S
N1079  Zn1092  2.023   .     S
N1079  H1158   1.029   .     S
N1079  N1164   1.262   .     S
N1080  Zn1091  2.023   .     S
N1080  H1243   1.029   1_455 S
N1080  N1247   1.262   1_455 S
O1081  Zn1091  1.952   .     S
O1083  Zn1092  1.952   .     S
O1084  Zn1092  1.975   .     S
O1085  Zn1091  1.975   .     S
O1086  Zn1091  2.007   .     S
O1087  Zn1092  2.007   .     S
O1088  Zn1092  2.035   .     S
O1089  Zn1091  2.035   .     S
C1093  O1168   1.289   .     A
C1093  O1165   1.278   .     A
C1093  C1122   1.401   .     S
C1094  C1105   1.405   .     A
C1094  O1166   1.384   .     S
C1094  C1096   1.407   .     A
C1095  C1125   1.431   .     S
C1095  C1126   1.406   .     A
C1095  C1097   1.404   .     A
C1096  C1098   1.406   .     A
C1096  C1124   1.430   .     S
C1097  C1108   1.544   .     S
C1097  C1099   1.408   .     A
C1098  C1111   1.543   .     S
C1098  C1100   1.407   .     A
C1099  C1101   1.417   .     A
C1099  C1106   1.396   .     A
C1100  C1107   1.399   .     A
C1100  C1102   1.418   .     A
C1101  C1103   1.426   .     A
C1102  C1105   1.430   .     A
C1102  C345    1.412   1_556 S
C1103  C1126   1.406   .     A
C1103  C1121   1.427   .     A
C1104  O1169   1.289   .     A
C1104  C1123   1.401   .     S
C1104  O1167   1.278   .     A
C1105  C1115   1.426   .     A
C1106  H1127   1.068   .     S
C1107  H1138   1.067   .     S
C1107  C365    1.389   1_556 S
C1108  C1109   1.537   .     S
C1108  H1132   1.101   .     S
C1108  H1133   1.106   .     S
C1109  H1131   1.112   .     S
C1109  H1130   1.104   .     S
C1109  C1362   1.526   .     S
C1110  H1162   1.110   .     S
C1110  H1129   1.111   .     S
C1110  H1128   1.109   .     S
C1111  C1112   1.547   .     S
C1111  H1140   1.106   .     S
C1111  H1141   1.112   .     S
C1112  H1137   1.110   .     S
C1112  H1139   1.112   .     S
C1112  C1113   1.524   .     S
C1113  H1135   1.110   .     S
C1113  H1134   1.106   .     S
C1114  H1148   1.111   .     S
C1114  H1147   1.111   .     S
C1114  C1115   1.538   .     S
C1114  C1368   1.550   .     S
C1115  C350    1.386   1_556 S
C1116  C1117   1.523   .     S
C1116  H389    1.108   1_556 S
C1116  H390    1.108   1_556 S
C1117  H1142   1.104   .     S
C1117  H1143   1.110   .     S
C1117  H1144   1.109   .     S
C1118  H1156   1.111   .     S
C1118  H1155   1.106   .     S
C1118  C1121   1.536   .     S
C1119  C1120   1.525   .     S
C1119  C1370   1.545   .     S
C1120  H1152   1.111   .     S
C1120  H1151   1.105   .     S
C1120  H1150   1.108   .     S
C1122  C1375   1.336   .     S
C1122  H1401   1.088   .     S
C1124  O1172   1.291   .     A
C1124  O1170   1.286   .     A
C1125  O1171   1.288   .     A
C1125  O1173   1.289   .     A
C1126  O1174   1.383   .     S
H1136  C1197   1.111   .     S
H1153  C363    1.110   1_556 S
H1154  C363    1.110   1_556 S
H1157  C1375   1.087   .     S
H1159  N1248   1.029   .     S
H1160  O1174   0.990   .     S
H1161  O1166   0.990   .     S
N1163  Zn1176  2.023   .     S
N1163  H1242   1.029   .     S
N1163  N1248   1.262   .     S
N1164  Zn1175  2.023   .     S
O1165  Zn1175  1.952   .     S
O1167  Zn1176  1.952   .     S
O1168  Zn1176  1.975   .     S
O1169  Zn1175  1.975   .     S
O1170  Zn1175  2.007   .     S
O1171  Zn1176  2.007   .     S
O1172  Zn1176  2.035   .     S
O1173  Zn1175  2.035   .     S
C1177  O1252   1.289   .     A
C1177  O1249   1.278   .     A
C1177  C1206   1.401   .     S
C1178  C1189   1.405   .     A
C1178  O1250   1.384   .     S
C1178  C1180   1.407   .     A
C1179  C1209   1.431   .     S
C1179  C1210   1.406   .     A
C1179  C1181   1.404   .     A
C1180  C1182   1.406   .     A
C1180  C1208   1.430   .     S
C1181  C1192   1.544   .     S
C1181  C1183   1.408   .     A
C1182  C1195   1.543   .     S
C1182  C1184   1.407   .     A
C1183  C1185   1.417   .     A
C1183  C1190   1.396   .     A
C1184  C1191   1.399   .     A
C1184  C1186   1.418   .     A
C1185  C1187   1.426   .     A
C1186  C1189   1.430   .     A
C1186  C429    1.412   1_556 S
C1187  C1210   1.406   .     A
C1187  C1205   1.427   .     A
C1188  O1253   1.289   .     A
C1188  C1207   1.401   .     S
C1188  O1251   1.278   .     A
C1189  C1199   1.426   .     A
C1190  H1211   1.068   .     S
C1191  H1222   1.067   .     S
C1191  C449    1.389   1_556 S
C1192  C1193   1.537   .     S
C1192  H1216   1.101   .     S
C1192  H1217   1.106   .     S
C1193  H1215   1.112   .     S
C1193  H1214   1.104   .     S
C1193  C1446   1.526   .     S
C1194  H1246   1.110   .     S
C1194  H1213   1.111   .     S
C1194  H1212   1.109   .     S
C1195  C1196   1.547   .     S
C1195  H1224   1.106   .     S
C1195  H1225   1.112   .     S
C1196  H1221   1.110   .     S
C1196  H1223   1.112   .     S
C1196  C1197   1.524   .     S
C1197  H1219   1.110   .     S
C1197  H1218   1.106   .     S
C1198  H1232   1.111   .     S
C1198  H1231   1.111   .     S
C1198  C1199   1.538   .     S
C1198  C1452   1.550   .     S
C1199  C434    1.386   1_556 S
C1200  C1201   1.523   .     S
C1200  H473    1.108   1_556 S
C1200  H474    1.108   1_556 S
C1201  H1226   1.104   .     S
C1201  H1227   1.110   .     S
C1201  H1228   1.109   .     S
C1202  H1240   1.111   .     S
C1202  H1239   1.106   .     S
C1202  C1205   1.536   .     S
C1203  C1204   1.525   .     S
C1203  C1454   1.545   .     S
C1204  H1236   1.111   .     S
C1204  H1235   1.105   .     S
C1204  H1234   1.108   .     S
C1206  C1459   1.336   .     S
C1206  H1485   1.088   .     S
C1208  O1256   1.291   .     A
C1208  O1254   1.286   .     A
C1209  O1255   1.288   .     A
C1209  O1257   1.289   .     A
C1210  O1258   1.383   .     S
H1220  C1029   1.111   1_655 S
H1237  C447    1.110   1_556 S
H1238  C447    1.110   1_556 S
H1241  C1459   1.087   .     S
H1243  N1080   1.029   1_655 S
H1244  O1258   0.990   .     S
H1245  O1250   0.990   .     S
N1247  Zn1260  2.023   .     S
N1247  H1074   1.029   1_655 S
N1247  N1080   1.262   1_655 S
N1248  Zn1259  2.023   .     S
O1249  Zn1259  1.952   .     S
O1251  Zn1260  1.952   .     S
O1252  Zn1260  1.975   .     S
O1253  Zn1259  1.975   .     S
O1254  Zn1259  2.007   .     S
O1255  Zn1260  2.007   .     S
O1256  Zn1260  2.035   .     S
O1257  Zn1259  2.035   .     S
C1261  O1336   1.289   .     A
C1261  O1333   1.278   .     A
C1261  C1290   1.401   .     S
C1262  C1273   1.405   .     A
C1262  O1334   1.384   .     S
C1262  C1264   1.407   .     A
C1263  C1293   1.431   .     S
C1263  C1294   1.406   .     A
C1263  C1265   1.404   .     A
C1264  C1266   1.406   .     A
C1264  C1292   1.430   .     S
C1265  C1276   1.544   .     S
C1265  C1267   1.408   .     A
C1266  C1279   1.543   .     S
C1266  C1268   1.407   .     A
C1267  C1269   1.417   .     A
C1267  C1274   1.396   .     A
C1268  C1275   1.399   .     A
C1268  C1270   1.418   .     A
C1269  C1271   1.426   .     A
C1270  C1273   1.430   .     A
C1270  C513    1.412   1_556 S
C1271  C1294   1.406   .     A
C1271  C1289   1.427   .     A
C1272  O1337   1.289   .     A
C1272  C1291   1.401   .     S
C1272  O1335   1.278   .     A
C1273  C1283   1.426   .     A
C1274  H1295   1.068   .     S
C1275  H1306   1.067   .     S
C1275  C533    1.389   1_556 S
C1276  C1277   1.537   .     S
C1276  H1300   1.101   .     S
C1276  H1301   1.106   .     S
C1277  H1299   1.112   .     S
C1277  H1298   1.104   .     S
C1277  C774    1.526   1_565 S
C1278  H1330   1.110   .     S
C1278  H1297   1.111   .     S
C1278  H1296   1.109   .     S
C1279  C1280   1.547   .     S
C1279  H1308   1.106   .     S
C1279  H1309   1.112   .     S
C1280  H1305   1.110   .     S
C1280  H1307   1.112   .     S
C1280  C1281   1.524   .     S
C1281  H1303   1.110   .     S
C1281  H1302   1.106   .     S
C1281  H1472   1.111   1_455 S
C1282  H1316   1.111   .     S
C1282  H1315   1.111   .     S
C1282  C1283   1.538   .     S
C1282  C780    1.550   1_565 S
C1283  C518    1.386   1_556 S
C1284  C1285   1.523   .     S
C1284  H557    1.108   1_556 S
C1284  H558    1.108   1_556 S
C1285  H1310   1.104   .     S
C1285  H1311   1.110   .     S
C1285  H1312   1.109   .     S
C1286  H1324   1.111   .     S
C1286  H1323   1.106   .     S
C1286  C1289   1.536   .     S
C1287  C1288   1.525   .     S
C1287  C782    1.545   1_565 S
C1288  H1320   1.111   .     S
C1288  H1319   1.105   .     S
C1288  H1318   1.108   .     S
C1290  C787    1.336   1_565 S
C1290  H813    1.088   1_565 S
C1292  O1340   1.291   .     A
C1292  O1338   1.286   .     A
C1293  O1339   1.288   .     A
C1293  O1341   1.289   .     A
C1294  O1342   1.383   .     S
H1304  C1365   1.111   .     S
H1321  C531    1.110   1_556 S
H1322  C531    1.110   1_556 S
H1325  C787    1.087   1_565 S
H1326  N1499   1.029   1_455 S
H1327  N1416   1.029   .     S
H1328  O1342   0.990   .     S
H1329  O1334   0.990   .     S
N1331  Zn1344  2.023   .     S
N1331  H1410   1.029   .     S
N1331  N1416   1.262   .     S
N1332  Zn1343  2.023   .     S
N1332  H1495   1.029   1_455 S
N1332  N1499   1.262   1_455 S
O1333  Zn1343  1.952   .     S
O1335  Zn1344  1.952   .     S
O1336  Zn1344  1.975   .     S
O1337  Zn1343  1.975   .     S
O1338  Zn1343  2.007   .     S
O1339  Zn1344  2.007   .     S
O1340  Zn1344  2.035   .     S
O1341  Zn1343  2.035   .     S
C1345  O1420   1.289   .     A
C1345  O1417   1.278   .     A
C1345  C1374   1.401   .     S
C1346  C1357   1.405   .     A
C1346  O1418   1.384   .     S
C1346  C1348   1.407   .     A
C1347  C1377   1.431   .     S
C1347  C1378   1.406   .     A
C1347  C1349   1.404   .     A
C1348  C1350   1.406   .     A
C1348  C1376   1.430   .     S
C1349  C1360   1.544   .     S
C1349  C1351   1.408   .     A
C1350  C1363   1.543   .     S
C1350  C1352   1.407   .     A
C1351  C1353   1.417   .     A
C1351  C1358   1.396   .     A
C1352  C1359   1.399   .     A
C1352  C1354   1.418   .     A
C1353  C1355   1.426   .     A
C1354  C1357   1.430   .     A
C1354  C597    1.412   1_556 S
C1355  C1378   1.406   .     A
C1355  C1373   1.427   .     A
C1356  O1421   1.289   .     A
C1356  C1375   1.401   .     S
C1356  O1419   1.278   .     A
C1357  C1367   1.426   .     A
C1358  H1379   1.068   .     S
C1359  H1390   1.067   .     S
C1359  C617    1.389   1_556 S
C1360  C1361   1.537   .     S
C1360  H1384   1.101   .     S
C1360  H1385   1.106   .     S
C1361  H1383   1.112   .     S
C1361  H1382   1.104   .     S
C1361  C858    1.526   1_565 S
C1362  H1414   1.110   .     S
C1362  H1381   1.111   .     S
C1362  H1380   1.109   .     S
C1363  C1364   1.547   .     S
C1363  H1392   1.106   .     S
C1363  H1393   1.112   .     S
C1364  H1389   1.110   .     S
C1364  H1391   1.112   .     S
C1364  C1365   1.524   .     S
C1365  H1387   1.110   .     S
C1365  H1386   1.106   .     S
C1366  H1400   1.111   .     S
C1366  H1399   1.111   .     S
C1366  C1367   1.538   .     S
C1366  C864    1.550   1_565 S
C1367  C602    1.386   1_556 S
C1368  C1369   1.523   .     S
C1368  H641    1.108   1_556 S
C1368  H642    1.108   1_556 S
C1369  H1394   1.104   .     S
C1369  H1395   1.110   .     S
C1369  H1396   1.109   .     S
C1370  H1408   1.111   .     S
C1370  H1407   1.106   .     S
C1370  C1373   1.536   .     S
C1371  C1372   1.525   .     S
C1371  C866    1.545   1_565 S
C1372  H1404   1.111   .     S
C1372  H1403   1.105   .     S
C1372  H1402   1.108   .     S
C1374  C871    1.336   1_565 S
C1374  H897    1.088   1_565 S
C1376  O1424   1.291   .     A
C1376  O1422   1.286   .     A
C1377  O1423   1.288   .     A
C1377  O1425   1.289   .     A
C1378  O1426   1.383   .     S
H1388  C1449   1.111   .     S
H1405  C615    1.110   1_556 S
H1406  C615    1.110   1_556 S
H1409  C871    1.087   1_565 S
H1411  N1500   1.029   .     S
H1412  O1426   0.990   .     S
H1413  O1418   0.990   .     S
N1415  Zn1428  2.023   .     S
N1415  H1494   1.029   .     S
N1415  N1500   1.262   .     S
N1416  Zn1427  2.023   .     S
O1417  Zn1427  1.952   .     S
O1419  Zn1428  1.952   .     S
O1420  Zn1428  1.975   .     S
O1421  Zn1427  1.975   .     S
O1422  Zn1427  2.007   .     S
O1423  Zn1428  2.007   .     S
O1424  Zn1428  2.035   .     S
O1425  Zn1427  2.035   .     S
C1429  O1504   1.289   .     A
C1429  O1501   1.278   .     A
C1429  C1458   1.401   .     S
C1430  C1441   1.405   .     A
C1430  O1502   1.384   .     S
C1430  C1432   1.407   .     A
C1431  C1461   1.431   .     S
C1431  C1462   1.406   .     A
C1431  C1433   1.404   .     A
C1432  C1434   1.406   .     A
C1432  C1460   1.430   .     S
C1433  C1444   1.544   .     S
C1433  C1435   1.408   .     A
C1434  C1447   1.543   .     S
C1434  C1436   1.407   .     A
C1435  C1437   1.417   .     A
C1435  C1442   1.396   .     A
C1436  C1443   1.399   .     A
C1436  C1438   1.418   .     A
C1437  C1439   1.426   .     A
C1438  C1441   1.430   .     A
C1438  C681    1.412   1_556 S
C1439  C1462   1.406   .     A
C1439  C1457   1.427   .     A
C1440  O1505   1.289   .     A
C1440  C1459   1.401   .     S
C1440  O1503   1.278   .     A
C1441  C1451   1.426   .     A
C1442  H1463   1.068   .     S
C1443  H1474   1.067   .     S
C1443  C701    1.389   1_556 S
C1444  C1445   1.537   .     S
C1444  H1468   1.101   .     S
C1444  H1469   1.106   .     S
C1445  H1467   1.112   .     S
C1445  H1466   1.104   .     S
C1445  C942    1.526   1_565 S
C1446  H1498   1.110   .     S
C1446  H1465   1.111   .     S
C1446  H1464   1.109   .     S
C1447  C1448   1.547   .     S
C1447  H1476   1.106   .     S
C1447  H1477   1.112   .     S
C1448  H1473   1.110   .     S
C1448  H1475   1.112   .     S
C1448  C1449   1.524   .     S
C1449  H1471   1.110   .     S
C1449  H1470   1.106   .     S
C1450  H1484   1.111   .     S
C1450  H1483   1.111   .     S
C1450  C1451   1.538   .     S
C1450  C948    1.550   1_565 S
C1451  C686    1.386   1_556 S
C1452  C1453   1.523   .     S
C1452  H725    1.108   1_556 S
C1452  H726    1.108   1_556 S
C1453  H1478   1.104   .     S
C1453  H1479   1.110   .     S
C1453  H1480   1.109   .     S
C1454  H1492   1.111   .     S
C1454  H1491   1.106   .     S
C1454  C1457   1.536   .     S
C1455  C1456   1.525   .     S
C1455  C950    1.545   1_565 S
C1456  H1488   1.111   .     S
C1456  H1487   1.105   .     S
C1456  H1486   1.108   .     S
C1458  C955    1.336   1_565 S
C1458  H981    1.088   1_565 S
C1460  O1508   1.291   .     A
C1460  O1506   1.286   .     A
C1461  O1507   1.288   .     A
C1461  O1509   1.289   .     A
C1462  O1510   1.383   .     S
H1472  C1281   1.111   1_655 S
H1489  C699    1.110   1_556 S
H1490  C699    1.110   1_556 S
H1493  C955    1.087   1_565 S
H1495  N1332   1.029   1_655 S
H1496  O1510   0.990   .     S
H1497  O1502   0.990   .     S
N1499  Zn1512  2.023   .     S
N1499  H1326   1.029   1_655 S
N1499  N1332   1.262   1_655 S
N1500  Zn1511  2.023   .     S
O1501  Zn1511  1.952   .     S
O1503  Zn1512  1.952   .     S
O1504  Zn1512  1.975   .     S
O1505  Zn1511  1.975   .     S
O1506  Zn1511  2.007   .     S
O1507  Zn1512  2.007   .     S
O1508  Zn1512  2.035   .     S
O1509  Zn1511  2.035   .     S
