data_str_m3_o1_o10_pcu_sym.212
_audit_creation_date              2020-01-03
_audit_creation_method            'Materials Studio'
_symmetry_space_group_name_H-M    'P1'
_symmetry_Int_Tables_number       1
_symmetry_cell_setting            triclinic
loop_
_symmetry_equiv_pos_as_xyz
  x,y,z
_cell_length_a                    25.7451
_cell_length_b                    31.9292
_cell_length_c                    29.7706
_cell_angle_alpha                 89.4797
_cell_angle_beta                  98.2274
_cell_angle_gamma                 91.0320
loop_
_atom_site_label
_atom_site_type_symbol
_atom_site_fract_x
_atom_site_fract_y
_atom_site_fract_z
_atom_site_U_iso_or_equiv
_atom_site_adp_type
_atom_site_occupancy
C1     C     0.16786   0.08685   0.16691   0.00000  Uiso   1.00
C2     C     0.16548   0.24648   0.16642   0.00000  Uiso   1.00
C3     C     0.06717   0.16660   0.15482   0.00000  Uiso   1.00
C4     C     0.26616   0.16673   0.17851   0.00000  Uiso   1.00
C5     C     0.01215   0.16643   0.14845   0.00000  Uiso   1.00
C6     C     0.32118   0.16691   0.18488   0.00000  Uiso   1.00
C7     C     0.13276   0.02231   0.13464   0.00000  Uiso   1.00
C8     C     0.20057   0.31102   0.19870   0.00000  Uiso   1.00
C9     C     0.12936   0.31268   0.13440   0.00000  Uiso   1.00
C10    C     0.20397   0.02065   0.19893   0.00000  Uiso   1.00
C11    C     0.16439   0.29063   0.16642   0.00000  Uiso   1.00
C12    C     0.16894   0.04270   0.16692   0.00000  Uiso   1.00
C13    C     0.18966   0.19905   0.02571   0.00000  Uiso   1.00
C14    C     0.14367   0.13428   0.30762   0.00000  Uiso   1.00
C15    C     0.18892   0.19896   0.31133   0.00000  Uiso   1.00
C16    C     0.14441   0.13437   0.02200   0.00000  Uiso   1.00
H17    H     0.32513   0.16583   0.11382   0.00000  Uiso   1.00
H18    H     0.00820   0.16750   0.21952   0.00000  Uiso   1.00
H19    H     0.10574   0.03993   0.11057   0.00000  Uiso   1.00
H20    H     0.22758   0.29340   0.22276   0.00000  Uiso   1.00
H21    H     0.20711   0.22453   0.29480   0.00000  Uiso   1.00
H22    H     0.12622   0.10880   0.03853   0.00000  Uiso   1.00
N23    N     0.16665   0.16666   0.28573   0.00000  Uiso   1.00
N24    N     0.16668   0.16668   0.04760   0.00000  Uiso   1.00
O25    O     0.16666   0.10558   0.20487   0.00000  Uiso   1.00
O26    O     0.16667   0.22775   0.12846   0.00000  Uiso   1.00
O27    O     0.16666   0.10559   0.12843   0.00000  Uiso   1.00
O28    O     0.16667   0.22774   0.20490   0.00000  Uiso   1.00
O29    O     0.09058   0.16666   0.19595   0.00000  Uiso   1.00
O30    O     0.24275   0.16667   0.13739   0.00000  Uiso   1.00
O31    O     0.09058   0.16667   0.11950   0.00000  Uiso   1.00
O32    O     0.24275   0.16666   0.21383   0.00000  Uiso   1.00
Zn33   Zn    0.16667   0.16666   0.21771   0.00000  Uiso   1.00
Zn34   Zn    0.16667   0.16667   0.11563   0.00000  Uiso   1.00
O35    O     0.09088   0.29395   0.10357   0.00000  Uiso   1.00
H36    H     0.08338   0.26528   0.11409   0.00000  Uiso   1.00
O37    O     0.24244   0.03939   0.22977   0.00000  Uiso   1.00
H38    H     0.24996   0.06804   0.21923   0.00000  Uiso   1.00
C39    C     0.21634   0.23506   0.05011   0.00000  Uiso   1.00
H40    H     0.20873   0.26649   0.03688   0.00000  Uiso   1.00
O41    O     0.25000   0.23015   0.08279   0.00000  Uiso   1.00
C42    C     0.11699   0.09827   0.28322   0.00000  Uiso   1.00
H43    H     0.12461   0.06685   0.29646   0.00000  Uiso   1.00
O44    O     0.08333   0.10319   0.25054   0.00000  Uiso   1.00
C45    C     0.50119   0.08685   0.16691   0.00000  Uiso   1.00
C46    C     0.49881   0.24648   0.16642   0.00000  Uiso   1.00
C47    C     0.40051   0.16660   0.15482   0.00000  Uiso   1.00
C48    C     0.59949   0.16673   0.17851   0.00000  Uiso   1.00
C49    C     0.34549   0.16643   0.14845   0.00000  Uiso   1.00
C50    C     0.65451   0.16691   0.18488   0.00000  Uiso   1.00
C51    C     0.46609   0.02231   0.13464   0.00000  Uiso   1.00
C52    C     0.53390   0.31102   0.19870   0.00000  Uiso   1.00
C53    C     0.46269   0.31268   0.13440   0.00000  Uiso   1.00
C54    C     0.53730   0.02065   0.19893   0.00000  Uiso   1.00
C55    C     0.49772   0.29063   0.16642   0.00000  Uiso   1.00
C56    C     0.50227   0.04270   0.16692   0.00000  Uiso   1.00
C57    C     0.52300   0.19905   0.02571   0.00000  Uiso   1.00
C58    C     0.47700   0.13428   0.30762   0.00000  Uiso   1.00
C59    C     0.52226   0.19896   0.31133   0.00000  Uiso   1.00
C60    C     0.47774   0.13437   0.02200   0.00000  Uiso   1.00
H61    H     0.65846   0.16583   0.11382   0.00000  Uiso   1.00
H62    H     0.34154   0.16750   0.21952   0.00000  Uiso   1.00
H63    H     0.43908   0.03993   0.11057   0.00000  Uiso   1.00
H64    H     0.56092   0.29340   0.22276   0.00000  Uiso   1.00
H65    H     0.54044   0.22453   0.29480   0.00000  Uiso   1.00
H66    H     0.45955   0.10880   0.03853   0.00000  Uiso   1.00
N67    N     0.49999   0.16666   0.28573   0.00000  Uiso   1.00
N68    N     0.50001   0.16668   0.04760   0.00000  Uiso   1.00
O69    O     0.50000   0.10558   0.20487   0.00000  Uiso   1.00
O70    O     0.50000   0.22775   0.12846   0.00000  Uiso   1.00
O71    O     0.50000   0.10559   0.12843   0.00000  Uiso   1.00
O72    O     0.50000   0.22774   0.20490   0.00000  Uiso   1.00
O73    O     0.42392   0.16666   0.19595   0.00000  Uiso   1.00
O74    O     0.57608   0.16667   0.13739   0.00000  Uiso   1.00
O75    O     0.42392   0.16667   0.11950   0.00000  Uiso   1.00
O76    O     0.57608   0.16666   0.21383   0.00000  Uiso   1.00
Zn77   Zn    0.50000   0.16666   0.21771   0.00000  Uiso   1.00
Zn78   Zn    0.50000   0.16667   0.11563   0.00000  Uiso   1.00
O79    O     0.42421   0.29395   0.10357   0.00000  Uiso   1.00
H80    H     0.41672   0.26528   0.11409   0.00000  Uiso   1.00
O81    O     0.57577   0.03939   0.22977   0.00000  Uiso   1.00
H82    H     0.58329   0.06804   0.21923   0.00000  Uiso   1.00
C83    C     0.54967   0.23506   0.05011   0.00000  Uiso   1.00
H84    H     0.54206   0.26649   0.03688   0.00000  Uiso   1.00
O85    O     0.58333   0.23015   0.08279   0.00000  Uiso   1.00
C86    C     0.45033   0.09827   0.28322   0.00000  Uiso   1.00
H87    H     0.45794   0.06685   0.29646   0.00000  Uiso   1.00
O88    O     0.41667   0.10319   0.25054   0.00000  Uiso   1.00
C89    C     0.83452   0.08685   0.16691   0.00000  Uiso   1.00
C90    C     0.83214   0.24648   0.16642   0.00000  Uiso   1.00
C91    C     0.73384   0.16660   0.15482   0.00000  Uiso   1.00
C92    C     0.93283   0.16673   0.17851   0.00000  Uiso   1.00
C93    C     0.67882   0.16643   0.14845   0.00000  Uiso   1.00
C94    C     0.98785   0.16691   0.18488   0.00000  Uiso   1.00
C95    C     0.79942   0.02231   0.13464   0.00000  Uiso   1.00
C96    C     0.86724   0.31102   0.19870   0.00000  Uiso   1.00
C97    C     0.79602   0.31268   0.13440   0.00000  Uiso   1.00
C98    C     0.87063   0.02065   0.19893   0.00000  Uiso   1.00
C99    C     0.83106   0.29063   0.16642   0.00000  Uiso   1.00
C100   C     0.83560   0.04270   0.16692   0.00000  Uiso   1.00
C101   C     0.85633   0.19905   0.02571   0.00000  Uiso   1.00
C102   C     0.81034   0.13428   0.30762   0.00000  Uiso   1.00
C103   C     0.85559   0.19896   0.31133   0.00000  Uiso   1.00
C104   C     0.81108   0.13437   0.02200   0.00000  Uiso   1.00
H105   H     0.99180   0.16583   0.11382   0.00000  Uiso   1.00
H106   H     0.67487   0.16750   0.21952   0.00000  Uiso   1.00
H107   H     0.77241   0.03993   0.11057   0.00000  Uiso   1.00
H108   H     0.89425   0.29340   0.22276   0.00000  Uiso   1.00
H109   H     0.87378   0.22453   0.29480   0.00000  Uiso   1.00
H110   H     0.79289   0.10880   0.03853   0.00000  Uiso   1.00
N111   N     0.83332   0.16666   0.28573   0.00000  Uiso   1.00
N112   N     0.83335   0.16668   0.04760   0.00000  Uiso   1.00
O113   O     0.83333   0.10558   0.20487   0.00000  Uiso   1.00
O114   O     0.83334   0.22775   0.12846   0.00000  Uiso   1.00
O115   O     0.83333   0.10559   0.12843   0.00000  Uiso   1.00
O116   O     0.83334   0.22774   0.20490   0.00000  Uiso   1.00
O117   O     0.75725   0.16666   0.19595   0.00000  Uiso   1.00
O118   O     0.90942   0.16667   0.13739   0.00000  Uiso   1.00
O119   O     0.75725   0.16667   0.11950   0.00000  Uiso   1.00
O120   O     0.90942   0.16666   0.21383   0.00000  Uiso   1.00
Zn121  Zn    0.83333   0.16666   0.21771   0.00000  Uiso   1.00
Zn122  Zn    0.83333   0.16667   0.11563   0.00000  Uiso   1.00
O123   O     0.75755   0.29395   0.10357   0.00000  Uiso   1.00
H124   H     0.75005   0.26528   0.11409   0.00000  Uiso   1.00
O125   O     0.90911   0.03939   0.22977   0.00000  Uiso   1.00
H126   H     0.91662   0.06804   0.21923   0.00000  Uiso   1.00
C127   C     0.88301   0.23506   0.05011   0.00000  Uiso   1.00
H128   H     0.87539   0.26649   0.03688   0.00000  Uiso   1.00
O129   O     0.91667   0.23015   0.08279   0.00000  Uiso   1.00
C130   C     0.78366   0.09827   0.28322   0.00000  Uiso   1.00
H131   H     0.79127   0.06685   0.29646   0.00000  Uiso   1.00
O132   O     0.75000   0.10319   0.25054   0.00000  Uiso   1.00
C133   C     0.16786   0.42018   0.16691   0.00000  Uiso   1.00
C134   C     0.16548   0.57982   0.16642   0.00000  Uiso   1.00
C135   C     0.06717   0.49993   0.15482   0.00000  Uiso   1.00
C136   C     0.26616   0.50007   0.17851   0.00000  Uiso   1.00
C137   C     0.01215   0.49976   0.14845   0.00000  Uiso   1.00
C138   C     0.32118   0.50024   0.18488   0.00000  Uiso   1.00
C139   C     0.13276   0.35564   0.13464   0.00000  Uiso   1.00
C140   C     0.20057   0.64436   0.19870   0.00000  Uiso   1.00
C141   C     0.12936   0.64602   0.13440   0.00000  Uiso   1.00
C142   C     0.20397   0.35398   0.19893   0.00000  Uiso   1.00
C143   C     0.16439   0.62397   0.16642   0.00000  Uiso   1.00
C144   C     0.16894   0.37603   0.16692   0.00000  Uiso   1.00
C145   C     0.18966   0.53239   0.02571   0.00000  Uiso   1.00
C146   C     0.14367   0.46761   0.30762   0.00000  Uiso   1.00
C147   C     0.18892   0.53230   0.31133   0.00000  Uiso   1.00
C148   C     0.14441   0.46770   0.02200   0.00000  Uiso   1.00
H149   H     0.32513   0.49916   0.11382   0.00000  Uiso   1.00
H150   H     0.00820   0.50084   0.21952   0.00000  Uiso   1.00
H151   H     0.10574   0.37327   0.11057   0.00000  Uiso   1.00
H152   H     0.22758   0.62673   0.22276   0.00000  Uiso   1.00
H153   H     0.20711   0.55786   0.29480   0.00000  Uiso   1.00
H154   H     0.12622   0.44214   0.03853   0.00000  Uiso   1.00
N155   N     0.16665   0.49999   0.28573   0.00000  Uiso   1.00
N156   N     0.16668   0.50001   0.04760   0.00000  Uiso   1.00
O157   O     0.16666   0.43892   0.20487   0.00000  Uiso   1.00
O158   O     0.16667   0.56108   0.12846   0.00000  Uiso   1.00
O159   O     0.16666   0.43893   0.12843   0.00000  Uiso   1.00
O160   O     0.16667   0.56107   0.20490   0.00000  Uiso   1.00
O161   O     0.09058   0.50000   0.19595   0.00000  Uiso   1.00
O162   O     0.24275   0.50000   0.13739   0.00000  Uiso   1.00
O163   O     0.09058   0.50000   0.11950   0.00000  Uiso   1.00
O164   O     0.24275   0.50000   0.21383   0.00000  Uiso   1.00
Zn165  Zn    0.16667   0.49999   0.21771   0.00000  Uiso   1.00
Zn166  Zn    0.16667   0.50001   0.11563   0.00000  Uiso   1.00
O167   O     0.09088   0.62728   0.10357   0.00000  Uiso   1.00
H168   H     0.08338   0.59862   0.11409   0.00000  Uiso   1.00
O169   O     0.24244   0.37272   0.22977   0.00000  Uiso   1.00
H170   H     0.24996   0.40137   0.21923   0.00000  Uiso   1.00
C171   C     0.21634   0.56840   0.05011   0.00000  Uiso   1.00
H172   H     0.20873   0.59982   0.03688   0.00000  Uiso   1.00
O173   O     0.25000   0.56348   0.08279   0.00000  Uiso   1.00
C174   C     0.11699   0.43160   0.28322   0.00000  Uiso   1.00
H175   H     0.12461   0.40018   0.29646   0.00000  Uiso   1.00
O176   O     0.08333   0.43652   0.25054   0.00000  Uiso   1.00
C177   C     0.50119   0.42018   0.16691   0.00000  Uiso   1.00
C178   C     0.49881   0.57982   0.16642   0.00000  Uiso   1.00
C179   C     0.40051   0.49993   0.15482   0.00000  Uiso   1.00
C180   C     0.59949   0.50007   0.17851   0.00000  Uiso   1.00
C181   C     0.34549   0.49976   0.14845   0.00000  Uiso   1.00
C182   C     0.65451   0.50024   0.18488   0.00000  Uiso   1.00
C183   C     0.46609   0.35564   0.13464   0.00000  Uiso   1.00
C184   C     0.53390   0.64436   0.19870   0.00000  Uiso   1.00
C185   C     0.46269   0.64602   0.13440   0.00000  Uiso   1.00
C186   C     0.53730   0.35398   0.19893   0.00000  Uiso   1.00
C187   C     0.49772   0.62397   0.16642   0.00000  Uiso   1.00
C188   C     0.50227   0.37603   0.16692   0.00000  Uiso   1.00
C189   C     0.52300   0.53239   0.02571   0.00000  Uiso   1.00
C190   C     0.47700   0.46761   0.30762   0.00000  Uiso   1.00
C191   C     0.52226   0.53230   0.31133   0.00000  Uiso   1.00
C192   C     0.47774   0.46770   0.02200   0.00000  Uiso   1.00
H193   H     0.65846   0.49916   0.11382   0.00000  Uiso   1.00
H194   H     0.34154   0.50084   0.21952   0.00000  Uiso   1.00
H195   H     0.43908   0.37327   0.11057   0.00000  Uiso   1.00
H196   H     0.56092   0.62673   0.22276   0.00000  Uiso   1.00
H197   H     0.54044   0.55786   0.29480   0.00000  Uiso   1.00
H198   H     0.45955   0.44214   0.03853   0.00000  Uiso   1.00
N199   N     0.49999   0.49999   0.28573   0.00000  Uiso   1.00
N200   N     0.50001   0.50001   0.04760   0.00000  Uiso   1.00
O201   O     0.50000   0.43892   0.20487   0.00000  Uiso   1.00
O202   O     0.50000   0.56108   0.12846   0.00000  Uiso   1.00
O203   O     0.50000   0.43893   0.12843   0.00000  Uiso   1.00
O204   O     0.50000   0.56107   0.20490   0.00000  Uiso   1.00
O205   O     0.42392   0.50000   0.19595   0.00000  Uiso   1.00
O206   O     0.57608   0.50000   0.13739   0.00000  Uiso   1.00
O207   O     0.42392   0.50000   0.11950   0.00000  Uiso   1.00
O208   O     0.57608   0.50000   0.21383   0.00000  Uiso   1.00
Zn209  Zn    0.50000   0.49999   0.21771   0.00000  Uiso   1.00
Zn210  Zn    0.50000   0.50001   0.11563   0.00000  Uiso   1.00
O211   O     0.42421   0.62728   0.10357   0.00000  Uiso   1.00
H212   H     0.41672   0.59862   0.11409   0.00000  Uiso   1.00
O213   O     0.57577   0.37272   0.22977   0.00000  Uiso   1.00
H214   H     0.58329   0.40137   0.21923   0.00000  Uiso   1.00
C215   C     0.54967   0.56840   0.05011   0.00000  Uiso   1.00
H216   H     0.54206   0.59982   0.03688   0.00000  Uiso   1.00
O217   O     0.58333   0.56348   0.08279   0.00000  Uiso   1.00
C218   C     0.45033   0.43160   0.28322   0.00000  Uiso   1.00
H219   H     0.45794   0.40018   0.29646   0.00000  Uiso   1.00
O220   O     0.41667   0.43652   0.25054   0.00000  Uiso   1.00
C221   C     0.83452   0.42018   0.16691   0.00000  Uiso   1.00
C222   C     0.83214   0.57982   0.16642   0.00000  Uiso   1.00
C223   C     0.73384   0.49993   0.15482   0.00000  Uiso   1.00
C224   C     0.93283   0.50007   0.17851   0.00000  Uiso   1.00
C225   C     0.67882   0.49976   0.14845   0.00000  Uiso   1.00
C226   C     0.98785   0.50024   0.18488   0.00000  Uiso   1.00
C227   C     0.79942   0.35564   0.13464   0.00000  Uiso   1.00
C228   C     0.86724   0.64436   0.19870   0.00000  Uiso   1.00
C229   C     0.79602   0.64602   0.13440   0.00000  Uiso   1.00
C230   C     0.87063   0.35398   0.19893   0.00000  Uiso   1.00
C231   C     0.83106   0.62397   0.16642   0.00000  Uiso   1.00
C232   C     0.83560   0.37603   0.16692   0.00000  Uiso   1.00
C233   C     0.85633   0.53239   0.02571   0.00000  Uiso   1.00
C234   C     0.81034   0.46761   0.30762   0.00000  Uiso   1.00
C235   C     0.85559   0.53230   0.31133   0.00000  Uiso   1.00
C236   C     0.81108   0.46770   0.02200   0.00000  Uiso   1.00
H237   H     0.99180   0.49916   0.11382   0.00000  Uiso   1.00
H238   H     0.67487   0.50084   0.21952   0.00000  Uiso   1.00
H239   H     0.77241   0.37327   0.11057   0.00000  Uiso   1.00
H240   H     0.89425   0.62673   0.22276   0.00000  Uiso   1.00
H241   H     0.87378   0.55786   0.29480   0.00000  Uiso   1.00
H242   H     0.79289   0.44214   0.03853   0.00000  Uiso   1.00
N243   N     0.83332   0.49999   0.28573   0.00000  Uiso   1.00
N244   N     0.83335   0.50001   0.04760   0.00000  Uiso   1.00
O245   O     0.83333   0.43892   0.20487   0.00000  Uiso   1.00
O246   O     0.83334   0.56108   0.12846   0.00000  Uiso   1.00
O247   O     0.83333   0.43893   0.12843   0.00000  Uiso   1.00
O248   O     0.83334   0.56107   0.20490   0.00000  Uiso   1.00
O249   O     0.75725   0.50000   0.19595   0.00000  Uiso   1.00
O250   O     0.90942   0.50000   0.13739   0.00000  Uiso   1.00
O251   O     0.75725   0.50000   0.11950   0.00000  Uiso   1.00
O252   O     0.90942   0.50000   0.21383   0.00000  Uiso   1.00
Zn253  Zn    0.83333   0.49999   0.21771   0.00000  Uiso   1.00
Zn254  Zn    0.83333   0.50001   0.11563   0.00000  Uiso   1.00
O255   O     0.75755   0.62728   0.10357   0.00000  Uiso   1.00
H256   H     0.75005   0.59862   0.11409   0.00000  Uiso   1.00
O257   O     0.90911   0.37272   0.22977   0.00000  Uiso   1.00
H258   H     0.91662   0.40137   0.21923   0.00000  Uiso   1.00
C259   C     0.88301   0.56840   0.05011   0.00000  Uiso   1.00
H260   H     0.87539   0.59982   0.03688   0.00000  Uiso   1.00
O261   O     0.91667   0.56348   0.08279   0.00000  Uiso   1.00
C262   C     0.78366   0.43160   0.28322   0.00000  Uiso   1.00
H263   H     0.79127   0.40018   0.29646   0.00000  Uiso   1.00
O264   O     0.75000   0.43652   0.25054   0.00000  Uiso   1.00
C265   C     0.16786   0.75351   0.16691   0.00000  Uiso   1.00
C266   C     0.16548   0.91315   0.16642   0.00000  Uiso   1.00
C267   C     0.06717   0.83327   0.15482   0.00000  Uiso   1.00
C268   C     0.26616   0.83340   0.17851   0.00000  Uiso   1.00
C269   C     0.01215   0.83309   0.14845   0.00000  Uiso   1.00
C270   C     0.32118   0.83357   0.18488   0.00000  Uiso   1.00
C271   C     0.13276   0.68898   0.13464   0.00000  Uiso   1.00
C272   C     0.20057   0.97769   0.19870   0.00000  Uiso   1.00
C273   C     0.12936   0.97935   0.13440   0.00000  Uiso   1.00
C274   C     0.20397   0.68732   0.19893   0.00000  Uiso   1.00
C275   C     0.16439   0.95730   0.16642   0.00000  Uiso   1.00
C276   C     0.16894   0.70937   0.16692   0.00000  Uiso   1.00
C277   C     0.18966   0.86572   0.02571   0.00000  Uiso   1.00
C278   C     0.14367   0.80095   0.30762   0.00000  Uiso   1.00
C279   C     0.18892   0.86563   0.31133   0.00000  Uiso   1.00
C280   C     0.14441   0.80104   0.02200   0.00000  Uiso   1.00
H281   H     0.32513   0.83250   0.11382   0.00000  Uiso   1.00
H282   H     0.00820   0.83417   0.21952   0.00000  Uiso   1.00
H283   H     0.10574   0.70660   0.11057   0.00000  Uiso   1.00
H284   H     0.22758   0.96007   0.22276   0.00000  Uiso   1.00
H285   H     0.20711   0.89120   0.29480   0.00000  Uiso   1.00
H286   H     0.12622   0.77547   0.03853   0.00000  Uiso   1.00
N287   N     0.16665   0.83332   0.28573   0.00000  Uiso   1.00
N288   N     0.16668   0.83334   0.04760   0.00000  Uiso   1.00
O289   O     0.16666   0.77225   0.20487   0.00000  Uiso   1.00
O290   O     0.16667   0.89442   0.12846   0.00000  Uiso   1.00
O291   O     0.16666   0.77226   0.12843   0.00000  Uiso   1.00
O292   O     0.16667   0.89441   0.20490   0.00000  Uiso   1.00
O293   O     0.09058   0.83333   0.19595   0.00000  Uiso   1.00
O294   O     0.24275   0.83334   0.13739   0.00000  Uiso   1.00
O295   O     0.09058   0.83334   0.11950   0.00000  Uiso   1.00
O296   O     0.24275   0.83333   0.21383   0.00000  Uiso   1.00
Zn297  Zn    0.16667   0.83333   0.21771   0.00000  Uiso   1.00
Zn298  Zn    0.16667   0.83334   0.11563   0.00000  Uiso   1.00
O299   O     0.09088   0.96061   0.10357   0.00000  Uiso   1.00
H300   H     0.08338   0.93195   0.11409   0.00000  Uiso   1.00
O301   O     0.24244   0.70606   0.22977   0.00000  Uiso   1.00
H302   H     0.24996   0.73471   0.21923   0.00000  Uiso   1.00
C303   C     0.21634   0.90173   0.05011   0.00000  Uiso   1.00
H304   H     0.20873   0.93315   0.03688   0.00000  Uiso   1.00
O305   O     0.25000   0.89681   0.08279   0.00000  Uiso   1.00
C306   C     0.11699   0.76494   0.28322   0.00000  Uiso   1.00
H307   H     0.12461   0.73351   0.29646   0.00000  Uiso   1.00
O308   O     0.08333   0.76985   0.25054   0.00000  Uiso   1.00
C309   C     0.50119   0.75351   0.16691   0.00000  Uiso   1.00
C310   C     0.49881   0.91315   0.16642   0.00000  Uiso   1.00
C311   C     0.40051   0.83327   0.15482   0.00000  Uiso   1.00
C312   C     0.59949   0.83340   0.17851   0.00000  Uiso   1.00
C313   C     0.34549   0.83309   0.14845   0.00000  Uiso   1.00
C314   C     0.65451   0.83357   0.18488   0.00000  Uiso   1.00
C315   C     0.46609   0.68898   0.13464   0.00000  Uiso   1.00
C316   C     0.53390   0.97769   0.19870   0.00000  Uiso   1.00
C317   C     0.46269   0.97935   0.13440   0.00000  Uiso   1.00
C318   C     0.53730   0.68732   0.19893   0.00000  Uiso   1.00
C319   C     0.49772   0.95730   0.16642   0.00000  Uiso   1.00
C320   C     0.50227   0.70937   0.16692   0.00000  Uiso   1.00
C321   C     0.52300   0.86572   0.02571   0.00000  Uiso   1.00
C322   C     0.47700   0.80095   0.30762   0.00000  Uiso   1.00
C323   C     0.52226   0.86563   0.31133   0.00000  Uiso   1.00
C324   C     0.47774   0.80104   0.02200   0.00000  Uiso   1.00
H325   H     0.65846   0.83250   0.11382   0.00000  Uiso   1.00
H326   H     0.34154   0.83417   0.21952   0.00000  Uiso   1.00
H327   H     0.43908   0.70660   0.11057   0.00000  Uiso   1.00
H328   H     0.56092   0.96007   0.22276   0.00000  Uiso   1.00
H329   H     0.54044   0.89120   0.29480   0.00000  Uiso   1.00
H330   H     0.45955   0.77547   0.03853   0.00000  Uiso   1.00
N331   N     0.49999   0.83332   0.28573   0.00000  Uiso   1.00
N332   N     0.50001   0.83334   0.04760   0.00000  Uiso   1.00
O333   O     0.50000   0.77225   0.20487   0.00000  Uiso   1.00
O334   O     0.50000   0.89442   0.12846   0.00000  Uiso   1.00
O335   O     0.50000   0.77226   0.12843   0.00000  Uiso   1.00
O336   O     0.50000   0.89441   0.20490   0.00000  Uiso   1.00
O337   O     0.42392   0.83333   0.19595   0.00000  Uiso   1.00
O338   O     0.57608   0.83334   0.13739   0.00000  Uiso   1.00
O339   O     0.42392   0.83334   0.11950   0.00000  Uiso   1.00
O340   O     0.57608   0.83333   0.21383   0.00000  Uiso   1.00
Zn341  Zn    0.50000   0.83333   0.21771   0.00000  Uiso   1.00
Zn342  Zn    0.50000   0.83334   0.11563   0.00000  Uiso   1.00
O343   O     0.42421   0.96061   0.10357   0.00000  Uiso   1.00
H344   H     0.41672   0.93195   0.11409   0.00000  Uiso   1.00
O345   O     0.57577   0.70606   0.22977   0.00000  Uiso   1.00
H346   H     0.58329   0.73471   0.21923   0.00000  Uiso   1.00
C347   C     0.54967   0.90173   0.05011   0.00000  Uiso   1.00
H348   H     0.54206   0.93315   0.03688   0.00000  Uiso   1.00
O349   O     0.58333   0.89681   0.08279   0.00000  Uiso   1.00
C350   C     0.45033   0.76494   0.28322   0.00000  Uiso   1.00
H351   H     0.45794   0.73351   0.29646   0.00000  Uiso   1.00
O352   O     0.41667   0.76985   0.25054   0.00000  Uiso   1.00
C353   C     0.83452   0.75351   0.16691   0.00000  Uiso   1.00
C354   C     0.83214   0.91315   0.16642   0.00000  Uiso   1.00
C355   C     0.73384   0.83327   0.15482   0.00000  Uiso   1.00
C356   C     0.93283   0.83340   0.17851   0.00000  Uiso   1.00
C357   C     0.67882   0.83309   0.14845   0.00000  Uiso   1.00
C358   C     0.98785   0.83357   0.18488   0.00000  Uiso   1.00
C359   C     0.79942   0.68898   0.13464   0.00000  Uiso   1.00
C360   C     0.86724   0.97769   0.19870   0.00000  Uiso   1.00
C361   C     0.79602   0.97935   0.13440   0.00000  Uiso   1.00
C362   C     0.87063   0.68732   0.19893   0.00000  Uiso   1.00
C363   C     0.83106   0.95730   0.16642   0.00000  Uiso   1.00
C364   C     0.83560   0.70937   0.16692   0.00000  Uiso   1.00
C365   C     0.85633   0.86572   0.02571   0.00000  Uiso   1.00
C366   C     0.81034   0.80095   0.30762   0.00000  Uiso   1.00
C367   C     0.85559   0.86563   0.31133   0.00000  Uiso   1.00
C368   C     0.81108   0.80104   0.02200   0.00000  Uiso   1.00
H369   H     0.99180   0.83250   0.11382   0.00000  Uiso   1.00
H370   H     0.67487   0.83417   0.21952   0.00000  Uiso   1.00
H371   H     0.77241   0.70660   0.11057   0.00000  Uiso   1.00
H372   H     0.89425   0.96007   0.22276   0.00000  Uiso   1.00
H373   H     0.87378   0.89120   0.29480   0.00000  Uiso   1.00
H374   H     0.79289   0.77547   0.03853   0.00000  Uiso   1.00
N375   N     0.83332   0.83332   0.28573   0.00000  Uiso   1.00
N376   N     0.83335   0.83334   0.04760   0.00000  Uiso   1.00
O377   O     0.83333   0.77225   0.20487   0.00000  Uiso   1.00
O378   O     0.83334   0.89442   0.12846   0.00000  Uiso   1.00
O379   O     0.83333   0.77226   0.12843   0.00000  Uiso   1.00
O380   O     0.83334   0.89441   0.20490   0.00000  Uiso   1.00
O381   O     0.75725   0.83333   0.19595   0.00000  Uiso   1.00
O382   O     0.90942   0.83334   0.13739   0.00000  Uiso   1.00
O383   O     0.75725   0.83334   0.11950   0.00000  Uiso   1.00
O384   O     0.90942   0.83333   0.21383   0.00000  Uiso   1.00
Zn385  Zn    0.83333   0.83333   0.21771   0.00000  Uiso   1.00
Zn386  Zn    0.83333   0.83334   0.11563   0.00000  Uiso   1.00
O387   O     0.75755   0.96061   0.10357   0.00000  Uiso   1.00
H388   H     0.75005   0.93195   0.11409   0.00000  Uiso   1.00
O389   O     0.90911   0.70606   0.22977   0.00000  Uiso   1.00
H390   H     0.91662   0.73471   0.21923   0.00000  Uiso   1.00
C391   C     0.88301   0.90173   0.05011   0.00000  Uiso   1.00
H392   H     0.87539   0.93315   0.03688   0.00000  Uiso   1.00
O393   O     0.91667   0.89681   0.08279   0.00000  Uiso   1.00
C394   C     0.78366   0.76494   0.28322   0.00000  Uiso   1.00
H395   H     0.79127   0.73351   0.29646   0.00000  Uiso   1.00
O396   O     0.75000   0.76985   0.25054   0.00000  Uiso   1.00
C397   C     0.16786   0.08685   0.50024   0.00000  Uiso   1.00
C398   C     0.16548   0.24648   0.49976   0.00000  Uiso   1.00
C399   C     0.06717   0.16660   0.48815   0.00000  Uiso   1.00
C400   C     0.26616   0.16673   0.51185   0.00000  Uiso   1.00
C401   C     0.01215   0.16643   0.48178   0.00000  Uiso   1.00
C402   C     0.32118   0.16691   0.51822   0.00000  Uiso   1.00
C403   C     0.13276   0.02231   0.46797   0.00000  Uiso   1.00
C404   C     0.20057   0.31102   0.53203   0.00000  Uiso   1.00
C405   C     0.12936   0.31268   0.46773   0.00000  Uiso   1.00
C406   C     0.20397   0.02065   0.53227   0.00000  Uiso   1.00
C407   C     0.16439   0.29063   0.49975   0.00000  Uiso   1.00
C408   C     0.16894   0.04270   0.50025   0.00000  Uiso   1.00
C409   C     0.18966   0.19905   0.35905   0.00000  Uiso   1.00
C410   C     0.14367   0.13428   0.64095   0.00000  Uiso   1.00
C411   C     0.18892   0.19896   0.64467   0.00000  Uiso   1.00
C412   C     0.14441   0.13437   0.35533   0.00000  Uiso   1.00
H413   H     0.32513   0.16583   0.44715   0.00000  Uiso   1.00
H414   H     0.00820   0.16750   0.55285   0.00000  Uiso   1.00
H415   H     0.10574   0.03993   0.44390   0.00000  Uiso   1.00
H416   H     0.22758   0.29340   0.55610   0.00000  Uiso   1.00
H417   H     0.20711   0.22453   0.62813   0.00000  Uiso   1.00
H418   H     0.12622   0.10880   0.37187   0.00000  Uiso   1.00
N419   N     0.16665   0.16666   0.61907   0.00000  Uiso   1.00
N420   N     0.16668   0.16668   0.38093   0.00000  Uiso   1.00
O421   O     0.16666   0.10558   0.53821   0.00000  Uiso   1.00
O422   O     0.16667   0.22775   0.46179   0.00000  Uiso   1.00
O423   O     0.16666   0.10559   0.46176   0.00000  Uiso   1.00
O424   O     0.16667   0.22774   0.53824   0.00000  Uiso   1.00
O425   O     0.09058   0.16666   0.52928   0.00000  Uiso   1.00
O426   O     0.24275   0.16667   0.47072   0.00000  Uiso   1.00
O427   O     0.09058   0.16667   0.45284   0.00000  Uiso   1.00
O428   O     0.24275   0.16666   0.54716   0.00000  Uiso   1.00
Zn429  Zn    0.16667   0.16666   0.55104   0.00000  Uiso   1.00
Zn430  Zn    0.16667   0.16667   0.44896   0.00000  Uiso   1.00
O431   O     0.09088   0.29395   0.43690   0.00000  Uiso   1.00
H432   H     0.08338   0.26528   0.44742   0.00000  Uiso   1.00
O433   O     0.24244   0.03939   0.56310   0.00000  Uiso   1.00
H434   H     0.24996   0.06804   0.55257   0.00000  Uiso   1.00
C435   C     0.21634   0.23506   0.38344   0.00000  Uiso   1.00
H436   H     0.20873   0.26649   0.37021   0.00000  Uiso   1.00
O437   O     0.25000   0.23015   0.41612   0.00000  Uiso   1.00
C438   C     0.11699   0.09827   0.61656   0.00000  Uiso   1.00
H439   H     0.12461   0.06685   0.62979   0.00000  Uiso   1.00
O440   O     0.08333   0.10319   0.58388   0.00000  Uiso   1.00
C441   C     0.50119   0.08685   0.50024   0.00000  Uiso   1.00
C442   C     0.49881   0.24648   0.49976   0.00000  Uiso   1.00
C443   C     0.40051   0.16660   0.48815   0.00000  Uiso   1.00
C444   C     0.59949   0.16673   0.51185   0.00000  Uiso   1.00
C445   C     0.34549   0.16643   0.48178   0.00000  Uiso   1.00
C446   C     0.65451   0.16691   0.51822   0.00000  Uiso   1.00
C447   C     0.46609   0.02231   0.46797   0.00000  Uiso   1.00
C448   C     0.53390   0.31102   0.53203   0.00000  Uiso   1.00
C449   C     0.46269   0.31268   0.46773   0.00000  Uiso   1.00
C450   C     0.53730   0.02065   0.53227   0.00000  Uiso   1.00
C451   C     0.49772   0.29063   0.49975   0.00000  Uiso   1.00
C452   C     0.50227   0.04270   0.50025   0.00000  Uiso   1.00
C453   C     0.52300   0.19905   0.35905   0.00000  Uiso   1.00
C454   C     0.47700   0.13428   0.64095   0.00000  Uiso   1.00
C455   C     0.52226   0.19896   0.64467   0.00000  Uiso   1.00
C456   C     0.47774   0.13437   0.35533   0.00000  Uiso   1.00
H457   H     0.65846   0.16583   0.44715   0.00000  Uiso   1.00
H458   H     0.34154   0.16750   0.55285   0.00000  Uiso   1.00
H459   H     0.43908   0.03993   0.44390   0.00000  Uiso   1.00
H460   H     0.56092   0.29340   0.55610   0.00000  Uiso   1.00
H461   H     0.54044   0.22453   0.62813   0.00000  Uiso   1.00
H462   H     0.45955   0.10880   0.37187   0.00000  Uiso   1.00
N463   N     0.49999   0.16666   0.61907   0.00000  Uiso   1.00
N464   N     0.50001   0.16668   0.38093   0.00000  Uiso   1.00
O465   O     0.50000   0.10558   0.53821   0.00000  Uiso   1.00
O466   O     0.50000   0.22775   0.46179   0.00000  Uiso   1.00
O467   O     0.50000   0.10559   0.46176   0.00000  Uiso   1.00
O468   O     0.50000   0.22774   0.53824   0.00000  Uiso   1.00
O469   O     0.42392   0.16666   0.52928   0.00000  Uiso   1.00
O470   O     0.57608   0.16667   0.47072   0.00000  Uiso   1.00
O471   O     0.42392   0.16667   0.45284   0.00000  Uiso   1.00
O472   O     0.57608   0.16666   0.54716   0.00000  Uiso   1.00
Zn473  Zn    0.50000   0.16666   0.55104   0.00000  Uiso   1.00
Zn474  Zn    0.50000   0.16667   0.44896   0.00000  Uiso   1.00
O475   O     0.42421   0.29395   0.43690   0.00000  Uiso   1.00
H476   H     0.41672   0.26528   0.44742   0.00000  Uiso   1.00
O477   O     0.57577   0.03939   0.56310   0.00000  Uiso   1.00
H478   H     0.58329   0.06804   0.55257   0.00000  Uiso   1.00
C479   C     0.54967   0.23506   0.38344   0.00000  Uiso   1.00
H480   H     0.54206   0.26649   0.37021   0.00000  Uiso   1.00
O481   O     0.58333   0.23015   0.41612   0.00000  Uiso   1.00
C482   C     0.45033   0.09827   0.61656   0.00000  Uiso   1.00
H483   H     0.45794   0.06685   0.62979   0.00000  Uiso   1.00
O484   O     0.41667   0.10319   0.58388   0.00000  Uiso   1.00
C485   C     0.83452   0.08685   0.50024   0.00000  Uiso   1.00
C486   C     0.83214   0.24648   0.49976   0.00000  Uiso   1.00
C487   C     0.73384   0.16660   0.48815   0.00000  Uiso   1.00
C488   C     0.93283   0.16673   0.51185   0.00000  Uiso   1.00
C489   C     0.67882   0.16643   0.48178   0.00000  Uiso   1.00
C490   C     0.98785   0.16691   0.51822   0.00000  Uiso   1.00
C491   C     0.79942   0.02231   0.46797   0.00000  Uiso   1.00
C492   C     0.86724   0.31102   0.53203   0.00000  Uiso   1.00
C493   C     0.79602   0.31268   0.46773   0.00000  Uiso   1.00
C494   C     0.87063   0.02065   0.53227   0.00000  Uiso   1.00
C495   C     0.83106   0.29063   0.49975   0.00000  Uiso   1.00
C496   C     0.83560   0.04270   0.50025   0.00000  Uiso   1.00
C497   C     0.85633   0.19905   0.35905   0.00000  Uiso   1.00
C498   C     0.81034   0.13428   0.64095   0.00000  Uiso   1.00
C499   C     0.85559   0.19896   0.64467   0.00000  Uiso   1.00
C500   C     0.81108   0.13437   0.35533   0.00000  Uiso   1.00
H501   H     0.99180   0.16583   0.44715   0.00000  Uiso   1.00
H502   H     0.67487   0.16750   0.55285   0.00000  Uiso   1.00
H503   H     0.77241   0.03993   0.44390   0.00000  Uiso   1.00
H504   H     0.89425   0.29340   0.55610   0.00000  Uiso   1.00
H505   H     0.87378   0.22453   0.62813   0.00000  Uiso   1.00
H506   H     0.79289   0.10880   0.37187   0.00000  Uiso   1.00
N507   N     0.83332   0.16666   0.61907   0.00000  Uiso   1.00
N508   N     0.83335   0.16668   0.38093   0.00000  Uiso   1.00
O509   O     0.83333   0.10558   0.53821   0.00000  Uiso   1.00
O510   O     0.83334   0.22775   0.46179   0.00000  Uiso   1.00
O511   O     0.83333   0.10559   0.46176   0.00000  Uiso   1.00
O512   O     0.83334   0.22774   0.53824   0.00000  Uiso   1.00
O513   O     0.75725   0.16666   0.52928   0.00000  Uiso   1.00
O514   O     0.90942   0.16667   0.47072   0.00000  Uiso   1.00
O515   O     0.75725   0.16667   0.45284   0.00000  Uiso   1.00
O516   O     0.90942   0.16666   0.54716   0.00000  Uiso   1.00
Zn517  Zn    0.83333   0.16666   0.55104   0.00000  Uiso   1.00
Zn518  Zn    0.83333   0.16667   0.44896   0.00000  Uiso   1.00
O519   O     0.75755   0.29395   0.43690   0.00000  Uiso   1.00
H520   H     0.75005   0.26528   0.44742   0.00000  Uiso   1.00
O521   O     0.90911   0.03939   0.56310   0.00000  Uiso   1.00
H522   H     0.91662   0.06804   0.55257   0.00000  Uiso   1.00
C523   C     0.88301   0.23506   0.38344   0.00000  Uiso   1.00
H524   H     0.87539   0.26649   0.37021   0.00000  Uiso   1.00
O525   O     0.91667   0.23015   0.41612   0.00000  Uiso   1.00
C526   C     0.78366   0.09827   0.61656   0.00000  Uiso   1.00
H527   H     0.79127   0.06685   0.62979   0.00000  Uiso   1.00
O528   O     0.75000   0.10319   0.58388   0.00000  Uiso   1.00
C529   C     0.16786   0.42018   0.50024   0.00000  Uiso   1.00
C530   C     0.16548   0.57982   0.49976   0.00000  Uiso   1.00
C531   C     0.06717   0.49993   0.48815   0.00000  Uiso   1.00
C532   C     0.26616   0.50007   0.51185   0.00000  Uiso   1.00
C533   C     0.01215   0.49976   0.48178   0.00000  Uiso   1.00
C534   C     0.32118   0.50024   0.51822   0.00000  Uiso   1.00
C535   C     0.13276   0.35564   0.46797   0.00000  Uiso   1.00
C536   C     0.20057   0.64436   0.53203   0.00000  Uiso   1.00
C537   C     0.12936   0.64602   0.46773   0.00000  Uiso   1.00
C538   C     0.20397   0.35398   0.53227   0.00000  Uiso   1.00
C539   C     0.16439   0.62397   0.49975   0.00000  Uiso   1.00
C540   C     0.16894   0.37603   0.50025   0.00000  Uiso   1.00
C541   C     0.18966   0.53239   0.35905   0.00000  Uiso   1.00
C542   C     0.14367   0.46761   0.64095   0.00000  Uiso   1.00
C543   C     0.18892   0.53230   0.64467   0.00000  Uiso   1.00
C544   C     0.14441   0.46770   0.35533   0.00000  Uiso   1.00
H545   H     0.32513   0.49916   0.44715   0.00000  Uiso   1.00
H546   H     0.00820   0.50084   0.55285   0.00000  Uiso   1.00
H547   H     0.10574   0.37327   0.44390   0.00000  Uiso   1.00
H548   H     0.22758   0.62673   0.55610   0.00000  Uiso   1.00
H549   H     0.20711   0.55786   0.62813   0.00000  Uiso   1.00
H550   H     0.12622   0.44214   0.37187   0.00000  Uiso   1.00
N551   N     0.16665   0.49999   0.61907   0.00000  Uiso   1.00
N552   N     0.16668   0.50001   0.38093   0.00000  Uiso   1.00
O553   O     0.16666   0.43892   0.53821   0.00000  Uiso   1.00
O554   O     0.16667   0.56108   0.46179   0.00000  Uiso   1.00
O555   O     0.16666   0.43893   0.46176   0.00000  Uiso   1.00
O556   O     0.16667   0.56107   0.53824   0.00000  Uiso   1.00
O557   O     0.09058   0.50000   0.52928   0.00000  Uiso   1.00
O558   O     0.24275   0.50000   0.47072   0.00000  Uiso   1.00
O559   O     0.09058   0.50000   0.45284   0.00000  Uiso   1.00
O560   O     0.24275   0.50000   0.54716   0.00000  Uiso   1.00
Zn561  Zn    0.16667   0.49999   0.55104   0.00000  Uiso   1.00
Zn562  Zn    0.16667   0.50001   0.44896   0.00000  Uiso   1.00
O563   O     0.09088   0.62728   0.43690   0.00000  Uiso   1.00
H564   H     0.08338   0.59862   0.44742   0.00000  Uiso   1.00
O565   O     0.24244   0.37272   0.56310   0.00000  Uiso   1.00
H566   H     0.24996   0.40137   0.55257   0.00000  Uiso   1.00
C567   C     0.21634   0.56840   0.38344   0.00000  Uiso   1.00
H568   H     0.20873   0.59982   0.37021   0.00000  Uiso   1.00
O569   O     0.25000   0.56348   0.41612   0.00000  Uiso   1.00
C570   C     0.11699   0.43160   0.61656   0.00000  Uiso   1.00
H571   H     0.12461   0.40018   0.62979   0.00000  Uiso   1.00
O572   O     0.08333   0.43652   0.58388   0.00000  Uiso   1.00
C573   C     0.50119   0.42018   0.50024   0.00000  Uiso   1.00
C574   C     0.49881   0.57982   0.49976   0.00000  Uiso   1.00
C575   C     0.40051   0.49993   0.48815   0.00000  Uiso   1.00
C576   C     0.59949   0.50007   0.51185   0.00000  Uiso   1.00
C577   C     0.34549   0.49976   0.48178   0.00000  Uiso   1.00
C578   C     0.65451   0.50024   0.51822   0.00000  Uiso   1.00
C579   C     0.46609   0.35564   0.46797   0.00000  Uiso   1.00
C580   C     0.53390   0.64436   0.53203   0.00000  Uiso   1.00
C581   C     0.46269   0.64602   0.46773   0.00000  Uiso   1.00
C582   C     0.53730   0.35398   0.53227   0.00000  Uiso   1.00
C583   C     0.49772   0.62397   0.49975   0.00000  Uiso   1.00
C584   C     0.50227   0.37603   0.50025   0.00000  Uiso   1.00
C585   C     0.52300   0.53239   0.35905   0.00000  Uiso   1.00
C586   C     0.47700   0.46761   0.64095   0.00000  Uiso   1.00
C587   C     0.52226   0.53230   0.64467   0.00000  Uiso   1.00
C588   C     0.47774   0.46770   0.35533   0.00000  Uiso   1.00
H589   H     0.65846   0.49916   0.44715   0.00000  Uiso   1.00
H590   H     0.34154   0.50084   0.55285   0.00000  Uiso   1.00
H591   H     0.43908   0.37327   0.44390   0.00000  Uiso   1.00
H592   H     0.56092   0.62673   0.55610   0.00000  Uiso   1.00
H593   H     0.54044   0.55786   0.62813   0.00000  Uiso   1.00
H594   H     0.45955   0.44214   0.37187   0.00000  Uiso   1.00
N595   N     0.49999   0.49999   0.61907   0.00000  Uiso   1.00
N596   N     0.50001   0.50001   0.38093   0.00000  Uiso   1.00
O597   O     0.50000   0.43892   0.53821   0.00000  Uiso   1.00
O598   O     0.50000   0.56108   0.46179   0.00000  Uiso   1.00
O599   O     0.50000   0.43893   0.46176   0.00000  Uiso   1.00
O600   O     0.50000   0.56107   0.53824   0.00000  Uiso   1.00
O601   O     0.42392   0.50000   0.52928   0.00000  Uiso   1.00
O602   O     0.57608   0.50000   0.47072   0.00000  Uiso   1.00
O603   O     0.42392   0.50000   0.45284   0.00000  Uiso   1.00
O604   O     0.57608   0.50000   0.54716   0.00000  Uiso   1.00
Zn605  Zn    0.50000   0.49999   0.55104   0.00000  Uiso   1.00
Zn606  Zn    0.50000   0.50001   0.44896   0.00000  Uiso   1.00
O607   O     0.42421   0.62728   0.43690   0.00000  Uiso   1.00
H608   H     0.41672   0.59862   0.44742   0.00000  Uiso   1.00
O609   O     0.57577   0.37272   0.56310   0.00000  Uiso   1.00
H610   H     0.58329   0.40137   0.55257   0.00000  Uiso   1.00
C611   C     0.54967   0.56840   0.38344   0.00000  Uiso   1.00
H612   H     0.54206   0.59982   0.37021   0.00000  Uiso   1.00
O613   O     0.58333   0.56348   0.41612   0.00000  Uiso   1.00
C614   C     0.45033   0.43160   0.61656   0.00000  Uiso   1.00
H615   H     0.45794   0.40018   0.62979   0.00000  Uiso   1.00
O616   O     0.41667   0.43652   0.58388   0.00000  Uiso   1.00
C617   C     0.83452   0.42018   0.50024   0.00000  Uiso   1.00
C618   C     0.83214   0.57982   0.49976   0.00000  Uiso   1.00
C619   C     0.73384   0.49993   0.48815   0.00000  Uiso   1.00
C620   C     0.93283   0.50007   0.51185   0.00000  Uiso   1.00
C621   C     0.67882   0.49976   0.48178   0.00000  Uiso   1.00
C622   C     0.98785   0.50024   0.51822   0.00000  Uiso   1.00
C623   C     0.79942   0.35564   0.46797   0.00000  Uiso   1.00
C624   C     0.86724   0.64436   0.53203   0.00000  Uiso   1.00
C625   C     0.79602   0.64602   0.46773   0.00000  Uiso   1.00
C626   C     0.87063   0.35398   0.53227   0.00000  Uiso   1.00
C627   C     0.83106   0.62397   0.49975   0.00000  Uiso   1.00
C628   C     0.83560   0.37603   0.50025   0.00000  Uiso   1.00
C629   C     0.85633   0.53239   0.35905   0.00000  Uiso   1.00
C630   C     0.81034   0.46761   0.64095   0.00000  Uiso   1.00
C631   C     0.85559   0.53230   0.64467   0.00000  Uiso   1.00
C632   C     0.81108   0.46770   0.35533   0.00000  Uiso   1.00
H633   H     0.99180   0.49916   0.44715   0.00000  Uiso   1.00
H634   H     0.67487   0.50084   0.55285   0.00000  Uiso   1.00
H635   H     0.77241   0.37327   0.44390   0.00000  Uiso   1.00
H636   H     0.89425   0.62673   0.55610   0.00000  Uiso   1.00
H637   H     0.87378   0.55786   0.62813   0.00000  Uiso   1.00
H638   H     0.79289   0.44214   0.37187   0.00000  Uiso   1.00
N639   N     0.83332   0.49999   0.61907   0.00000  Uiso   1.00
N640   N     0.83335   0.50001   0.38093   0.00000  Uiso   1.00
O641   O     0.83333   0.43892   0.53821   0.00000  Uiso   1.00
O642   O     0.83334   0.56108   0.46179   0.00000  Uiso   1.00
O643   O     0.83333   0.43893   0.46176   0.00000  Uiso   1.00
O644   O     0.83334   0.56107   0.53824   0.00000  Uiso   1.00
O645   O     0.75725   0.50000   0.52928   0.00000  Uiso   1.00
O646   O     0.90942   0.50000   0.47072   0.00000  Uiso   1.00
O647   O     0.75725   0.50000   0.45284   0.00000  Uiso   1.00
O648   O     0.90942   0.50000   0.54716   0.00000  Uiso   1.00
Zn649  Zn    0.83333   0.49999   0.55104   0.00000  Uiso   1.00
Zn650  Zn    0.83333   0.50001   0.44896   0.00000  Uiso   1.00
O651   O     0.75755   0.62728   0.43690   0.00000  Uiso   1.00
H652   H     0.75005   0.59862   0.44742   0.00000  Uiso   1.00
O653   O     0.90911   0.37272   0.56310   0.00000  Uiso   1.00
H654   H     0.91662   0.40137   0.55257   0.00000  Uiso   1.00
C655   C     0.88301   0.56840   0.38344   0.00000  Uiso   1.00
H656   H     0.87539   0.59982   0.37021   0.00000  Uiso   1.00
O657   O     0.91667   0.56348   0.41612   0.00000  Uiso   1.00
C658   C     0.78366   0.43160   0.61656   0.00000  Uiso   1.00
H659   H     0.79127   0.40018   0.62979   0.00000  Uiso   1.00
O660   O     0.75000   0.43652   0.58388   0.00000  Uiso   1.00
C661   C     0.16786   0.75351   0.50024   0.00000  Uiso   1.00
C662   C     0.16548   0.91315   0.49976   0.00000  Uiso   1.00
C663   C     0.06717   0.83327   0.48815   0.00000  Uiso   1.00
C664   C     0.26616   0.83340   0.51185   0.00000  Uiso   1.00
C665   C     0.01215   0.83309   0.48178   0.00000  Uiso   1.00
C666   C     0.32118   0.83357   0.51822   0.00000  Uiso   1.00
C667   C     0.13276   0.68898   0.46797   0.00000  Uiso   1.00
C668   C     0.20057   0.97769   0.53203   0.00000  Uiso   1.00
C669   C     0.12936   0.97935   0.46773   0.00000  Uiso   1.00
C670   C     0.20397   0.68732   0.53227   0.00000  Uiso   1.00
C671   C     0.16439   0.95730   0.49975   0.00000  Uiso   1.00
C672   C     0.16894   0.70937   0.50025   0.00000  Uiso   1.00
C673   C     0.18966   0.86572   0.35905   0.00000  Uiso   1.00
C674   C     0.14367   0.80095   0.64095   0.00000  Uiso   1.00
C675   C     0.18892   0.86563   0.64467   0.00000  Uiso   1.00
C676   C     0.14441   0.80104   0.35533   0.00000  Uiso   1.00
H677   H     0.32513   0.83250   0.44715   0.00000  Uiso   1.00
H678   H     0.00820   0.83417   0.55285   0.00000  Uiso   1.00
H679   H     0.10574   0.70660   0.44390   0.00000  Uiso   1.00
H680   H     0.22758   0.96007   0.55610   0.00000  Uiso   1.00
H681   H     0.20711   0.89120   0.62813   0.00000  Uiso   1.00
H682   H     0.12622   0.77547   0.37187   0.00000  Uiso   1.00
N683   N     0.16665   0.83332   0.61907   0.00000  Uiso   1.00
N684   N     0.16668   0.83334   0.38093   0.00000  Uiso   1.00
O685   O     0.16666   0.77225   0.53821   0.00000  Uiso   1.00
O686   O     0.16667   0.89442   0.46179   0.00000  Uiso   1.00
O687   O     0.16666   0.77226   0.46176   0.00000  Uiso   1.00
O688   O     0.16667   0.89441   0.53824   0.00000  Uiso   1.00
O689   O     0.09058   0.83333   0.52928   0.00000  Uiso   1.00
O690   O     0.24275   0.83334   0.47072   0.00000  Uiso   1.00
O691   O     0.09058   0.83334   0.45284   0.00000  Uiso   1.00
O692   O     0.24275   0.83333   0.54716   0.00000  Uiso   1.00
Zn693  Zn    0.16667   0.83333   0.55104   0.00000  Uiso   1.00
Zn694  Zn    0.16667   0.83334   0.44896   0.00000  Uiso   1.00
O695   O     0.09088   0.96061   0.43690   0.00000  Uiso   1.00
H696   H     0.08338   0.93195   0.44742   0.00000  Uiso   1.00
O697   O     0.24244   0.70606   0.56310   0.00000  Uiso   1.00
H698   H     0.24996   0.73471   0.55257   0.00000  Uiso   1.00
C699   C     0.21634   0.90173   0.38344   0.00000  Uiso   1.00
H700   H     0.20873   0.93315   0.37021   0.00000  Uiso   1.00
O701   O     0.25000   0.89681   0.41612   0.00000  Uiso   1.00
C702   C     0.11699   0.76494   0.61656   0.00000  Uiso   1.00
H703   H     0.12461   0.73351   0.62979   0.00000  Uiso   1.00
O704   O     0.08333   0.76985   0.58388   0.00000  Uiso   1.00
C705   C     0.50119   0.75351   0.50024   0.00000  Uiso   1.00
C706   C     0.49881   0.91315   0.49976   0.00000  Uiso   1.00
C707   C     0.40051   0.83327   0.48815   0.00000  Uiso   1.00
C708   C     0.59949   0.83340   0.51185   0.00000  Uiso   1.00
C709   C     0.34549   0.83309   0.48178   0.00000  Uiso   1.00
C710   C     0.65451   0.83357   0.51822   0.00000  Uiso   1.00
C711   C     0.46609   0.68898   0.46797   0.00000  Uiso   1.00
C712   C     0.53390   0.97769   0.53203   0.00000  Uiso   1.00
C713   C     0.46269   0.97935   0.46773   0.00000  Uiso   1.00
C714   C     0.53730   0.68732   0.53227   0.00000  Uiso   1.00
C715   C     0.49772   0.95730   0.49975   0.00000  Uiso   1.00
C716   C     0.50227   0.70937   0.50025   0.00000  Uiso   1.00
C717   C     0.52300   0.86572   0.35905   0.00000  Uiso   1.00
C718   C     0.47700   0.80095   0.64095   0.00000  Uiso   1.00
C719   C     0.52226   0.86563   0.64467   0.00000  Uiso   1.00
C720   C     0.47774   0.80104   0.35533   0.00000  Uiso   1.00
H721   H     0.65846   0.83250   0.44715   0.00000  Uiso   1.00
H722   H     0.34154   0.83417   0.55285   0.00000  Uiso   1.00
H723   H     0.43908   0.70660   0.44390   0.00000  Uiso   1.00
H724   H     0.56092   0.96007   0.55610   0.00000  Uiso   1.00
H725   H     0.54044   0.89120   0.62813   0.00000  Uiso   1.00
H726   H     0.45955   0.77547   0.37187   0.00000  Uiso   1.00
N727   N     0.49999   0.83332   0.61907   0.00000  Uiso   1.00
N728   N     0.50001   0.83334   0.38093   0.00000  Uiso   1.00
O729   O     0.50000   0.77225   0.53821   0.00000  Uiso   1.00
O730   O     0.50000   0.89442   0.46179   0.00000  Uiso   1.00
O731   O     0.50000   0.77226   0.46176   0.00000  Uiso   1.00
O732   O     0.50000   0.89441   0.53824   0.00000  Uiso   1.00
O733   O     0.42392   0.83333   0.52928   0.00000  Uiso   1.00
O734   O     0.57608   0.83334   0.47072   0.00000  Uiso   1.00
O735   O     0.42392   0.83334   0.45284   0.00000  Uiso   1.00
O736   O     0.57608   0.83333   0.54716   0.00000  Uiso   1.00
Zn737  Zn    0.50000   0.83333   0.55104   0.00000  Uiso   1.00
Zn738  Zn    0.50000   0.83334   0.44896   0.00000  Uiso   1.00
O739   O     0.42421   0.96061   0.43690   0.00000  Uiso   1.00
H740   H     0.41672   0.93195   0.44742   0.00000  Uiso   1.00
O741   O     0.57577   0.70606   0.56310   0.00000  Uiso   1.00
H742   H     0.58329   0.73471   0.55257   0.00000  Uiso   1.00
C743   C     0.54967   0.90173   0.38344   0.00000  Uiso   1.00
H744   H     0.54206   0.93315   0.37021   0.00000  Uiso   1.00
O745   O     0.58333   0.89681   0.41612   0.00000  Uiso   1.00
C746   C     0.45033   0.76494   0.61656   0.00000  Uiso   1.00
H747   H     0.45794   0.73351   0.62979   0.00000  Uiso   1.00
O748   O     0.41667   0.76985   0.58388   0.00000  Uiso   1.00
C749   C     0.83452   0.75351   0.50024   0.00000  Uiso   1.00
C750   C     0.83214   0.91315   0.49976   0.00000  Uiso   1.00
C751   C     0.73384   0.83327   0.48815   0.00000  Uiso   1.00
C752   C     0.93283   0.83340   0.51185   0.00000  Uiso   1.00
C753   C     0.67882   0.83309   0.48178   0.00000  Uiso   1.00
C754   C     0.98785   0.83357   0.51822   0.00000  Uiso   1.00
C755   C     0.79942   0.68898   0.46797   0.00000  Uiso   1.00
C756   C     0.86724   0.97769   0.53203   0.00000  Uiso   1.00
C757   C     0.79602   0.97935   0.46773   0.00000  Uiso   1.00
C758   C     0.87063   0.68732   0.53227   0.00000  Uiso   1.00
C759   C     0.83106   0.95730   0.49975   0.00000  Uiso   1.00
C760   C     0.83560   0.70937   0.50025   0.00000  Uiso   1.00
C761   C     0.85633   0.86572   0.35905   0.00000  Uiso   1.00
C762   C     0.81034   0.80095   0.64095   0.00000  Uiso   1.00
C763   C     0.85559   0.86563   0.64467   0.00000  Uiso   1.00
C764   C     0.81108   0.80104   0.35533   0.00000  Uiso   1.00
H765   H     0.99180   0.83250   0.44715   0.00000  Uiso   1.00
H766   H     0.67487   0.83417   0.55285   0.00000  Uiso   1.00
H767   H     0.77241   0.70660   0.44390   0.00000  Uiso   1.00
H768   H     0.89425   0.96007   0.55610   0.00000  Uiso   1.00
H769   H     0.87378   0.89120   0.62813   0.00000  Uiso   1.00
H770   H     0.79289   0.77547   0.37187   0.00000  Uiso   1.00
N771   N     0.83332   0.83332   0.61907   0.00000  Uiso   1.00
N772   N     0.83335   0.83334   0.38093   0.00000  Uiso   1.00
O773   O     0.83333   0.77225   0.53821   0.00000  Uiso   1.00
O774   O     0.83334   0.89442   0.46179   0.00000  Uiso   1.00
O775   O     0.83333   0.77226   0.46176   0.00000  Uiso   1.00
O776   O     0.83334   0.89441   0.53824   0.00000  Uiso   1.00
O777   O     0.75725   0.83333   0.52928   0.00000  Uiso   1.00
O778   O     0.90942   0.83334   0.47072   0.00000  Uiso   1.00
O779   O     0.75725   0.83334   0.45284   0.00000  Uiso   1.00
O780   O     0.90942   0.83333   0.54716   0.00000  Uiso   1.00
Zn781  Zn    0.83333   0.83333   0.55104   0.00000  Uiso   1.00
Zn782  Zn    0.83333   0.83334   0.44896   0.00000  Uiso   1.00
O783   O     0.75755   0.96061   0.43690   0.00000  Uiso   1.00
H784   H     0.75005   0.93195   0.44742   0.00000  Uiso   1.00
O785   O     0.90911   0.70606   0.56310   0.00000  Uiso   1.00
H786   H     0.91662   0.73471   0.55257   0.00000  Uiso   1.00
C787   C     0.88301   0.90173   0.38344   0.00000  Uiso   1.00
H788   H     0.87539   0.93315   0.37021   0.00000  Uiso   1.00
O789   O     0.91667   0.89681   0.41612   0.00000  Uiso   1.00
C790   C     0.78366   0.76494   0.61656   0.00000  Uiso   1.00
H791   H     0.79127   0.73351   0.62979   0.00000  Uiso   1.00
O792   O     0.75000   0.76985   0.58388   0.00000  Uiso   1.00
C793   C     0.16786   0.08685   0.83358   0.00000  Uiso   1.00
C794   C     0.16548   0.24648   0.83309   0.00000  Uiso   1.00
C795   C     0.06717   0.16660   0.82149   0.00000  Uiso   1.00
C796   C     0.26616   0.16673   0.84518   0.00000  Uiso   1.00
C797   C     0.01215   0.16643   0.81512   0.00000  Uiso   1.00
C798   C     0.32118   0.16691   0.85155   0.00000  Uiso   1.00
C799   C     0.13276   0.02231   0.80130   0.00000  Uiso   1.00
C800   C     0.20057   0.31102   0.86536   0.00000  Uiso   1.00
C801   C     0.12936   0.31268   0.80107   0.00000  Uiso   1.00
C802   C     0.20397   0.02065   0.86560   0.00000  Uiso   1.00
C803   C     0.16439   0.29063   0.83308   0.00000  Uiso   1.00
C804   C     0.16894   0.04270   0.83358   0.00000  Uiso   1.00
C805   C     0.18966   0.19905   0.69238   0.00000  Uiso   1.00
C806   C     0.14367   0.13428   0.97429   0.00000  Uiso   1.00
C807   C     0.18892   0.19896   0.97800   0.00000  Uiso   1.00
C808   C     0.14441   0.13437   0.68866   0.00000  Uiso   1.00
H809   H     0.32513   0.16583   0.78048   0.00000  Uiso   1.00
H810   H     0.00820   0.16750   0.88618   0.00000  Uiso   1.00
H811   H     0.10574   0.03993   0.77724   0.00000  Uiso   1.00
H812   H     0.22758   0.29340   0.88943   0.00000  Uiso   1.00
H813   H     0.20711   0.22453   0.96147   0.00000  Uiso   1.00
H814   H     0.12622   0.10880   0.70520   0.00000  Uiso   1.00
N815   N     0.16665   0.16666   0.95240   0.00000  Uiso   1.00
N816   N     0.16668   0.16668   0.71427   0.00000  Uiso   1.00
O817   O     0.16666   0.10558   0.87154   0.00000  Uiso   1.00
O818   O     0.16667   0.22775   0.79513   0.00000  Uiso   1.00
O819   O     0.16666   0.10559   0.79510   0.00000  Uiso   1.00
O820   O     0.16667   0.22774   0.87157   0.00000  Uiso   1.00
O821   O     0.09058   0.16666   0.86261   0.00000  Uiso   1.00
O822   O     0.24275   0.16667   0.80405   0.00000  Uiso   1.00
O823   O     0.09058   0.16667   0.78617   0.00000  Uiso   1.00
O824   O     0.24275   0.16666   0.88050   0.00000  Uiso   1.00
Zn825  Zn    0.16667   0.16666   0.88437   0.00000  Uiso   1.00
Zn826  Zn    0.16667   0.16667   0.78229   0.00000  Uiso   1.00
O827   O     0.09088   0.29395   0.77024   0.00000  Uiso   1.00
H828   H     0.08338   0.26528   0.78076   0.00000  Uiso   1.00
O829   O     0.24244   0.03939   0.89643   0.00000  Uiso   1.00
H830   H     0.24996   0.06804   0.88590   0.00000  Uiso   1.00
C831   C     0.21634   0.23506   0.71678   0.00000  Uiso   1.00
H832   H     0.20873   0.26649   0.70354   0.00000  Uiso   1.00
O833   O     0.25000   0.23015   0.74946   0.00000  Uiso   1.00
C834   C     0.11699   0.09827   0.94989   0.00000  Uiso   1.00
H835   H     0.12461   0.06685   0.96312   0.00000  Uiso   1.00
O836   O     0.08333   0.10319   0.91721   0.00000  Uiso   1.00
C837   C     0.50119   0.08685   0.83358   0.00000  Uiso   1.00
C838   C     0.49881   0.24648   0.83309   0.00000  Uiso   1.00
C839   C     0.40051   0.16660   0.82149   0.00000  Uiso   1.00
C840   C     0.59949   0.16673   0.84518   0.00000  Uiso   1.00
C841   C     0.34549   0.16643   0.81512   0.00000  Uiso   1.00
C842   C     0.65451   0.16691   0.85155   0.00000  Uiso   1.00
C843   C     0.46609   0.02231   0.80130   0.00000  Uiso   1.00
C844   C     0.53390   0.31102   0.86536   0.00000  Uiso   1.00
C845   C     0.46269   0.31268   0.80107   0.00000  Uiso   1.00
C846   C     0.53730   0.02065   0.86560   0.00000  Uiso   1.00
C847   C     0.49772   0.29063   0.83308   0.00000  Uiso   1.00
C848   C     0.50227   0.04270   0.83358   0.00000  Uiso   1.00
C849   C     0.52300   0.19905   0.69238   0.00000  Uiso   1.00
C850   C     0.47700   0.13428   0.97429   0.00000  Uiso   1.00
C851   C     0.52226   0.19896   0.97800   0.00000  Uiso   1.00
C852   C     0.47774   0.13437   0.68866   0.00000  Uiso   1.00
H853   H     0.65846   0.16583   0.78048   0.00000  Uiso   1.00
H854   H     0.34154   0.16750   0.88618   0.00000  Uiso   1.00
H855   H     0.43908   0.03993   0.77724   0.00000  Uiso   1.00
H856   H     0.56092   0.29340   0.88943   0.00000  Uiso   1.00
H857   H     0.54044   0.22453   0.96147   0.00000  Uiso   1.00
H858   H     0.45955   0.10880   0.70520   0.00000  Uiso   1.00
N859   N     0.49999   0.16666   0.95240   0.00000  Uiso   1.00
N860   N     0.50001   0.16668   0.71427   0.00000  Uiso   1.00
O861   O     0.50000   0.10558   0.87154   0.00000  Uiso   1.00
O862   O     0.50000   0.22775   0.79513   0.00000  Uiso   1.00
O863   O     0.50000   0.10559   0.79510   0.00000  Uiso   1.00
O864   O     0.50000   0.22774   0.87157   0.00000  Uiso   1.00
O865   O     0.42392   0.16666   0.86261   0.00000  Uiso   1.00
O866   O     0.57608   0.16667   0.80405   0.00000  Uiso   1.00
O867   O     0.42392   0.16667   0.78617   0.00000  Uiso   1.00
O868   O     0.57608   0.16666   0.88050   0.00000  Uiso   1.00
Zn869  Zn    0.50000   0.16666   0.88437   0.00000  Uiso   1.00
Zn870  Zn    0.50000   0.16667   0.78229   0.00000  Uiso   1.00
O871   O     0.42421   0.29395   0.77024   0.00000  Uiso   1.00
H872   H     0.41672   0.26528   0.78076   0.00000  Uiso   1.00
O873   O     0.57577   0.03939   0.89643   0.00000  Uiso   1.00
H874   H     0.58329   0.06804   0.88590   0.00000  Uiso   1.00
C875   C     0.54967   0.23506   0.71678   0.00000  Uiso   1.00
H876   H     0.54206   0.26649   0.70354   0.00000  Uiso   1.00
O877   O     0.58333   0.23015   0.74946   0.00000  Uiso   1.00
C878   C     0.45033   0.09827   0.94989   0.00000  Uiso   1.00
H879   H     0.45794   0.06685   0.96312   0.00000  Uiso   1.00
O880   O     0.41667   0.10319   0.91721   0.00000  Uiso   1.00
C881   C     0.83452   0.08685   0.83358   0.00000  Uiso   1.00
C882   C     0.83214   0.24648   0.83309   0.00000  Uiso   1.00
C883   C     0.73384   0.16660   0.82149   0.00000  Uiso   1.00
C884   C     0.93283   0.16673   0.84518   0.00000  Uiso   1.00
C885   C     0.67882   0.16643   0.81512   0.00000  Uiso   1.00
C886   C     0.98785   0.16691   0.85155   0.00000  Uiso   1.00
C887   C     0.79942   0.02231   0.80130   0.00000  Uiso   1.00
C888   C     0.86724   0.31102   0.86536   0.00000  Uiso   1.00
C889   C     0.79602   0.31268   0.80107   0.00000  Uiso   1.00
C890   C     0.87063   0.02065   0.86560   0.00000  Uiso   1.00
C891   C     0.83106   0.29063   0.83308   0.00000  Uiso   1.00
C892   C     0.83560   0.04270   0.83358   0.00000  Uiso   1.00
C893   C     0.85633   0.19905   0.69238   0.00000  Uiso   1.00
C894   C     0.81034   0.13428   0.97429   0.00000  Uiso   1.00
C895   C     0.85559   0.19896   0.97800   0.00000  Uiso   1.00
C896   C     0.81108   0.13437   0.68866   0.00000  Uiso   1.00
H897   H     0.99180   0.16583   0.78048   0.00000  Uiso   1.00
H898   H     0.67487   0.16750   0.88618   0.00000  Uiso   1.00
H899   H     0.77241   0.03993   0.77724   0.00000  Uiso   1.00
H900   H     0.89425   0.29340   0.88943   0.00000  Uiso   1.00
H901   H     0.87378   0.22453   0.96147   0.00000  Uiso   1.00
H902   H     0.79289   0.10880   0.70520   0.00000  Uiso   1.00
N903   N     0.83332   0.16666   0.95240   0.00000  Uiso   1.00
N904   N     0.83335   0.16668   0.71427   0.00000  Uiso   1.00
O905   O     0.83333   0.10558   0.87154   0.00000  Uiso   1.00
O906   O     0.83334   0.22775   0.79513   0.00000  Uiso   1.00
O907   O     0.83333   0.10559   0.79510   0.00000  Uiso   1.00
O908   O     0.83334   0.22774   0.87157   0.00000  Uiso   1.00
O909   O     0.75725   0.16666   0.86261   0.00000  Uiso   1.00
O910   O     0.90942   0.16667   0.80405   0.00000  Uiso   1.00
O911   O     0.75725   0.16667   0.78617   0.00000  Uiso   1.00
O912   O     0.90942   0.16666   0.88050   0.00000  Uiso   1.00
Zn913  Zn    0.83333   0.16666   0.88437   0.00000  Uiso   1.00
Zn914  Zn    0.83333   0.16667   0.78229   0.00000  Uiso   1.00
O915   O     0.75755   0.29395   0.77024   0.00000  Uiso   1.00
H916   H     0.75005   0.26528   0.78076   0.00000  Uiso   1.00
O917   O     0.90911   0.03939   0.89643   0.00000  Uiso   1.00
H918   H     0.91662   0.06804   0.88590   0.00000  Uiso   1.00
C919   C     0.88301   0.23506   0.71678   0.00000  Uiso   1.00
H920   H     0.87539   0.26649   0.70354   0.00000  Uiso   1.00
O921   O     0.91667   0.23015   0.74946   0.00000  Uiso   1.00
C922   C     0.78366   0.09827   0.94989   0.00000  Uiso   1.00
H923   H     0.79127   0.06685   0.96312   0.00000  Uiso   1.00
O924   O     0.75000   0.10319   0.91721   0.00000  Uiso   1.00
C925   C     0.16786   0.42018   0.83358   0.00000  Uiso   1.00
C926   C     0.16548   0.57982   0.83309   0.00000  Uiso   1.00
C927   C     0.06717   0.49993   0.82149   0.00000  Uiso   1.00
C928   C     0.26616   0.50007   0.84518   0.00000  Uiso   1.00
C929   C     0.01215   0.49976   0.81512   0.00000  Uiso   1.00
C930   C     0.32118   0.50024   0.85155   0.00000  Uiso   1.00
C931   C     0.13276   0.35564   0.80130   0.00000  Uiso   1.00
C932   C     0.20057   0.64436   0.86536   0.00000  Uiso   1.00
C933   C     0.12936   0.64602   0.80107   0.00000  Uiso   1.00
C934   C     0.20397   0.35398   0.86560   0.00000  Uiso   1.00
C935   C     0.16439   0.62397   0.83308   0.00000  Uiso   1.00
C936   C     0.16894   0.37603   0.83358   0.00000  Uiso   1.00
C937   C     0.18966   0.53239   0.69238   0.00000  Uiso   1.00
C938   C     0.14367   0.46761   0.97429   0.00000  Uiso   1.00
C939   C     0.18892   0.53230   0.97800   0.00000  Uiso   1.00
C940   C     0.14441   0.46770   0.68866   0.00000  Uiso   1.00
H941   H     0.32513   0.49916   0.78048   0.00000  Uiso   1.00
H942   H     0.00820   0.50084   0.88618   0.00000  Uiso   1.00
H943   H     0.10574   0.37327   0.77724   0.00000  Uiso   1.00
H944   H     0.22758   0.62673   0.88943   0.00000  Uiso   1.00
H945   H     0.20711   0.55786   0.96147   0.00000  Uiso   1.00
H946   H     0.12622   0.44214   0.70520   0.00000  Uiso   1.00
N947   N     0.16665   0.49999   0.95240   0.00000  Uiso   1.00
N948   N     0.16668   0.50001   0.71427   0.00000  Uiso   1.00
O949   O     0.16666   0.43892   0.87154   0.00000  Uiso   1.00
O950   O     0.16667   0.56108   0.79513   0.00000  Uiso   1.00
O951   O     0.16666   0.43893   0.79510   0.00000  Uiso   1.00
O952   O     0.16667   0.56107   0.87157   0.00000  Uiso   1.00
O953   O     0.09058   0.50000   0.86261   0.00000  Uiso   1.00
O954   O     0.24275   0.50000   0.80405   0.00000  Uiso   1.00
O955   O     0.09058   0.50000   0.78617   0.00000  Uiso   1.00
O956   O     0.24275   0.50000   0.88050   0.00000  Uiso   1.00
Zn957  Zn    0.16667   0.49999   0.88437   0.00000  Uiso   1.00
Zn958  Zn    0.16667   0.50001   0.78229   0.00000  Uiso   1.00
O959   O     0.09088   0.62728   0.77024   0.00000  Uiso   1.00
H960   H     0.08338   0.59862   0.78076   0.00000  Uiso   1.00
O961   O     0.24244   0.37272   0.89643   0.00000  Uiso   1.00
H962   H     0.24996   0.40137   0.88590   0.00000  Uiso   1.00
C963   C     0.21634   0.56840   0.71678   0.00000  Uiso   1.00
H964   H     0.20873   0.59982   0.70354   0.00000  Uiso   1.00
O965   O     0.25000   0.56348   0.74946   0.00000  Uiso   1.00
C966   C     0.11699   0.43160   0.94989   0.00000  Uiso   1.00
H967   H     0.12461   0.40018   0.96312   0.00000  Uiso   1.00
O968   O     0.08333   0.43652   0.91721   0.00000  Uiso   1.00
C969   C     0.50119   0.42018   0.83358   0.00000  Uiso   1.00
C970   C     0.49881   0.57982   0.83309   0.00000  Uiso   1.00
C971   C     0.40051   0.49993   0.82149   0.00000  Uiso   1.00
C972   C     0.59949   0.50007   0.84518   0.00000  Uiso   1.00
C973   C     0.34549   0.49976   0.81512   0.00000  Uiso   1.00
C974   C     0.65451   0.50024   0.85155   0.00000  Uiso   1.00
C975   C     0.46609   0.35564   0.80130   0.00000  Uiso   1.00
C976   C     0.53390   0.64436   0.86536   0.00000  Uiso   1.00
C977   C     0.46269   0.64602   0.80107   0.00000  Uiso   1.00
C978   C     0.53730   0.35398   0.86560   0.00000  Uiso   1.00
C979   C     0.49772   0.62397   0.83308   0.00000  Uiso   1.00
C980   C     0.50227   0.37603   0.83358   0.00000  Uiso   1.00
C981   C     0.52300   0.53239   0.69238   0.00000  Uiso   1.00
C982   C     0.47700   0.46761   0.97429   0.00000  Uiso   1.00
C983   C     0.52226   0.53230   0.97800   0.00000  Uiso   1.00
C984   C     0.47774   0.46770   0.68866   0.00000  Uiso   1.00
H985   H     0.65846   0.49916   0.78048   0.00000  Uiso   1.00
H986   H     0.34154   0.50084   0.88618   0.00000  Uiso   1.00
H987   H     0.43908   0.37327   0.77724   0.00000  Uiso   1.00
H988   H     0.56092   0.62673   0.88943   0.00000  Uiso   1.00
H989   H     0.54044   0.55786   0.96147   0.00000  Uiso   1.00
H990   H     0.45955   0.44214   0.70520   0.00000  Uiso   1.00
N991   N     0.49999   0.49999   0.95240   0.00000  Uiso   1.00
N992   N     0.50001   0.50001   0.71427   0.00000  Uiso   1.00
O993   O     0.50000   0.43892   0.87154   0.00000  Uiso   1.00
O994   O     0.50000   0.56108   0.79513   0.00000  Uiso   1.00
O995   O     0.50000   0.43893   0.79510   0.00000  Uiso   1.00
O996   O     0.50000   0.56107   0.87157   0.00000  Uiso   1.00
O997   O     0.42392   0.50000   0.86261   0.00000  Uiso   1.00
O998   O     0.57608   0.50000   0.80405   0.00000  Uiso   1.00
O999   O     0.42392   0.50000   0.78617   0.00000  Uiso   1.00
O1000  O     0.57608   0.50000   0.88050   0.00000  Uiso   1.00
Zn1001 Zn    0.50000   0.49999   0.88437   0.00000  Uiso   1.00
Zn1002 Zn    0.50000   0.50001   0.78229   0.00000  Uiso   1.00
O1003  O     0.42421   0.62728   0.77024   0.00000  Uiso   1.00
H1004  H     0.41672   0.59862   0.78076   0.00000  Uiso   1.00
O1005  O     0.57577   0.37272   0.89643   0.00000  Uiso   1.00
H1006  H     0.58329   0.40137   0.88590   0.00000  Uiso   1.00
C1007  C     0.54967   0.56840   0.71678   0.00000  Uiso   1.00
H1008  H     0.54206   0.59982   0.70354   0.00000  Uiso   1.00
O1009  O     0.58333   0.56348   0.74946   0.00000  Uiso   1.00
C1010  C     0.45033   0.43160   0.94989   0.00000  Uiso   1.00
H1011  H     0.45794   0.40018   0.96312   0.00000  Uiso   1.00
O1012  O     0.41667   0.43652   0.91721   0.00000  Uiso   1.00
C1013  C     0.83452   0.42018   0.83358   0.00000  Uiso   1.00
C1014  C     0.83214   0.57982   0.83309   0.00000  Uiso   1.00
C1015  C     0.73384   0.49993   0.82149   0.00000  Uiso   1.00
C1016  C     0.93283   0.50007   0.84518   0.00000  Uiso   1.00
C1017  C     0.67882   0.49976   0.81512   0.00000  Uiso   1.00
C1018  C     0.98785   0.50024   0.85155   0.00000  Uiso   1.00
C1019  C     0.79942   0.35564   0.80130   0.00000  Uiso   1.00
C1020  C     0.86724   0.64436   0.86536   0.00000  Uiso   1.00
C1021  C     0.79602   0.64602   0.80107   0.00000  Uiso   1.00
C1022  C     0.87063   0.35398   0.86560   0.00000  Uiso   1.00
C1023  C     0.83106   0.62397   0.83308   0.00000  Uiso   1.00
C1024  C     0.83560   0.37603   0.83358   0.00000  Uiso   1.00
C1025  C     0.85633   0.53239   0.69238   0.00000  Uiso   1.00
C1026  C     0.81034   0.46761   0.97429   0.00000  Uiso   1.00
C1027  C     0.85559   0.53230   0.97800   0.00000  Uiso   1.00
C1028  C     0.81108   0.46770   0.68866   0.00000  Uiso   1.00
H1029  H     0.99180   0.49916   0.78048   0.00000  Uiso   1.00
H1030  H     0.67487   0.50084   0.88618   0.00000  Uiso   1.00
H1031  H     0.77241   0.37327   0.77724   0.00000  Uiso   1.00
H1032  H     0.89425   0.62673   0.88943   0.00000  Uiso   1.00
H1033  H     0.87378   0.55786   0.96147   0.00000  Uiso   1.00
H1034  H     0.79289   0.44214   0.70520   0.00000  Uiso   1.00
N1035  N     0.83332   0.49999   0.95240   0.00000  Uiso   1.00
N1036  N     0.83335   0.50001   0.71427   0.00000  Uiso   1.00
O1037  O     0.83333   0.43892   0.87154   0.00000  Uiso   1.00
O1038  O     0.83334   0.56108   0.79513   0.00000  Uiso   1.00
O1039  O     0.83333   0.43893   0.79510   0.00000  Uiso   1.00
O1040  O     0.83334   0.56107   0.87157   0.00000  Uiso   1.00
O1041  O     0.75725   0.50000   0.86261   0.00000  Uiso   1.00
O1042  O     0.90942   0.50000   0.80405   0.00000  Uiso   1.00
O1043  O     0.75725   0.50000   0.78617   0.00000  Uiso   1.00
O1044  O     0.90942   0.50000   0.88050   0.00000  Uiso   1.00
Zn1045 Zn    0.83333   0.49999   0.88437   0.00000  Uiso   1.00
Zn1046 Zn    0.83333   0.50001   0.78229   0.00000  Uiso   1.00
O1047  O     0.75755   0.62728   0.77024   0.00000  Uiso   1.00
H1048  H     0.75005   0.59862   0.78076   0.00000  Uiso   1.00
O1049  O     0.90911   0.37272   0.89643   0.00000  Uiso   1.00
H1050  H     0.91662   0.40137   0.88590   0.00000  Uiso   1.00
C1051  C     0.88301   0.56840   0.71678   0.00000  Uiso   1.00
H1052  H     0.87539   0.59982   0.70354   0.00000  Uiso   1.00
O1053  O     0.91667   0.56348   0.74946   0.00000  Uiso   1.00
C1054  C     0.78366   0.43160   0.94989   0.00000  Uiso   1.00
H1055  H     0.79127   0.40018   0.96312   0.00000  Uiso   1.00
O1056  O     0.75000   0.43652   0.91721   0.00000  Uiso   1.00
C1057  C     0.16786   0.75351   0.83358   0.00000  Uiso   1.00
C1058  C     0.16548   0.91315   0.83309   0.00000  Uiso   1.00
C1059  C     0.06717   0.83327   0.82149   0.00000  Uiso   1.00
C1060  C     0.26616   0.83340   0.84518   0.00000  Uiso   1.00
C1061  C     0.01215   0.83309   0.81512   0.00000  Uiso   1.00
C1062  C     0.32118   0.83357   0.85155   0.00000  Uiso   1.00
C1063  C     0.13276   0.68898   0.80130   0.00000  Uiso   1.00
C1064  C     0.20057   0.97769   0.86536   0.00000  Uiso   1.00
C1065  C     0.12936   0.97935   0.80107   0.00000  Uiso   1.00
C1066  C     0.20397   0.68732   0.86560   0.00000  Uiso   1.00
C1067  C     0.16439   0.95730   0.83308   0.00000  Uiso   1.00
C1068  C     0.16894   0.70937   0.83358   0.00000  Uiso   1.00
C1069  C     0.18966   0.86572   0.69238   0.00000  Uiso   1.00
C1070  C     0.14367   0.80095   0.97429   0.00000  Uiso   1.00
C1071  C     0.18892   0.86563   0.97800   0.00000  Uiso   1.00
C1072  C     0.14441   0.80104   0.68866   0.00000  Uiso   1.00
H1073  H     0.32513   0.83250   0.78048   0.00000  Uiso   1.00
H1074  H     0.00820   0.83417   0.88618   0.00000  Uiso   1.00
H1075  H     0.10574   0.70660   0.77724   0.00000  Uiso   1.00
H1076  H     0.22758   0.96007   0.88943   0.00000  Uiso   1.00
H1077  H     0.20711   0.89120   0.96147   0.00000  Uiso   1.00
H1078  H     0.12622   0.77547   0.70520   0.00000  Uiso   1.00
N1079  N     0.16665   0.83332   0.95240   0.00000  Uiso   1.00
N1080  N     0.16668   0.83334   0.71427   0.00000  Uiso   1.00
O1081  O     0.16666   0.77225   0.87154   0.00000  Uiso   1.00
O1082  O     0.16667   0.89442   0.79513   0.00000  Uiso   1.00
O1083  O     0.16666   0.77226   0.79510   0.00000  Uiso   1.00
O1084  O     0.16667   0.89441   0.87157   0.00000  Uiso   1.00
O1085  O     0.09058   0.83333   0.86261   0.00000  Uiso   1.00
O1086  O     0.24275   0.83334   0.80405   0.00000  Uiso   1.00
O1087  O     0.09058   0.83334   0.78617   0.00000  Uiso   1.00
O1088  O     0.24275   0.83333   0.88050   0.00000  Uiso   1.00
Zn1089 Zn    0.16667   0.83333   0.88437   0.00000  Uiso   1.00
Zn1090 Zn    0.16667   0.83334   0.78229   0.00000  Uiso   1.00
O1091  O     0.09088   0.96061   0.77024   0.00000  Uiso   1.00
H1092  H     0.08338   0.93195   0.78076   0.00000  Uiso   1.00
O1093  O     0.24244   0.70606   0.89643   0.00000  Uiso   1.00
H1094  H     0.24996   0.73471   0.88590   0.00000  Uiso   1.00
C1095  C     0.21634   0.90173   0.71678   0.00000  Uiso   1.00
H1096  H     0.20873   0.93315   0.70354   0.00000  Uiso   1.00
O1097  O     0.25000   0.89681   0.74946   0.00000  Uiso   1.00
C1098  C     0.11699   0.76494   0.94989   0.00000  Uiso   1.00
H1099  H     0.12461   0.73351   0.96312   0.00000  Uiso   1.00
O1100  O     0.08333   0.76985   0.91721   0.00000  Uiso   1.00
C1101  C     0.50119   0.75351   0.83358   0.00000  Uiso   1.00
C1102  C     0.49881   0.91315   0.83309   0.00000  Uiso   1.00
C1103  C     0.40051   0.83327   0.82149   0.00000  Uiso   1.00
C1104  C     0.59949   0.83340   0.84518   0.00000  Uiso   1.00
C1105  C     0.34549   0.83309   0.81512   0.00000  Uiso   1.00
C1106  C     0.65451   0.83357   0.85155   0.00000  Uiso   1.00
C1107  C     0.46609   0.68898   0.80130   0.00000  Uiso   1.00
C1108  C     0.53390   0.97769   0.86536   0.00000  Uiso   1.00
C1109  C     0.46269   0.97935   0.80107   0.00000  Uiso   1.00
C1110  C     0.53730   0.68732   0.86560   0.00000  Uiso   1.00
C1111  C     0.49772   0.95730   0.83308   0.00000  Uiso   1.00
C1112  C     0.50227   0.70937   0.83358   0.00000  Uiso   1.00
C1113  C     0.52300   0.86572   0.69238   0.00000  Uiso   1.00
C1114  C     0.47700   0.80095   0.97429   0.00000  Uiso   1.00
C1115  C     0.52226   0.86563   0.97800   0.00000  Uiso   1.00
C1116  C     0.47774   0.80104   0.68866   0.00000  Uiso   1.00
H1117  H     0.65846   0.83250   0.78048   0.00000  Uiso   1.00
H1118  H     0.34154   0.83417   0.88618   0.00000  Uiso   1.00
H1119  H     0.43908   0.70660   0.77724   0.00000  Uiso   1.00
H1120  H     0.56092   0.96007   0.88943   0.00000  Uiso   1.00
H1121  H     0.54044   0.89120   0.96147   0.00000  Uiso   1.00
H1122  H     0.45955   0.77547   0.70520   0.00000  Uiso   1.00
N1123  N     0.49999   0.83332   0.95240   0.00000  Uiso   1.00
N1124  N     0.50001   0.83334   0.71427   0.00000  Uiso   1.00
O1125  O     0.50000   0.77225   0.87154   0.00000  Uiso   1.00
O1126  O     0.50000   0.89442   0.79513   0.00000  Uiso   1.00
O1127  O     0.50000   0.77226   0.79510   0.00000  Uiso   1.00
O1128  O     0.50000   0.89441   0.87157   0.00000  Uiso   1.00
O1129  O     0.42392   0.83333   0.86261   0.00000  Uiso   1.00
O1130  O     0.57608   0.83334   0.80405   0.00000  Uiso   1.00
O1131  O     0.42392   0.83334   0.78617   0.00000  Uiso   1.00
O1132  O     0.57608   0.83333   0.88050   0.00000  Uiso   1.00
Zn1133 Zn    0.50000   0.83333   0.88437   0.00000  Uiso   1.00
Zn1134 Zn    0.50000   0.83334   0.78229   0.00000  Uiso   1.00
O1135  O     0.42421   0.96061   0.77024   0.00000  Uiso   1.00
H1136  H     0.41672   0.93195   0.78076   0.00000  Uiso   1.00
O1137  O     0.57577   0.70606   0.89643   0.00000  Uiso   1.00
H1138  H     0.58329   0.73471   0.88590   0.00000  Uiso   1.00
C1139  C     0.54967   0.90173   0.71678   0.00000  Uiso   1.00
H1140  H     0.54206   0.93315   0.70354   0.00000  Uiso   1.00
O1141  O     0.58333   0.89681   0.74946   0.00000  Uiso   1.00
C1142  C     0.45033   0.76494   0.94989   0.00000  Uiso   1.00
H1143  H     0.45794   0.73351   0.96312   0.00000  Uiso   1.00
O1144  O     0.41667   0.76985   0.91721   0.00000  Uiso   1.00
C1145  C     0.83452   0.75351   0.83358   0.00000  Uiso   1.00
C1146  C     0.83214   0.91315   0.83309   0.00000  Uiso   1.00
C1147  C     0.73384   0.83327   0.82149   0.00000  Uiso   1.00
C1148  C     0.93283   0.83340   0.84518   0.00000  Uiso   1.00
C1149  C     0.67882   0.83309   0.81512   0.00000  Uiso   1.00
C1150  C     0.98785   0.83357   0.85155   0.00000  Uiso   1.00
C1151  C     0.79942   0.68898   0.80130   0.00000  Uiso   1.00
C1152  C     0.86724   0.97769   0.86536   0.00000  Uiso   1.00
C1153  C     0.79602   0.97935   0.80107   0.00000  Uiso   1.00
C1154  C     0.87063   0.68732   0.86560   0.00000  Uiso   1.00
C1155  C     0.83106   0.95730   0.83308   0.00000  Uiso   1.00
C1156  C     0.83560   0.70937   0.83358   0.00000  Uiso   1.00
C1157  C     0.85633   0.86572   0.69238   0.00000  Uiso   1.00
C1158  C     0.81034   0.80095   0.97429   0.00000  Uiso   1.00
C1159  C     0.85559   0.86563   0.97800   0.00000  Uiso   1.00
C1160  C     0.81108   0.80104   0.68866   0.00000  Uiso   1.00
H1161  H     0.99180   0.83250   0.78048   0.00000  Uiso   1.00
H1162  H     0.67487   0.83417   0.88618   0.00000  Uiso   1.00
H1163  H     0.77241   0.70660   0.77724   0.00000  Uiso   1.00
H1164  H     0.89425   0.96007   0.88943   0.00000  Uiso   1.00
H1165  H     0.87378   0.89120   0.96147   0.00000  Uiso   1.00
H1166  H     0.79289   0.77547   0.70520   0.00000  Uiso   1.00
N1167  N     0.83332   0.83332   0.95240   0.00000  Uiso   1.00
N1168  N     0.83335   0.83334   0.71427   0.00000  Uiso   1.00
O1169  O     0.83333   0.77225   0.87154   0.00000  Uiso   1.00
O1170  O     0.83334   0.89442   0.79513   0.00000  Uiso   1.00
O1171  O     0.83333   0.77226   0.79510   0.00000  Uiso   1.00
O1172  O     0.83334   0.89441   0.87157   0.00000  Uiso   1.00
O1173  O     0.75725   0.83333   0.86261   0.00000  Uiso   1.00
O1174  O     0.90942   0.83334   0.80405   0.00000  Uiso   1.00
O1175  O     0.75725   0.83334   0.78617   0.00000  Uiso   1.00
O1176  O     0.90942   0.83333   0.88050   0.00000  Uiso   1.00
Zn1177 Zn    0.83333   0.83333   0.88437   0.00000  Uiso   1.00
Zn1178 Zn    0.83333   0.83334   0.78229   0.00000  Uiso   1.00
O1179  O     0.75755   0.96061   0.77024   0.00000  Uiso   1.00
H1180  H     0.75005   0.93195   0.78076   0.00000  Uiso   1.00
O1181  O     0.90911   0.70606   0.89643   0.00000  Uiso   1.00
H1182  H     0.91662   0.73471   0.88590   0.00000  Uiso   1.00
C1183  C     0.88301   0.90173   0.71678   0.00000  Uiso   1.00
H1184  H     0.87539   0.93315   0.70354   0.00000  Uiso   1.00
O1185  O     0.91667   0.89681   0.74946   0.00000  Uiso   1.00
C1186  C     0.78366   0.76494   0.94989   0.00000  Uiso   1.00
H1187  H     0.79127   0.73351   0.96312   0.00000  Uiso   1.00
O1188  O     0.75000   0.76985   0.91721   0.00000  Uiso   1.00
loop_
_geom_bond_atom_site_label_1
_geom_bond_atom_site_label_2
_geom_bond_distance
_geom_bond_site_symmetry_2
_ccdc_geom_bond_type
C1     O25     1.288   .     A
C1     C12     1.410   .     S
C1     O27     1.284   .     A
C2     O28     1.284   .     A
C2     O26     1.288   .     A
C2     C11     1.410   .     S
C3     O31     1.285   .     A
C3     O29     1.285   .     A
C3     C5      1.402   .     S
C4     O32     1.285   .     A
C4     C6      1.402   .     S
C4     O30     1.285   .     A
C5     C94     1.328   1_455 S
C5     H105    1.088   1_455 S
C6     C49     1.328   .     S
C6     H62     1.088   .     S
C7     H19     1.085   .     S
C7     C12     1.396   .     A
C7     C273    1.373   1_545 S
C8     H20     1.085   .     S
C8     C11     1.396   .     A
C8     C142    1.373   .     S
C9     C11     1.408   .     A
C9     O35     1.382   .     S
C9     C139    1.373   .     S
C10    C12     1.408   .     A
C10    O37     1.382   .     S
C10    C272    1.373   1_545 S
C13    C39     1.471   .     S
C13    N24     1.385   .     A
C13    C807    1.418   1_554 S
C14    N23     1.385   .     A
C14    C42     1.471   .     S
C14    C412    1.418   .     S
C15    N23     1.357   .     A
C15    H21     1.083   .     S
C15    C409    1.418   .     S
C16    N24     1.357   .     A
C16    H22     1.083   .     S
C16    C806    1.418   1_554 S
H17    C49     1.088   .     S
H18    C94     1.088   1_455 S
N23    Zn33    2.025   .     S
N24    Zn34    2.025   .     S
O25    Zn33    1.991   .     S
O26    Zn34    1.991   .     S
O27    Zn34    1.984   .     S
O28    Zn33    1.984   .     S
O29    Zn33    1.973   .     S
O30    Zn34    1.973   .     S
O31    Zn34    1.979   .     S
O32    Zn33    1.979   .     S
O35    H36     0.989   .     S
O37    H38     0.989   .     S
C39    O41     1.218   .     D
C39    H40     1.085   .     S
C42    O44     1.218   .     D
C42    H43     1.085   .     S
C45    O69     1.288   .     A
C45    C56     1.410   .     S
C45    O71     1.284   .     A
C46    O72     1.284   .     A
C46    O70     1.288   .     A
C46    C55     1.410   .     S
C47    O75     1.285   .     A
C47    O73     1.285   .     A
C47    C49     1.402   .     S
C48    O76     1.285   .     A
C48    C50     1.402   .     S
C48    O74     1.285   .     A
C50    C93     1.328   .     S
C50    H106    1.088   .     S
C51    H63     1.085   .     S
C51    C56     1.396   .     A
C51    C317    1.373   1_545 S
C52    H64     1.085   .     S
C52    C55     1.396   .     A
C52    C186    1.373   .     S
C53    C55     1.408   .     A
C53    O79     1.382   .     S
C53    C183    1.373   .     S
C54    C56     1.408   .     A
C54    O81     1.382   .     S
C54    C316    1.373   1_545 S
C57    C83     1.471   .     S
C57    N68     1.385   .     A
C57    C851    1.418   1_554 S
C58    N67     1.385   .     A
C58    C86     1.471   .     S
C58    C456    1.418   .     S
C59    N67     1.357   .     A
C59    H65     1.083   .     S
C59    C453    1.418   .     S
C60    N68     1.357   .     A
C60    H66     1.083   .     S
C60    C850    1.418   1_554 S
H61    C93     1.088   .     S
N67    Zn77    2.025   .     S
N68    Zn78    2.025   .     S
O69    Zn77    1.991   .     S
O70    Zn78    1.991   .     S
O71    Zn78    1.984   .     S
O72    Zn77    1.984   .     S
O73    Zn77    1.973   .     S
O74    Zn78    1.973   .     S
O75    Zn78    1.979   .     S
O76    Zn77    1.979   .     S
O79    H80     0.989   .     S
O81    H82     0.989   .     S
C83    O85     1.218   .     D
C83    H84     1.085   .     S
C86    O88     1.218   .     D
C86    H87     1.085   .     S
C89    O113    1.288   .     A
C89    C100    1.410   .     S
C89    O115    1.284   .     A
C90    O116    1.284   .     A
C90    O114    1.288   .     A
C90    C99     1.410   .     S
C91    O119    1.285   .     A
C91    O117    1.285   .     A
C91    C93     1.402   .     S
C92    O120    1.285   .     A
C92    C94     1.402   .     S
C92    O118    1.285   .     A
C94    C5      1.328   1_655 S
C94    H18     1.088   1_655 S
C95    H107    1.085   .     S
C95    C100    1.396   .     A
C95    C361    1.373   1_545 S
C96    H108    1.085   .     S
C96    C99     1.396   .     A
C96    C230    1.373   .     S
C97    C99     1.408   .     A
C97    O123    1.382   .     S
C97    C227    1.373   .     S
C98    C100    1.408   .     A
C98    O125    1.382   .     S
C98    C360    1.373   1_545 S
C101   C127    1.471   .     S
C101   N112    1.385   .     A
C101   C895    1.418   1_554 S
C102   N111    1.385   .     A
C102   C130    1.471   .     S
C102   C500    1.418   .     S
C103   N111    1.357   .     A
C103   H109    1.083   .     S
C103   C497    1.418   .     S
C104   N112    1.357   .     A
C104   H110    1.083   .     S
C104   C894    1.418   1_554 S
H105   C5      1.088   1_655 S
N111   Zn121   2.025   .     S
N112   Zn122   2.025   .     S
O113   Zn121   1.991   .     S
O114   Zn122   1.991   .     S
O115   Zn122   1.984   .     S
O116   Zn121   1.984   .     S
O117   Zn121   1.973   .     S
O118   Zn122   1.973   .     S
O119   Zn122   1.979   .     S
O120   Zn121   1.979   .     S
O123   H124    0.989   .     S
O125   H126    0.989   .     S
C127   O129    1.218   .     D
C127   H128    1.085   .     S
C130   O132    1.218   .     D
C130   H131    1.085   .     S
C133   O157    1.288   .     A
C133   C144    1.410   .     S
C133   O159    1.284   .     A
C134   O160    1.284   .     A
C134   O158    1.288   .     A
C134   C143    1.410   .     S
C135   O163    1.285   .     A
C135   O161    1.285   .     A
C135   C137    1.402   .     S
C136   O164    1.285   .     A
C136   C138    1.402   .     S
C136   O162    1.285   .     A
C137   C226    1.328   1_455 S
C137   H237    1.088   1_455 S
C138   C181    1.328   .     S
C138   H194    1.088   .     S
C139   H151    1.085   .     S
C139   C144    1.396   .     A
C140   H152    1.085   .     S
C140   C143    1.396   .     A
C140   C274    1.373   .     S
C141   C143    1.408   .     A
C141   O167    1.382   .     S
C141   C271    1.373   .     S
C142   C144    1.408   .     A
C142   O169    1.382   .     S
C145   C171    1.471   .     S
C145   N156    1.385   .     A
C145   C939    1.418   1_554 S
C146   N155    1.385   .     A
C146   C174    1.471   .     S
C146   C544    1.418   .     S
C147   N155    1.357   .     A
C147   H153    1.083   .     S
C147   C541    1.418   .     S
C148   N156    1.357   .     A
C148   H154    1.083   .     S
C148   C938    1.418   1_554 S
H149   C181    1.088   .     S
H150   C226    1.088   1_455 S
N155   Zn165   2.025   .     S
N156   Zn166   2.025   .     S
O157   Zn165   1.991   .     S
O158   Zn166   1.991   .     S
O159   Zn166   1.984   .     S
O160   Zn165   1.984   .     S
O161   Zn165   1.973   .     S
O162   Zn166   1.973   .     S
O163   Zn166   1.979   .     S
O164   Zn165   1.979   .     S
O167   H168    0.989   .     S
O169   H170    0.989   .     S
C171   O173    1.218   .     D
C171   H172    1.085   .     S
C174   O176    1.218   .     D
C174   H175    1.085   .     S
C177   O201    1.288   .     A
C177   C188    1.410   .     S
C177   O203    1.284   .     A
C178   O204    1.284   .     A
C178   O202    1.288   .     A
C178   C187    1.410   .     S
C179   O207    1.285   .     A
C179   O205    1.285   .     A
C179   C181    1.402   .     S
C180   O208    1.285   .     A
C180   C182    1.402   .     S
C180   O206    1.285   .     A
C182   C225    1.328   .     S
C182   H238    1.088   .     S
C183   H195    1.085   .     S
C183   C188    1.396   .     A
C184   H196    1.085   .     S
C184   C187    1.396   .     A
C184   C318    1.373   .     S
C185   C187    1.408   .     A
C185   O211    1.382   .     S
C185   C315    1.373   .     S
C186   C188    1.408   .     A
C186   O213    1.382   .     S
C189   C215    1.471   .     S
C189   N200    1.385   .     A
C189   C983    1.418   1_554 S
C190   N199    1.385   .     A
C190   C218    1.471   .     S
C190   C588    1.418   .     S
C191   N199    1.357   .     A
C191   H197    1.083   .     S
C191   C585    1.418   .     S
C192   N200    1.357   .     A
C192   H198    1.083   .     S
C192   C982    1.418   1_554 S
H193   C225    1.088   .     S
N199   Zn209   2.025   .     S
N200   Zn210   2.025   .     S
O201   Zn209   1.991   .     S
O202   Zn210   1.991   .     S
O203   Zn210   1.984   .     S
O204   Zn209   1.984   .     S
O205   Zn209   1.973   .     S
O206   Zn210   1.973   .     S
O207   Zn210   1.979   .     S
O208   Zn209   1.979   .     S
O211   H212    0.989   .     S
O213   H214    0.989   .     S
C215   O217    1.218   .     D
C215   H216    1.085   .     S
C218   O220    1.218   .     D
C218   H219    1.085   .     S
C221   O245    1.288   .     A
C221   C232    1.410   .     S
C221   O247    1.284   .     A
C222   O248    1.284   .     A
C222   O246    1.288   .     A
C222   C231    1.410   .     S
C223   O251    1.285   .     A
C223   O249    1.285   .     A
C223   C225    1.402   .     S
C224   O252    1.285   .     A
C224   C226    1.402   .     S
C224   O250    1.285   .     A
C226   C137    1.328   1_655 S
C226   H150    1.088   1_655 S
C227   H239    1.085   .     S
C227   C232    1.396   .     A
C228   H240    1.085   .     S
C228   C231    1.396   .     A
C228   C362    1.373   .     S
C229   C231    1.408   .     A
C229   O255    1.382   .     S
C229   C359    1.373   .     S
C230   C232    1.408   .     A
C230   O257    1.382   .     S
C233   C259    1.471   .     S
C233   N244    1.385   .     A
C233   C1027   1.418   1_554 S
C234   N243    1.385   .     A
C234   C262    1.471   .     S
C234   C632    1.418   .     S
C235   N243    1.357   .     A
C235   H241    1.083   .     S
C235   C629    1.418   .     S
C236   N244    1.357   .     A
C236   H242    1.083   .     S
C236   C1026   1.418   1_554 S
H237   C137    1.088   1_655 S
N243   Zn253   2.025   .     S
N244   Zn254   2.025   .     S
O245   Zn253   1.991   .     S
O246   Zn254   1.991   .     S
O247   Zn254   1.984   .     S
O248   Zn253   1.984   .     S
O249   Zn253   1.973   .     S
O250   Zn254   1.973   .     S
O251   Zn254   1.979   .     S
O252   Zn253   1.979   .     S
O255   H256    0.989   .     S
O257   H258    0.989   .     S
C259   O261    1.218   .     D
C259   H260    1.085   .     S
C262   O264    1.218   .     D
C262   H263    1.085   .     S
C265   O289    1.288   .     A
C265   C276    1.410   .     S
C265   O291    1.284   .     A
C266   O292    1.284   .     A
C266   O290    1.288   .     A
C266   C275    1.410   .     S
C267   O295    1.285   .     A
C267   O293    1.285   .     A
C267   C269    1.402   .     S
C268   O296    1.285   .     A
C268   C270    1.402   .     S
C268   O294    1.285   .     A
C269   C358    1.328   1_455 S
C269   H369    1.088   1_455 S
C270   C313    1.328   .     S
C270   H326    1.088   .     S
C271   H283    1.085   .     S
C271   C276    1.396   .     A
C272   H284    1.085   .     S
C272   C275    1.396   .     A
C272   C10     1.373   1_565 S
C273   C275    1.408   .     A
C273   O299    1.382   .     S
C273   C7      1.373   1_565 S
C274   C276    1.408   .     A
C274   O301    1.382   .     S
C277   C303    1.471   .     S
C277   N288    1.385   .     A
C277   C1071   1.418   1_554 S
C278   N287    1.385   .     A
C278   C306    1.471   .     S
C278   C676    1.418   .     S
C279   N287    1.357   .     A
C279   H285    1.083   .     S
C279   C673    1.418   .     S
C280   N288    1.357   .     A
C280   H286    1.083   .     S
C280   C1070   1.418   1_554 S
H281   C313    1.088   .     S
H282   C358    1.088   1_455 S
N287   Zn297   2.025   .     S
N288   Zn298   2.025   .     S
O289   Zn297   1.991   .     S
O290   Zn298   1.991   .     S
O291   Zn298   1.984   .     S
O292   Zn297   1.984   .     S
O293   Zn297   1.973   .     S
O294   Zn298   1.973   .     S
O295   Zn298   1.979   .     S
O296   Zn297   1.979   .     S
O299   H300    0.989   .     S
O301   H302    0.989   .     S
C303   O305    1.218   .     D
C303   H304    1.085   .     S
C306   O308    1.218   .     D
C306   H307    1.085   .     S
C309   O333    1.288   .     A
C309   C320    1.410   .     S
C309   O335    1.284   .     A
C310   O336    1.284   .     A
C310   O334    1.288   .     A
C310   C319    1.410   .     S
C311   O339    1.285   .     A
C311   O337    1.285   .     A
C311   C313    1.402   .     S
C312   O340    1.285   .     A
C312   C314    1.402   .     S
C312   O338    1.285   .     A
C314   C357    1.328   .     S
C314   H370    1.088   .     S
C315   H327    1.085   .     S
C315   C320    1.396   .     A
C316   H328    1.085   .     S
C316   C319    1.396   .     A
C316   C54     1.373   1_565 S
C317   C319    1.408   .     A
C317   O343    1.382   .     S
C317   C51     1.373   1_565 S
C318   C320    1.408   .     A
C318   O345    1.382   .     S
C321   C347    1.471   .     S
C321   N332    1.385   .     A
C321   C1115   1.418   1_554 S
C322   N331    1.385   .     A
C322   C350    1.471   .     S
C322   C720    1.418   .     S
C323   N331    1.357   .     A
C323   H329    1.083   .     S
C323   C717    1.418   .     S
C324   N332    1.357   .     A
C324   H330    1.083   .     S
C324   C1114   1.418   1_554 S
H325   C357    1.088   .     S
N331   Zn341   2.025   .     S
N332   Zn342   2.025   .     S
O333   Zn341   1.991   .     S
O334   Zn342   1.991   .     S
O335   Zn342   1.984   .     S
O336   Zn341   1.984   .     S
O337   Zn341   1.973   .     S
O338   Zn342   1.973   .     S
O339   Zn342   1.979   .     S
O340   Zn341   1.979   .     S
O343   H344    0.989   .     S
O345   H346    0.989   .     S
C347   O349    1.218   .     D
C347   H348    1.085   .     S
C350   O352    1.218   .     D
C350   H351    1.085   .     S
C353   O377    1.288   .     A
C353   C364    1.410   .     S
C353   O379    1.284   .     A
C354   O380    1.284   .     A
C354   O378    1.288   .     A
C354   C363    1.410   .     S
C355   O383    1.285   .     A
C355   O381    1.285   .     A
C355   C357    1.402   .     S
C356   O384    1.285   .     A
C356   C358    1.402   .     S
C356   O382    1.285   .     A
C358   C269    1.328   1_655 S
C358   H282    1.088   1_655 S
C359   H371    1.085   .     S
C359   C364    1.396   .     A
C360   H372    1.085   .     S
C360   C363    1.396   .     A
C360   C98     1.373   1_565 S
C361   C363    1.408   .     A
C361   O387    1.382   .     S
C361   C95     1.373   1_565 S
C362   C364    1.408   .     A
C362   O389    1.382   .     S
C365   C391    1.471   .     S
C365   N376    1.385   .     A
C365   C1159   1.418   1_554 S
C366   N375    1.385   .     A
C366   C394    1.471   .     S
C366   C764    1.418   .     S
C367   N375    1.357   .     A
C367   H373    1.083   .     S
C367   C761    1.418   .     S
C368   N376    1.357   .     A
C368   H374    1.083   .     S
C368   C1158   1.418   1_554 S
H369   C269    1.088   1_655 S
N375   Zn385   2.025   .     S
N376   Zn386   2.025   .     S
O377   Zn385   1.991   .     S
O378   Zn386   1.991   .     S
O379   Zn386   1.984   .     S
O380   Zn385   1.984   .     S
O381   Zn385   1.973   .     S
O382   Zn386   1.973   .     S
O383   Zn386   1.979   .     S
O384   Zn385   1.979   .     S
O387   H388    0.989   .     S
O389   H390    0.989   .     S
C391   O393    1.218   .     D
C391   H392    1.085   .     S
C394   O396    1.218   .     D
C394   H395    1.085   .     S
C397   O421    1.288   .     A
C397   C408    1.410   .     S
C397   O423    1.284   .     A
C398   O424    1.284   .     A
C398   O422    1.288   .     A
C398   C407    1.410   .     S
C399   O427    1.285   .     A
C399   O425    1.285   .     A
C399   C401    1.402   .     S
C400   O428    1.285   .     A
C400   C402    1.402   .     S
C400   O426    1.285   .     A
C401   C490    1.328   1_455 S
C401   H501    1.088   1_455 S
C402   C445    1.328   .     S
C402   H458    1.088   .     S
C403   H415    1.085   .     S
C403   C408    1.396   .     A
C403   C669    1.373   1_545 S
C404   H416    1.085   .     S
C404   C407    1.396   .     A
C404   C538    1.373   .     S
C405   C407    1.408   .     A
C405   O431    1.382   .     S
C405   C535    1.373   .     S
C406   C408    1.408   .     A
C406   O433    1.382   .     S
C406   C668    1.373   1_545 S
C409   C435    1.471   .     S
C409   N420    1.385   .     A
C410   N419    1.385   .     A
C410   C438    1.471   .     S
C410   C808    1.418   .     S
C411   N419    1.357   .     A
C411   H417    1.083   .     S
C411   C805    1.418   .     S
C412   N420    1.357   .     A
C412   H418    1.083   .     S
H413   C445    1.088   .     S
H414   C490    1.088   1_455 S
N419   Zn429   2.025   .     S
N420   Zn430   2.025   .     S
O421   Zn429   1.991   .     S
O422   Zn430   1.991   .     S
O423   Zn430   1.984   .     S
O424   Zn429   1.984   .     S
O425   Zn429   1.973   .     S
O426   Zn430   1.973   .     S
O427   Zn430   1.979   .     S
O428   Zn429   1.979   .     S
O431   H432    0.989   .     S
O433   H434    0.989   .     S
C435   O437    1.218   .     D
C435   H436    1.085   .     S
C438   O440    1.218   .     D
C438   H439    1.085   .     S
C441   O465    1.288   .     A
C441   C452    1.410   .     S
C441   O467    1.284   .     A
C442   O468    1.284   .     A
C442   O466    1.288   .     A
C442   C451    1.410   .     S
C443   O471    1.285   .     A
C443   O469    1.285   .     A
C443   C445    1.402   .     S
C444   O472    1.285   .     A
C444   C446    1.402   .     S
C444   O470    1.285   .     A
C446   C489    1.328   .     S
C446   H502    1.088   .     S
C447   H459    1.085   .     S
C447   C452    1.396   .     A
C447   C713    1.373   1_545 S
C448   H460    1.085   .     S
C448   C451    1.396   .     A
C448   C582    1.373   .     S
C449   C451    1.408   .     A
C449   O475    1.382   .     S
C449   C579    1.373   .     S
C450   C452    1.408   .     A
C450   O477    1.382   .     S
C450   C712    1.373   1_545 S
C453   C479    1.471   .     S
C453   N464    1.385   .     A
C454   N463    1.385   .     A
C454   C482    1.471   .     S
C454   C852    1.418   .     S
C455   N463    1.357   .     A
C455   H461    1.083   .     S
C455   C849    1.418   .     S
C456   N464    1.357   .     A
C456   H462    1.083   .     S
H457   C489    1.088   .     S
N463   Zn473   2.025   .     S
N464   Zn474   2.025   .     S
O465   Zn473   1.991   .     S
O466   Zn474   1.991   .     S
O467   Zn474   1.984   .     S
O468   Zn473   1.984   .     S
O469   Zn473   1.973   .     S
O470   Zn474   1.973   .     S
O471   Zn474   1.979   .     S
O472   Zn473   1.979   .     S
O475   H476    0.989   .     S
O477   H478    0.989   .     S
C479   O481    1.218   .     D
C479   H480    1.085   .     S
C482   O484    1.218   .     D
C482   H483    1.085   .     S
C485   O509    1.288   .     A
C485   C496    1.410   .     S
C485   O511    1.284   .     A
C486   O512    1.284   .     A
C486   O510    1.288   .     A
C486   C495    1.410   .     S
C487   O515    1.285   .     A
C487   O513    1.285   .     A
C487   C489    1.402   .     S
C488   O516    1.285   .     A
C488   C490    1.402   .     S
C488   O514    1.285   .     A
C490   C401    1.328   1_655 S
C490   H414    1.088   1_655 S
C491   H503    1.085   .     S
C491   C496    1.396   .     A
C491   C757    1.373   1_545 S
C492   H504    1.085   .     S
C492   C495    1.396   .     A
C492   C626    1.373   .     S
C493   C495    1.408   .     A
C493   O519    1.382   .     S
C493   C623    1.373   .     S
C494   C496    1.408   .     A
C494   O521    1.382   .     S
C494   C756    1.373   1_545 S
C497   C523    1.471   .     S
C497   N508    1.385   .     A
C498   N507    1.385   .     A
C498   C526    1.471   .     S
C498   C896    1.418   .     S
C499   N507    1.357   .     A
C499   H505    1.083   .     S
C499   C893    1.418   .     S
C500   N508    1.357   .     A
C500   H506    1.083   .     S
H501   C401    1.088   1_655 S
N507   Zn517   2.025   .     S
N508   Zn518   2.025   .     S
O509   Zn517   1.991   .     S
O510   Zn518   1.991   .     S
O511   Zn518   1.984   .     S
O512   Zn517   1.984   .     S
O513   Zn517   1.973   .     S
O514   Zn518   1.973   .     S
O515   Zn518   1.979   .     S
O516   Zn517   1.979   .     S
O519   H520    0.989   .     S
O521   H522    0.989   .     S
C523   O525    1.218   .     D
C523   H524    1.085   .     S
C526   O528    1.218   .     D
C526   H527    1.085   .     S
C529   O553    1.288   .     A
C529   C540    1.410   .     S
C529   O555    1.284   .     A
C530   O556    1.284   .     A
C530   O554    1.288   .     A
C530   C539    1.410   .     S
C531   O559    1.285   .     A
C531   O557    1.285   .     A
C531   C533    1.402   .     S
C532   O560    1.285   .     A
C532   C534    1.402   .     S
C532   O558    1.285   .     A
C533   C622    1.328   1_455 S
C533   H633    1.088   1_455 S
C534   C577    1.328   .     S
C534   H590    1.088   .     S
C535   H547    1.085   .     S
C535   C540    1.396   .     A
C536   H548    1.085   .     S
C536   C539    1.396   .     A
C536   C670    1.373   .     S
C537   C539    1.408   .     A
C537   O563    1.382   .     S
C537   C667    1.373   .     S
C538   C540    1.408   .     A
C538   O565    1.382   .     S
C541   C567    1.471   .     S
C541   N552    1.385   .     A
C542   N551    1.385   .     A
C542   C570    1.471   .     S
C542   C940    1.418   .     S
C543   N551    1.357   .     A
C543   H549    1.083   .     S
C543   C937    1.418   .     S
C544   N552    1.357   .     A
C544   H550    1.083   .     S
H545   C577    1.088   .     S
H546   C622    1.088   1_455 S
N551   Zn561   2.025   .     S
N552   Zn562   2.025   .     S
O553   Zn561   1.991   .     S
O554   Zn562   1.991   .     S
O555   Zn562   1.984   .     S
O556   Zn561   1.984   .     S
O557   Zn561   1.973   .     S
O558   Zn562   1.973   .     S
O559   Zn562   1.979   .     S
O560   Zn561   1.979   .     S
O563   H564    0.989   .     S
O565   H566    0.989   .     S
C567   O569    1.218   .     D
C567   H568    1.085   .     S
C570   O572    1.218   .     D
C570   H571    1.085   .     S
C573   O597    1.288   .     A
C573   C584    1.410   .     S
C573   O599    1.284   .     A
C574   O600    1.284   .     A
C574   O598    1.288   .     A
C574   C583    1.410   .     S
C575   O603    1.285   .     A
C575   O601    1.285   .     A
C575   C577    1.402   .     S
C576   O604    1.285   .     A
C576   C578    1.402   .     S
C576   O602    1.285   .     A
C578   C621    1.328   .     S
C578   H634    1.088   .     S
C579   H591    1.085   .     S
C579   C584    1.396   .     A
C580   H592    1.085   .     S
C580   C583    1.396   .     A
C580   C714    1.373   .     S
C581   C583    1.408   .     A
C581   O607    1.382   .     S
C581   C711    1.373   .     S
C582   C584    1.408   .     A
C582   O609    1.382   .     S
C585   C611    1.471   .     S
C585   N596    1.385   .     A
C586   N595    1.385   .     A
C586   C614    1.471   .     S
C586   C984    1.418   .     S
C587   N595    1.357   .     A
C587   H593    1.083   .     S
C587   C981    1.418   .     S
C588   N596    1.357   .     A
C588   H594    1.083   .     S
H589   C621    1.088   .     S
N595   Zn605   2.025   .     S
N596   Zn606   2.025   .     S
O597   Zn605   1.991   .     S
O598   Zn606   1.991   .     S
O599   Zn606   1.984   .     S
O600   Zn605   1.984   .     S
O601   Zn605   1.973   .     S
O602   Zn606   1.973   .     S
O603   Zn606   1.979   .     S
O604   Zn605   1.979   .     S
O607   H608    0.989   .     S
O609   H610    0.989   .     S
C611   O613    1.218   .     D
C611   H612    1.085   .     S
C614   O616    1.218   .     D
C614   H615    1.085   .     S
C617   O641    1.288   .     A
C617   C628    1.410   .     S
C617   O643    1.284   .     A
C618   O644    1.284   .     A
C618   O642    1.288   .     A
C618   C627    1.410   .     S
C619   O647    1.285   .     A
C619   O645    1.285   .     A
C619   C621    1.402   .     S
C620   O648    1.285   .     A
C620   C622    1.402   .     S
C620   O646    1.285   .     A
C622   C533    1.328   1_655 S
C622   H546    1.088   1_655 S
C623   H635    1.085   .     S
C623   C628    1.396   .     A
C624   H636    1.085   .     S
C624   C627    1.396   .     A
C624   C758    1.373   .     S
C625   C627    1.408   .     A
C625   O651    1.382   .     S
C625   C755    1.373   .     S
C626   C628    1.408   .     A
C626   O653    1.382   .     S
C629   C655    1.471   .     S
C629   N640    1.385   .     A
C630   N639    1.385   .     A
C630   C658    1.471   .     S
C630   C1028   1.418   .     S
C631   N639    1.357   .     A
C631   H637    1.083   .     S
C631   C1025   1.418   .     S
C632   N640    1.357   .     A
C632   H638    1.083   .     S
H633   C533    1.088   1_655 S
N639   Zn649   2.025   .     S
N640   Zn650   2.025   .     S
O641   Zn649   1.991   .     S
O642   Zn650   1.991   .     S
O643   Zn650   1.984   .     S
O644   Zn649   1.984   .     S
O645   Zn649   1.973   .     S
O646   Zn650   1.973   .     S
O647   Zn650   1.979   .     S
O648   Zn649   1.979   .     S
O651   H652    0.989   .     S
O653   H654    0.989   .     S
C655   O657    1.218   .     D
C655   H656    1.085   .     S
C658   O660    1.218   .     D
C658   H659    1.085   .     S
C661   O685    1.288   .     A
C661   C672    1.410   .     S
C661   O687    1.284   .     A
C662   O688    1.284   .     A
C662   O686    1.288   .     A
C662   C671    1.410   .     S
C663   O691    1.285   .     A
C663   O689    1.285   .     A
C663   C665    1.402   .     S
C664   O692    1.285   .     A
C664   C666    1.402   .     S
C664   O690    1.285   .     A
C665   C754    1.328   1_455 S
C665   H765    1.088   1_455 S
C666   C709    1.328   .     S
C666   H722    1.088   .     S
C667   H679    1.085   .     S
C667   C672    1.396   .     A
C668   H680    1.085   .     S
C668   C671    1.396   .     A
C668   C406    1.373   1_565 S
C669   C671    1.408   .     A
C669   O695    1.382   .     S
C669   C403    1.373   1_565 S
C670   C672    1.408   .     A
C670   O697    1.382   .     S
C673   C699    1.471   .     S
C673   N684    1.385   .     A
C674   N683    1.385   .     A
C674   C702    1.471   .     S
C674   C1072   1.418   .     S
C675   N683    1.357   .     A
C675   H681    1.083   .     S
C675   C1069   1.418   .     S
C676   N684    1.357   .     A
C676   H682    1.083   .     S
H677   C709    1.088   .     S
H678   C754    1.088   1_455 S
N683   Zn693   2.025   .     S
N684   Zn694   2.025   .     S
O685   Zn693   1.991   .     S
O686   Zn694   1.991   .     S
O687   Zn694   1.984   .     S
O688   Zn693   1.984   .     S
O689   Zn693   1.973   .     S
O690   Zn694   1.973   .     S
O691   Zn694   1.979   .     S
O692   Zn693   1.979   .     S
O695   H696    0.989   .     S
O697   H698    0.989   .     S
C699   O701    1.218   .     D
C699   H700    1.085   .     S
C702   O704    1.218   .     D
C702   H703    1.085   .     S
C705   O729    1.288   .     A
C705   C716    1.410   .     S
C705   O731    1.284   .     A
C706   O732    1.284   .     A
C706   O730    1.288   .     A
C706   C715    1.410   .     S
C707   O735    1.285   .     A
C707   O733    1.285   .     A
C707   C709    1.402   .     S
C708   O736    1.285   .     A
C708   C710    1.402   .     S
C708   O734    1.285   .     A
C710   C753    1.328   .     S
C710   H766    1.088   .     S
C711   H723    1.085   .     S
C711   C716    1.396   .     A
C712   H724    1.085   .     S
C712   C715    1.396   .     A
C712   C450    1.373   1_565 S
C713   C715    1.408   .     A
C713   O739    1.382   .     S
C713   C447    1.373   1_565 S
C714   C716    1.408   .     A
C714   O741    1.382   .     S
C717   C743    1.471   .     S
C717   N728    1.385   .     A
C718   N727    1.385   .     A
C718   C746    1.471   .     S
C718   C1116   1.418   .     S
C719   N727    1.357   .     A
C719   H725    1.083   .     S
C719   C1113   1.418   .     S
C720   N728    1.357   .     A
C720   H726    1.083   .     S
H721   C753    1.088   .     S
N727   Zn737   2.025   .     S
N728   Zn738   2.025   .     S
O729   Zn737   1.991   .     S
O730   Zn738   1.991   .     S
O731   Zn738   1.984   .     S
O732   Zn737   1.984   .     S
O733   Zn737   1.973   .     S
O734   Zn738   1.973   .     S
O735   Zn738   1.979   .     S
O736   Zn737   1.979   .     S
O739   H740    0.989   .     S
O741   H742    0.989   .     S
C743   O745    1.218   .     D
C743   H744    1.085   .     S
C746   O748    1.218   .     D
C746   H747    1.085   .     S
C749   O773    1.288   .     A
C749   C760    1.410   .     S
C749   O775    1.284   .     A
C750   O776    1.284   .     A
C750   O774    1.288   .     A
C750   C759    1.410   .     S
C751   O779    1.285   .     A
C751   O777    1.285   .     A
C751   C753    1.402   .     S
C752   O780    1.285   .     A
C752   C754    1.402   .     S
C752   O778    1.285   .     A
C754   C665    1.328   1_655 S
C754   H678    1.088   1_655 S
C755   H767    1.085   .     S
C755   C760    1.396   .     A
C756   H768    1.085   .     S
C756   C759    1.396   .     A
C756   C494    1.373   1_565 S
C757   C759    1.408   .     A
C757   O783    1.382   .     S
C757   C491    1.373   1_565 S
C758   C760    1.408   .     A
C758   O785    1.382   .     S
C761   C787    1.471   .     S
C761   N772    1.385   .     A
C762   N771    1.385   .     A
C762   C790    1.471   .     S
C762   C1160   1.418   .     S
C763   N771    1.357   .     A
C763   H769    1.083   .     S
C763   C1157   1.418   .     S
C764   N772    1.357   .     A
C764   H770    1.083   .     S
H765   C665    1.088   1_655 S
N771   Zn781   2.025   .     S
N772   Zn782   2.025   .     S
O773   Zn781   1.991   .     S
O774   Zn782   1.991   .     S
O775   Zn782   1.984   .     S
O776   Zn781   1.984   .     S
O777   Zn781   1.973   .     S
O778   Zn782   1.973   .     S
O779   Zn782   1.979   .     S
O780   Zn781   1.979   .     S
O783   H784    0.989   .     S
O785   H786    0.989   .     S
C787   O789    1.218   .     D
C787   H788    1.085   .     S
C790   O792    1.218   .     D
C790   H791    1.085   .     S
C793   O817    1.288   .     A
C793   C804    1.410   .     S
C793   O819    1.284   .     A
C794   O820    1.284   .     A
C794   O818    1.288   .     A
C794   C803    1.410   .     S
C795   O823    1.285   .     A
C795   O821    1.285   .     A
C795   C797    1.402   .     S
C796   O824    1.285   .     A
C796   C798    1.402   .     S
C796   O822    1.285   .     A
C797   C886    1.328   1_455 S
C797   H897    1.088   1_455 S
C798   C841    1.328   .     S
C798   H854    1.088   .     S
C799   H811    1.085   .     S
C799   C804    1.396   .     A
C799   C1065   1.373   1_545 S
C800   H812    1.085   .     S
C800   C803    1.396   .     A
C800   C934    1.373   .     S
C801   C803    1.408   .     A
C801   O827    1.382   .     S
C801   C931    1.373   .     S
C802   C804    1.408   .     A
C802   O829    1.382   .     S
C802   C1064   1.373   1_545 S
C805   C831    1.471   .     S
C805   N816    1.385   .     A
C806   N815    1.385   .     A
C806   C834    1.471   .     S
C806   C16     1.418   1_556 S
C807   N815    1.357   .     A
C807   H813    1.083   .     S
C807   C13     1.418   1_556 S
C808   N816    1.357   .     A
C808   H814    1.083   .     S
H809   C841    1.088   .     S
H810   C886    1.088   1_455 S
N815   Zn825   2.025   .     S
N816   Zn826   2.025   .     S
O817   Zn825   1.991   .     S
O818   Zn826   1.991   .     S
O819   Zn826   1.984   .     S
O820   Zn825   1.984   .     S
O821   Zn825   1.973   .     S
O822   Zn826   1.973   .     S
O823   Zn826   1.979   .     S
O824   Zn825   1.979   .     S
O827   H828    0.989   .     S
O829   H830    0.989   .     S
C831   O833    1.218   .     D
C831   H832    1.085   .     S
C834   O836    1.218   .     D
C834   H835    1.085   .     S
C837   O861    1.288   .     A
C837   C848    1.410   .     S
C837   O863    1.284   .     A
C838   O864    1.284   .     A
C838   O862    1.288   .     A
C838   C847    1.410   .     S
C839   O867    1.285   .     A
C839   O865    1.285   .     A
C839   C841    1.402   .     S
C840   O868    1.285   .     A
C840   C842    1.402   .     S
C840   O866    1.285   .     A
C842   C885    1.328   .     S
C842   H898    1.088   .     S
C843   H855    1.085   .     S
C843   C848    1.396   .     A
C843   C1109   1.373   1_545 S
C844   H856    1.085   .     S
C844   C847    1.396   .     A
C844   C978    1.373   .     S
C845   C847    1.408   .     A
C845   O871    1.382   .     S
C845   C975    1.373   .     S
C846   C848    1.408   .     A
C846   O873    1.382   .     S
C846   C1108   1.373   1_545 S
C849   C875    1.471   .     S
C849   N860    1.385   .     A
C850   N859    1.385   .     A
C850   C878    1.471   .     S
C850   C60     1.418   1_556 S
C851   N859    1.357   .     A
C851   H857    1.083   .     S
C851   C57     1.418   1_556 S
C852   N860    1.357   .     A
C852   H858    1.083   .     S
H853   C885    1.088   .     S
N859   Zn869   2.025   .     S
N860   Zn870   2.025   .     S
O861   Zn869   1.991   .     S
O862   Zn870   1.991   .     S
O863   Zn870   1.984   .     S
O864   Zn869   1.984   .     S
O865   Zn869   1.973   .     S
O866   Zn870   1.973   .     S
O867   Zn870   1.979   .     S
O868   Zn869   1.979   .     S
O871   H872    0.989   .     S
O873   H874    0.989   .     S
C875   O877    1.218   .     D
C875   H876    1.085   .     S
C878   O880    1.218   .     D
C878   H879    1.085   .     S
C881   O905    1.288   .     A
C881   C892    1.410   .     S
C881   O907    1.284   .     A
C882   O908    1.284   .     A
C882   O906    1.288   .     A
C882   C891    1.410   .     S
C883   O911    1.285   .     A
C883   O909    1.285   .     A
C883   C885    1.402   .     S
C884   O912    1.285   .     A
C884   C886    1.402   .     S
C884   O910    1.285   .     A
C886   C797    1.328   1_655 S
C886   H810    1.088   1_655 S
C887   H899    1.085   .     S
C887   C892    1.396   .     A
C887   C1153   1.373   1_545 S
C888   H900    1.085   .     S
C888   C891    1.396   .     A
C888   C1022   1.373   .     S
C889   C891    1.408   .     A
C889   O915    1.382   .     S
C889   C1019   1.373   .     S
C890   C892    1.408   .     A
C890   O917    1.382   .     S
C890   C1152   1.373   1_545 S
C893   C919    1.471   .     S
C893   N904    1.385   .     A
C894   N903    1.385   .     A
C894   C922    1.471   .     S
C894   C104    1.418   1_556 S
C895   N903    1.357   .     A
C895   H901    1.083   .     S
C895   C101    1.418   1_556 S
C896   N904    1.357   .     A
C896   H902    1.083   .     S
H897   C797    1.088   1_655 S
N903   Zn913   2.025   .     S
N904   Zn914   2.025   .     S
O905   Zn913   1.991   .     S
O906   Zn914   1.991   .     S
O907   Zn914   1.984   .     S
O908   Zn913   1.984   .     S
O909   Zn913   1.973   .     S
O910   Zn914   1.973   .     S
O911   Zn914   1.979   .     S
O912   Zn913   1.979   .     S
O915   H916    0.989   .     S
O917   H918    0.989   .     S
C919   O921    1.218   .     D
C919   H920    1.085   .     S
C922   O924    1.218   .     D
C922   H923    1.085   .     S
C925   O949    1.288   .     A
C925   C936    1.410   .     S
C925   O951    1.284   .     A
C926   O952    1.284   .     A
C926   O950    1.288   .     A
C926   C935    1.410   .     S
C927   O955    1.285   .     A
C927   O953    1.285   .     A
C927   C929    1.402   .     S
C928   O956    1.285   .     A
C928   C930    1.402   .     S
C928   O954    1.285   .     A
C929   C1018   1.328   1_455 S
C929   H1029   1.088   1_455 S
C930   C973    1.328   .     S
C930   H986    1.088   .     S
C931   H943    1.085   .     S
C931   C936    1.396   .     A
C932   H944    1.085   .     S
C932   C935    1.396   .     A
C932   C1066   1.373   .     S
C933   C935    1.408   .     A
C933   O959    1.382   .     S
C933   C1063   1.373   .     S
C934   C936    1.408   .     A
C934   O961    1.382   .     S
C937   C963    1.471   .     S
C937   N948    1.385   .     A
C938   N947    1.385   .     A
C938   C966    1.471   .     S
C938   C148    1.418   1_556 S
C939   N947    1.357   .     A
C939   H945    1.083   .     S
C939   C145    1.418   1_556 S
C940   N948    1.357   .     A
C940   H946    1.083   .     S
H941   C973    1.088   .     S
H942   C1018   1.088   1_455 S
N947   Zn957   2.025   .     S
N948   Zn958   2.025   .     S
O949   Zn957   1.991   .     S
O950   Zn958   1.991   .     S
O951   Zn958   1.984   .     S
O952   Zn957   1.984   .     S
O953   Zn957   1.973   .     S
O954   Zn958   1.973   .     S
O955   Zn958   1.979   .     S
O956   Zn957   1.979   .     S
O959   H960    0.989   .     S
O961   H962    0.989   .     S
C963   O965    1.218   .     D
C963   H964    1.085   .     S
C966   O968    1.218   .     D
C966   H967    1.085   .     S
C969   O993    1.288   .     A
C969   C980    1.410   .     S
C969   O995    1.284   .     A
C970   O996    1.284   .     A
C970   O994    1.288   .     A
C970   C979    1.410   .     S
C971   O999    1.285   .     A
C971   O997    1.285   .     A
C971   C973    1.402   .     S
C972   O1000   1.285   .     A
C972   C974    1.402   .     S
C972   O998    1.285   .     A
C974   C1017   1.328   .     S
C974   H1030   1.088   .     S
C975   H987    1.085   .     S
C975   C980    1.396   .     A
C976   H988    1.085   .     S
C976   C979    1.396   .     A
C976   C1110   1.373   .     S
C977   C979    1.408   .     A
C977   O1003   1.382   .     S
C977   C1107   1.373   .     S
C978   C980    1.408   .     A
C978   O1005   1.382   .     S
C981   C1007   1.471   .     S
C981   N992    1.385   .     A
C982   N991    1.385   .     A
C982   C1010   1.471   .     S
C982   C192    1.418   1_556 S
C983   N991    1.357   .     A
C983   H989    1.083   .     S
C983   C189    1.418   1_556 S
C984   N992    1.357   .     A
C984   H990    1.083   .     S
H985   C1017   1.088   .     S
N991   Zn1001  2.025   .     S
N992   Zn1002  2.025   .     S
O993   Zn1001  1.991   .     S
O994   Zn1002  1.991   .     S
O995   Zn1002  1.984   .     S
O996   Zn1001  1.984   .     S
O997   Zn1001  1.973   .     S
O998   Zn1002  1.973   .     S
O999   Zn1002  1.979   .     S
O1000  Zn1001  1.979   .     S
O1003  H1004   0.989   .     S
O1005  H1006   0.989   .     S
C1007  O1009   1.218   .     D
C1007  H1008   1.085   .     S
C1010  O1012   1.218   .     D
C1010  H1011   1.085   .     S
C1013  O1037   1.288   .     A
C1013  C1024   1.410   .     S
C1013  O1039   1.284   .     A
C1014  O1040   1.284   .     A
C1014  O1038   1.288   .     A
C1014  C1023   1.410   .     S
C1015  O1043   1.285   .     A
C1015  O1041   1.285   .     A
C1015  C1017   1.402   .     S
C1016  O1044   1.285   .     A
C1016  C1018   1.402   .     S
C1016  O1042   1.285   .     A
C1018  C929    1.328   1_655 S
C1018  H942    1.088   1_655 S
C1019  H1031   1.085   .     S
C1019  C1024   1.396   .     A
C1020  H1032   1.085   .     S
C1020  C1023   1.396   .     A
C1020  C1154   1.373   .     S
C1021  C1023   1.408   .     A
C1021  O1047   1.382   .     S
C1021  C1151   1.373   .     S
C1022  C1024   1.408   .     A
C1022  O1049   1.382   .     S
C1025  C1051   1.471   .     S
C1025  N1036   1.385   .     A
C1026  N1035   1.385   .     A
C1026  C1054   1.471   .     S
C1026  C236    1.418   1_556 S
C1027  N1035   1.357   .     A
C1027  H1033   1.083   .     S
C1027  C233    1.418   1_556 S
C1028  N1036   1.357   .     A
C1028  H1034   1.083   .     S
H1029  C929    1.088   1_655 S
N1035  Zn1045  2.025   .     S
N1036  Zn1046  2.025   .     S
O1037  Zn1045  1.991   .     S
O1038  Zn1046  1.991   .     S
O1039  Zn1046  1.984   .     S
O1040  Zn1045  1.984   .     S
O1041  Zn1045  1.973   .     S
O1042  Zn1046  1.973   .     S
O1043  Zn1046  1.979   .     S
O1044  Zn1045  1.979   .     S
O1047  H1048   0.989   .     S
O1049  H1050   0.989   .     S
C1051  O1053   1.218   .     D
C1051  H1052   1.085   .     S
C1054  O1056   1.218   .     D
C1054  H1055   1.085   .     S
C1057  O1081   1.288   .     A
C1057  C1068   1.410   .     S
C1057  O1083   1.284   .     A
C1058  O1084   1.284   .     A
C1058  O1082   1.288   .     A
C1058  C1067   1.410   .     S
C1059  O1087   1.285   .     A
C1059  O1085   1.285   .     A
C1059  C1061   1.402   .     S
C1060  O1088   1.285   .     A
C1060  C1062   1.402   .     S
C1060  O1086   1.285   .     A
C1061  C1150   1.328   1_455 S
C1061  H1161   1.088   1_455 S
C1062  C1105   1.328   .     S
C1062  H1118   1.088   .     S
C1063  H1075   1.085   .     S
C1063  C1068   1.396   .     A
C1064  H1076   1.085   .     S
C1064  C1067   1.396   .     A
C1064  C802    1.373   1_565 S
C1065  C1067   1.408   .     A
C1065  O1091   1.382   .     S
C1065  C799    1.373   1_565 S
C1066  C1068   1.408   .     A
C1066  O1093   1.382   .     S
C1069  C1095   1.471   .     S
C1069  N1080   1.385   .     A
C1070  N1079   1.385   .     A
C1070  C1098   1.471   .     S
C1070  C280    1.418   1_556 S
C1071  N1079   1.357   .     A
C1071  H1077   1.083   .     S
C1071  C277    1.418   1_556 S
C1072  N1080   1.357   .     A
C1072  H1078   1.083   .     S
H1073  C1105   1.088   .     S
H1074  C1150   1.088   1_455 S
N1079  Zn1089  2.025   .     S
N1080  Zn1090  2.025   .     S
O1081  Zn1089  1.991   .     S
O1082  Zn1090  1.991   .     S
O1083  Zn1090  1.984   .     S
O1084  Zn1089  1.984   .     S
O1085  Zn1089  1.973   .     S
O1086  Zn1090  1.973   .     S
O1087  Zn1090  1.979   .     S
O1088  Zn1089  1.979   .     S
O1091  H1092   0.989   .     S
O1093  H1094   0.989   .     S
C1095  O1097   1.218   .     D
C1095  H1096   1.085   .     S
C1098  O1100   1.218   .     D
C1098  H1099   1.085   .     S
C1101  O1125   1.288   .     A
C1101  C1112   1.410   .     S
C1101  O1127   1.284   .     A
C1102  O1128   1.284   .     A
C1102  O1126   1.288   .     A
C1102  C1111   1.410   .     S
C1103  O1131   1.285   .     A
C1103  O1129   1.285   .     A
C1103  C1105   1.402   .     S
C1104  O1132   1.285   .     A
C1104  C1106   1.402   .     S
C1104  O1130   1.285   .     A
C1106  C1149   1.328   .     S
C1106  H1162   1.088   .     S
C1107  H1119   1.085   .     S
C1107  C1112   1.396   .     A
C1108  H1120   1.085   .     S
C1108  C1111   1.396   .     A
C1108  C846    1.373   1_565 S
C1109  C1111   1.408   .     A
C1109  O1135   1.382   .     S
C1109  C843    1.373   1_565 S
C1110  C1112   1.408   .     A
C1110  O1137   1.382   .     S
C1113  C1139   1.471   .     S
C1113  N1124   1.385   .     A
C1114  N1123   1.385   .     A
C1114  C1142   1.471   .     S
C1114  C324    1.418   1_556 S
C1115  N1123   1.357   .     A
C1115  H1121   1.083   .     S
C1115  C321    1.418   1_556 S
C1116  N1124   1.357   .     A
C1116  H1122   1.083   .     S
H1117  C1149   1.088   .     S
N1123  Zn1133  2.025   .     S
N1124  Zn1134  2.025   .     S
O1125  Zn1133  1.991   .     S
O1126  Zn1134  1.991   .     S
O1127  Zn1134  1.984   .     S
O1128  Zn1133  1.984   .     S
O1129  Zn1133  1.973   .     S
O1130  Zn1134  1.973   .     S
O1131  Zn1134  1.979   .     S
O1132  Zn1133  1.979   .     S
O1135  H1136   0.989   .     S
O1137  H1138   0.989   .     S
C1139  O1141   1.218   .     D
C1139  H1140   1.085   .     S
C1142  O1144   1.218   .     D
C1142  H1143   1.085   .     S
C1145  O1169   1.288   .     A
C1145  C1156   1.410   .     S
C1145  O1171   1.284   .     A
C1146  O1172   1.284   .     A
C1146  O1170   1.288   .     A
C1146  C1155   1.410   .     S
C1147  O1175   1.285   .     A
C1147  O1173   1.285   .     A
C1147  C1149   1.402   .     S
C1148  O1176   1.285   .     A
C1148  C1150   1.402   .     S
C1148  O1174   1.285   .     A
C1150  C1061   1.328   1_655 S
C1150  H1074   1.088   1_655 S
C1151  H1163   1.085   .     S
C1151  C1156   1.396   .     A
C1152  H1164   1.085   .     S
C1152  C1155   1.396   .     A
C1152  C890    1.373   1_565 S
C1153  C1155   1.408   .     A
C1153  O1179   1.382   .     S
C1153  C887    1.373   1_565 S
C1154  C1156   1.408   .     A
C1154  O1181   1.382   .     S
C1157  C1183   1.471   .     S
C1157  N1168   1.385   .     A
C1158  N1167   1.385   .     A
C1158  C1186   1.471   .     S
C1158  C368    1.418   1_556 S
C1159  N1167   1.357   .     A
C1159  H1165   1.083   .     S
C1159  C365    1.418   1_556 S
C1160  N1168   1.357   .     A
C1160  H1166   1.083   .     S
H1161  C1061   1.088   1_655 S
N1167  Zn1177  2.025   .     S
N1168  Zn1178  2.025   .     S
O1169  Zn1177  1.991   .     S
O1170  Zn1178  1.991   .     S
O1171  Zn1178  1.984   .     S
O1172  Zn1177  1.984   .     S
O1173  Zn1177  1.973   .     S
O1174  Zn1178  1.973   .     S
O1175  Zn1178  1.979   .     S
O1176  Zn1177  1.979   .     S
O1179  H1180   0.989   .     S
O1181  H1182   0.989   .     S
C1183  O1185   1.218   .     D
C1183  H1184   1.085   .     S
C1186  O1188   1.218   .     D
C1186  H1187   1.085   .     S
