data_str_m3_o10_o16_pcu_sym.137
_audit_creation_date              2020-01-03
_audit_creation_method            'Materials Studio'
_symmetry_space_group_name_H-M    'P1'
_symmetry_Int_Tables_number       1
_symmetry_cell_setting            triclinic
loop_
_symmetry_equiv_pos_as_xyz
  x,y,z
_cell_length_a                    23.5529
_cell_length_b                    25.7036
_cell_length_c                    24.8955
_cell_angle_alpha                 92.6589
_cell_angle_beta                  102.5529
_cell_angle_gamma                 93.8197
loop_
_atom_site_label
_atom_site_type_symbol
_atom_site_fract_x
_atom_site_fract_y
_atom_site_fract_z
_atom_site_U_iso_or_equiv
_atom_site_adp_type
_atom_site_occupancy
C1     C     0.01462   0.26478   0.24839   0.00000  Uiso   1.00
C2     C     0.06364   0.20060   0.41033   0.00000  Uiso   1.00
C3     C     0.02204   0.31926   0.24709   0.00000  Uiso   1.00
C4     C     0.03822   0.17876   0.35342   0.00000  Uiso   1.00
C5     C     0.31075   0.01397   0.25184   0.00000  Uiso   1.00
C6     C     0.31855   0.06852   0.25123   0.00000  Uiso   1.00
C7     C     0.29665   0.16197   0.14549   0.00000  Uiso   1.00
C8     C     0.28147   0.13622   0.49269   0.00000  Uiso   1.00
C9     C     0.27602   0.16013   0.08617   0.00000  Uiso   1.00
C10    C     0.02823   0.22055   0.44348   0.00000  Uiso   1.00
C11    C     0.05057   0.23189   0.49969   0.00000  Uiso   1.00
C12    C     0.14449   0.20228   0.49045   0.00000  Uiso   1.00
C13    C     0.10727   0.22047   0.02373   0.00000  Uiso   1.00
C14    C     0.02206   0.10425   0.06623   0.00000  Uiso   1.00
C15    C     0.15786   0.10200   0.21853   0.00000  Uiso   1.00
C16    C     0.12419   0.20024   0.43295   0.00000  Uiso   1.00
C17    C     0.20015   0.18379   0.01110   0.00000  Uiso   1.00
C18    C     0.23184   0.16271   0.47390   0.00000  Uiso   1.00
C19    C     0.21512   0.17105   0.41845   0.00000  Uiso   1.00
C20    C     0.16529   0.19581   0.40001   0.00000  Uiso   1.00
C21    C     0.22445   0.18391   0.06694   0.00000  Uiso   1.00
C22    C     0.30394   0.13428   0.04890   0.00000  Uiso   1.00
H23    H     0.26860   0.33043   0.25644   0.00000  Uiso   1.00
H24    H     0.06405   0.00274   0.24230   0.00000  Uiso   1.00
H25    H     0.05497   0.03375   0.06845   0.00000  Uiso   1.00
H26    H     0.17609   0.05509   0.15838   0.00000  Uiso   1.00
H27    H     0.17687   0.21641   0.27814   0.00000  Uiso   1.00
H28    H     0.24122   0.15991   0.38978   0.00000  Uiso   1.00
H29    H     0.30370   0.11837   0.46352   0.00000  Uiso   1.00
H30    H     0.20408   0.20310   0.09631   0.00000  Uiso   1.00
H31    H     0.31673   0.22715   0.42605   0.00000  Uiso   1.00
H32    H     0.12028   0.22606   0.06798   0.00000  Uiso   1.00
H33    H     0.02272   0.24672   0.02526   0.00000  Uiso   1.00
H34    H     0.15845   0.21006   0.35953   0.00000  Uiso   1.00
N35    N     0.14493   0.15223   0.23542   0.00000  Uiso   1.00
N36    N     0.18840   0.18110   0.26457   0.00000  Uiso   1.00
O37    O     0.29769   0.24629   0.25357   0.00000  Uiso   1.00
O38    O     0.01672   0.05009   0.05554   0.00000  Uiso   1.00
O39    O     0.15793   0.06644   0.24947   0.00000  Uiso   1.00
O40    O     0.16800   0.09268   0.16585   0.00000  Uiso   1.00
O41    O     0.05742   0.23704   0.24423   0.00000  Uiso   1.00
O42    O     0.31490   0.17358   0.33380   0.00000  Uiso   1.00
O43    O     0.07463   0.16433   0.32446   0.00000  Uiso   1.00
O44    O     0.27592   0.09629   0.25576   0.00000  Uiso   1.00
O45    O     0.03565   0.08704   0.24642   0.00000  Uiso   1.00
O46    O     0.25870   0.16901   0.17554   0.00000  Uiso   1.00
O47    O     0.01843   0.15976   0.16620   0.00000  Uiso   1.00
O48    O     0.06948   0.12686   0.08738   0.00000  Uiso   1.00
Zn49   Zn    0.27119   0.17284   0.25623   0.00000  Uiso   1.00
Zn50   Zn    0.06214   0.16049   0.24376   0.00000  Uiso   1.00
C51    C     0.34796   0.26478   0.24839   0.00000  Uiso   1.00
C52    C     0.39697   0.20060   0.41033   0.00000  Uiso   1.00
C53    C     0.35538   0.31926   0.24709   0.00000  Uiso   1.00
C54    C     0.37155   0.17876   0.35342   0.00000  Uiso   1.00
C55    C     0.64408   0.01397   0.25184   0.00000  Uiso   1.00
C56    C     0.65188   0.06852   0.25123   0.00000  Uiso   1.00
C57    C     0.62998   0.16197   0.14549   0.00000  Uiso   1.00
C58    C     0.61480   0.13622   0.49269   0.00000  Uiso   1.00
C59    C     0.60935   0.16013   0.08617   0.00000  Uiso   1.00
C60    C     0.36156   0.22055   0.44348   0.00000  Uiso   1.00
C61    C     0.38390   0.23189   0.49969   0.00000  Uiso   1.00
C62    C     0.47783   0.20228   0.49045   0.00000  Uiso   1.00
C63    C     0.44060   0.22047   0.02373   0.00000  Uiso   1.00
C64    C     0.35539   0.10425   0.06623   0.00000  Uiso   1.00
C65    C     0.49119   0.10200   0.21853   0.00000  Uiso   1.00
C66    C     0.45753   0.20024   0.43295   0.00000  Uiso   1.00
C67    C     0.53349   0.18379   0.01110   0.00000  Uiso   1.00
C68    C     0.56517   0.16271   0.47390   0.00000  Uiso   1.00
C69    C     0.54845   0.17105   0.41845   0.00000  Uiso   1.00
C70    C     0.49862   0.19581   0.40001   0.00000  Uiso   1.00
C71    C     0.55778   0.18391   0.06694   0.00000  Uiso   1.00
C72    C     0.63727   0.13428   0.04890   0.00000  Uiso   1.00
H73    H     0.60194   0.33043   0.25644   0.00000  Uiso   1.00
H74    H     0.39738   0.00274   0.24230   0.00000  Uiso   1.00
H75    H     0.38831   0.03375   0.06845   0.00000  Uiso   1.00
H76    H     0.50943   0.05509   0.15838   0.00000  Uiso   1.00
H77    H     0.51020   0.21641   0.27814   0.00000  Uiso   1.00
H78    H     0.57456   0.15991   0.38978   0.00000  Uiso   1.00
H79    H     0.63704   0.11837   0.46352   0.00000  Uiso   1.00
H80    H     0.53741   0.20310   0.09631   0.00000  Uiso   1.00
H81    H     0.65006   0.22715   0.42605   0.00000  Uiso   1.00
H82    H     0.45361   0.22606   0.06798   0.00000  Uiso   1.00
H83    H     0.35606   0.24672   0.02526   0.00000  Uiso   1.00
H84    H     0.49178   0.21006   0.35953   0.00000  Uiso   1.00
N85    N     0.47827   0.15223   0.23542   0.00000  Uiso   1.00
N86    N     0.52173   0.18110   0.26457   0.00000  Uiso   1.00
O87    O     0.63102   0.24629   0.25357   0.00000  Uiso   1.00
O88    O     0.35006   0.05009   0.05554   0.00000  Uiso   1.00
O89    O     0.49127   0.06644   0.24947   0.00000  Uiso   1.00
O90    O     0.50133   0.09268   0.16585   0.00000  Uiso   1.00
O91    O     0.39075   0.23704   0.24423   0.00000  Uiso   1.00
O92    O     0.64823   0.17358   0.33380   0.00000  Uiso   1.00
O93    O     0.40796   0.16433   0.32446   0.00000  Uiso   1.00
O94    O     0.60925   0.09629   0.25576   0.00000  Uiso   1.00
O95    O     0.36898   0.08704   0.24642   0.00000  Uiso   1.00
O96    O     0.59204   0.16901   0.17554   0.00000  Uiso   1.00
O97    O     0.35177   0.15976   0.16620   0.00000  Uiso   1.00
O98    O     0.40282   0.12686   0.08738   0.00000  Uiso   1.00
Zn99   Zn    0.60453   0.17284   0.25623   0.00000  Uiso   1.00
Zn100  Zn    0.39547   0.16049   0.24376   0.00000  Uiso   1.00
C101   C     0.68129   0.26478   0.24839   0.00000  Uiso   1.00
C102   C     0.73031   0.20060   0.41033   0.00000  Uiso   1.00
C103   C     0.68871   0.31926   0.24709   0.00000  Uiso   1.00
C104   C     0.70488   0.17876   0.35342   0.00000  Uiso   1.00
C105   C     0.97742   0.01397   0.25184   0.00000  Uiso   1.00
C106   C     0.98522   0.06852   0.25123   0.00000  Uiso   1.00
C107   C     0.96331   0.16197   0.14549   0.00000  Uiso   1.00
C108   C     0.94814   0.13622   0.49269   0.00000  Uiso   1.00
C109   C     0.94269   0.16013   0.08617   0.00000  Uiso   1.00
C110   C     0.69489   0.22055   0.44348   0.00000  Uiso   1.00
C111   C     0.71723   0.23189   0.49969   0.00000  Uiso   1.00
C112   C     0.81116   0.20228   0.49045   0.00000  Uiso   1.00
C113   C     0.77394   0.22047   0.02373   0.00000  Uiso   1.00
C114   C     0.68872   0.10425   0.06623   0.00000  Uiso   1.00
C115   C     0.82452   0.10200   0.21853   0.00000  Uiso   1.00
C116   C     0.79086   0.20024   0.43295   0.00000  Uiso   1.00
C117   C     0.86682   0.18379   0.01110   0.00000  Uiso   1.00
C118   C     0.89851   0.16271   0.47390   0.00000  Uiso   1.00
C119   C     0.88179   0.17105   0.41845   0.00000  Uiso   1.00
C120   C     0.83195   0.19581   0.40001   0.00000  Uiso   1.00
C121   C     0.89111   0.18391   0.06694   0.00000  Uiso   1.00
C122   C     0.97061   0.13428   0.04890   0.00000  Uiso   1.00
H123   H     0.93527   0.33043   0.25644   0.00000  Uiso   1.00
H124   H     0.73071   0.00274   0.24230   0.00000  Uiso   1.00
H125   H     0.72164   0.03375   0.06845   0.00000  Uiso   1.00
H126   H     0.84276   0.05509   0.15838   0.00000  Uiso   1.00
H127   H     0.84353   0.21641   0.27814   0.00000  Uiso   1.00
H128   H     0.90789   0.15991   0.38978   0.00000  Uiso   1.00
H129   H     0.97037   0.11837   0.46352   0.00000  Uiso   1.00
H130   H     0.87075   0.20310   0.09631   0.00000  Uiso   1.00
H131   H     0.98339   0.22715   0.42605   0.00000  Uiso   1.00
H132   H     0.78694   0.22606   0.06798   0.00000  Uiso   1.00
H133   H     0.68939   0.24672   0.02526   0.00000  Uiso   1.00
H134   H     0.82511   0.21006   0.35953   0.00000  Uiso   1.00
N135   N     0.81160   0.15223   0.23542   0.00000  Uiso   1.00
N136   N     0.85507   0.18110   0.26457   0.00000  Uiso   1.00
O137   O     0.96435   0.24629   0.25357   0.00000  Uiso   1.00
O138   O     0.68339   0.05009   0.05554   0.00000  Uiso   1.00
O139   O     0.82460   0.06644   0.24947   0.00000  Uiso   1.00
O140   O     0.83466   0.09268   0.16585   0.00000  Uiso   1.00
O141   O     0.72408   0.23704   0.24423   0.00000  Uiso   1.00
O142   O     0.98157   0.17358   0.33380   0.00000  Uiso   1.00
O143   O     0.74130   0.16433   0.32446   0.00000  Uiso   1.00
O144   O     0.94258   0.09629   0.25576   0.00000  Uiso   1.00
O145   O     0.70231   0.08704   0.24642   0.00000  Uiso   1.00
O146   O     0.92537   0.16901   0.17554   0.00000  Uiso   1.00
O147   O     0.68510   0.15976   0.16620   0.00000  Uiso   1.00
O148   O     0.73615   0.12686   0.08738   0.00000  Uiso   1.00
Zn149  Zn    0.93786   0.17284   0.25623   0.00000  Uiso   1.00
Zn150  Zn    0.72881   0.16049   0.24376   0.00000  Uiso   1.00
C151   C     0.01462   0.59812   0.24839   0.00000  Uiso   1.00
C152   C     0.06364   0.53394   0.41033   0.00000  Uiso   1.00
C153   C     0.02204   0.65259   0.24709   0.00000  Uiso   1.00
C154   C     0.03822   0.51210   0.35342   0.00000  Uiso   1.00
C155   C     0.31075   0.34730   0.25184   0.00000  Uiso   1.00
C156   C     0.31855   0.40185   0.25123   0.00000  Uiso   1.00
C157   C     0.29665   0.49531   0.14549   0.00000  Uiso   1.00
C158   C     0.28147   0.46956   0.49269   0.00000  Uiso   1.00
C159   C     0.27602   0.49347   0.08617   0.00000  Uiso   1.00
C160   C     0.02823   0.55388   0.44348   0.00000  Uiso   1.00
C161   C     0.05057   0.56523   0.49969   0.00000  Uiso   1.00
C162   C     0.14449   0.53562   0.49045   0.00000  Uiso   1.00
C163   C     0.10727   0.55381   0.02373   0.00000  Uiso   1.00
C164   C     0.02206   0.43758   0.06623   0.00000  Uiso   1.00
C165   C     0.15786   0.43534   0.21853   0.00000  Uiso   1.00
C166   C     0.12419   0.53358   0.43295   0.00000  Uiso   1.00
C167   C     0.20015   0.51713   0.01110   0.00000  Uiso   1.00
C168   C     0.23184   0.49604   0.47390   0.00000  Uiso   1.00
C169   C     0.21512   0.50438   0.41845   0.00000  Uiso   1.00
C170   C     0.16529   0.52915   0.40001   0.00000  Uiso   1.00
C171   C     0.22445   0.51724   0.06694   0.00000  Uiso   1.00
C172   C     0.30394   0.46761   0.04890   0.00000  Uiso   1.00
H173   H     0.26860   0.66376   0.25644   0.00000  Uiso   1.00
H174   H     0.06405   0.33607   0.24230   0.00000  Uiso   1.00
H175   H     0.05497   0.36709   0.06845   0.00000  Uiso   1.00
H176   H     0.17609   0.38842   0.15838   0.00000  Uiso   1.00
H177   H     0.17687   0.54974   0.27814   0.00000  Uiso   1.00
H178   H     0.24122   0.49324   0.38978   0.00000  Uiso   1.00
H179   H     0.30370   0.45171   0.46352   0.00000  Uiso   1.00
H180   H     0.20408   0.53643   0.09631   0.00000  Uiso   1.00
H181   H     0.31673   0.56048   0.42605   0.00000  Uiso   1.00
H182   H     0.12028   0.55940   0.06798   0.00000  Uiso   1.00
H183   H     0.02272   0.58005   0.02526   0.00000  Uiso   1.00
H184   H     0.15845   0.54339   0.35953   0.00000  Uiso   1.00
N185   N     0.14493   0.48556   0.23542   0.00000  Uiso   1.00
N186   N     0.18840   0.51444   0.26457   0.00000  Uiso   1.00
O187   O     0.29769   0.57963   0.25357   0.00000  Uiso   1.00
O188   O     0.01672   0.38342   0.05554   0.00000  Uiso   1.00
O189   O     0.15793   0.39978   0.24947   0.00000  Uiso   1.00
O190   O     0.16800   0.42602   0.16585   0.00000  Uiso   1.00
O191   O     0.05742   0.57038   0.24423   0.00000  Uiso   1.00
O192   O     0.31490   0.50691   0.33380   0.00000  Uiso   1.00
O193   O     0.07463   0.49766   0.32446   0.00000  Uiso   1.00
O194   O     0.27592   0.42962   0.25576   0.00000  Uiso   1.00
O195   O     0.03565   0.42037   0.24642   0.00000  Uiso   1.00
O196   O     0.25870   0.50234   0.17554   0.00000  Uiso   1.00
O197   O     0.01843   0.49309   0.16620   0.00000  Uiso   1.00
O198   O     0.06948   0.46019   0.08738   0.00000  Uiso   1.00
Zn199  Zn    0.27119   0.50618   0.25623   0.00000  Uiso   1.00
Zn200  Zn    0.06214   0.49382   0.24376   0.00000  Uiso   1.00
C201   C     0.34796   0.59812   0.24839   0.00000  Uiso   1.00
C202   C     0.39697   0.53394   0.41033   0.00000  Uiso   1.00
C203   C     0.35538   0.65259   0.24709   0.00000  Uiso   1.00
C204   C     0.37155   0.51210   0.35342   0.00000  Uiso   1.00
C205   C     0.64408   0.34730   0.25184   0.00000  Uiso   1.00
C206   C     0.65188   0.40185   0.25123   0.00000  Uiso   1.00
C207   C     0.62998   0.49531   0.14549   0.00000  Uiso   1.00
C208   C     0.61480   0.46956   0.49269   0.00000  Uiso   1.00
C209   C     0.60935   0.49347   0.08617   0.00000  Uiso   1.00
C210   C     0.36156   0.55388   0.44348   0.00000  Uiso   1.00
C211   C     0.38390   0.56523   0.49969   0.00000  Uiso   1.00
C212   C     0.47783   0.53562   0.49045   0.00000  Uiso   1.00
C213   C     0.44060   0.55381   0.02373   0.00000  Uiso   1.00
C214   C     0.35539   0.43758   0.06623   0.00000  Uiso   1.00
C215   C     0.49119   0.43534   0.21853   0.00000  Uiso   1.00
C216   C     0.45753   0.53358   0.43295   0.00000  Uiso   1.00
C217   C     0.53349   0.51713   0.01110   0.00000  Uiso   1.00
C218   C     0.56517   0.49604   0.47390   0.00000  Uiso   1.00
C219   C     0.54845   0.50438   0.41845   0.00000  Uiso   1.00
C220   C     0.49862   0.52915   0.40001   0.00000  Uiso   1.00
C221   C     0.55778   0.51724   0.06694   0.00000  Uiso   1.00
C222   C     0.63727   0.46761   0.04890   0.00000  Uiso   1.00
H223   H     0.60194   0.66376   0.25644   0.00000  Uiso   1.00
H224   H     0.39738   0.33607   0.24230   0.00000  Uiso   1.00
H225   H     0.38831   0.36709   0.06845   0.00000  Uiso   1.00
H226   H     0.50943   0.38842   0.15838   0.00000  Uiso   1.00
H227   H     0.51020   0.54974   0.27814   0.00000  Uiso   1.00
H228   H     0.57456   0.49324   0.38978   0.00000  Uiso   1.00
H229   H     0.63704   0.45171   0.46352   0.00000  Uiso   1.00
H230   H     0.53741   0.53643   0.09631   0.00000  Uiso   1.00
H231   H     0.65006   0.56048   0.42605   0.00000  Uiso   1.00
H232   H     0.45361   0.55940   0.06798   0.00000  Uiso   1.00
H233   H     0.35606   0.58005   0.02526   0.00000  Uiso   1.00
H234   H     0.49178   0.54339   0.35953   0.00000  Uiso   1.00
N235   N     0.47827   0.48556   0.23542   0.00000  Uiso   1.00
N236   N     0.52173   0.51444   0.26457   0.00000  Uiso   1.00
O237   O     0.63102   0.57963   0.25357   0.00000  Uiso   1.00
O238   O     0.35006   0.38342   0.05554   0.00000  Uiso   1.00
O239   O     0.49127   0.39978   0.24947   0.00000  Uiso   1.00
O240   O     0.50133   0.42602   0.16585   0.00000  Uiso   1.00
O241   O     0.39075   0.57038   0.24423   0.00000  Uiso   1.00
O242   O     0.64823   0.50691   0.33380   0.00000  Uiso   1.00
O243   O     0.40796   0.49766   0.32446   0.00000  Uiso   1.00
O244   O     0.60925   0.42962   0.25576   0.00000  Uiso   1.00
O245   O     0.36898   0.42037   0.24642   0.00000  Uiso   1.00
O246   O     0.59204   0.50234   0.17554   0.00000  Uiso   1.00
O247   O     0.35177   0.49309   0.16620   0.00000  Uiso   1.00
O248   O     0.40282   0.46019   0.08738   0.00000  Uiso   1.00
Zn249  Zn    0.60453   0.50618   0.25623   0.00000  Uiso   1.00
Zn250  Zn    0.39547   0.49382   0.24376   0.00000  Uiso   1.00
C251   C     0.68129   0.59812   0.24839   0.00000  Uiso   1.00
C252   C     0.73031   0.53394   0.41033   0.00000  Uiso   1.00
C253   C     0.68871   0.65259   0.24709   0.00000  Uiso   1.00
C254   C     0.70488   0.51210   0.35342   0.00000  Uiso   1.00
C255   C     0.97742   0.34730   0.25184   0.00000  Uiso   1.00
C256   C     0.98522   0.40185   0.25123   0.00000  Uiso   1.00
C257   C     0.96331   0.49531   0.14549   0.00000  Uiso   1.00
C258   C     0.94814   0.46956   0.49269   0.00000  Uiso   1.00
C259   C     0.94269   0.49347   0.08617   0.00000  Uiso   1.00
C260   C     0.69489   0.55388   0.44348   0.00000  Uiso   1.00
C261   C     0.71723   0.56523   0.49969   0.00000  Uiso   1.00
C262   C     0.81116   0.53562   0.49045   0.00000  Uiso   1.00
C263   C     0.77394   0.55381   0.02373   0.00000  Uiso   1.00
C264   C     0.68872   0.43758   0.06623   0.00000  Uiso   1.00
C265   C     0.82452   0.43534   0.21853   0.00000  Uiso   1.00
C266   C     0.79086   0.53358   0.43295   0.00000  Uiso   1.00
C267   C     0.86682   0.51713   0.01110   0.00000  Uiso   1.00
C268   C     0.89851   0.49604   0.47390   0.00000  Uiso   1.00
C269   C     0.88179   0.50438   0.41845   0.00000  Uiso   1.00
C270   C     0.83195   0.52915   0.40001   0.00000  Uiso   1.00
C271   C     0.89111   0.51724   0.06694   0.00000  Uiso   1.00
C272   C     0.97061   0.46761   0.04890   0.00000  Uiso   1.00
H273   H     0.93527   0.66376   0.25644   0.00000  Uiso   1.00
H274   H     0.73071   0.33607   0.24230   0.00000  Uiso   1.00
H275   H     0.72164   0.36709   0.06845   0.00000  Uiso   1.00
H276   H     0.84276   0.38842   0.15838   0.00000  Uiso   1.00
H277   H     0.84353   0.54974   0.27814   0.00000  Uiso   1.00
H278   H     0.90789   0.49324   0.38978   0.00000  Uiso   1.00
H279   H     0.97037   0.45171   0.46352   0.00000  Uiso   1.00
H280   H     0.87075   0.53643   0.09631   0.00000  Uiso   1.00
H281   H     0.98339   0.56048   0.42605   0.00000  Uiso   1.00
H282   H     0.78694   0.55940   0.06798   0.00000  Uiso   1.00
H283   H     0.68939   0.58005   0.02526   0.00000  Uiso   1.00
H284   H     0.82511   0.54339   0.35953   0.00000  Uiso   1.00
N285   N     0.81160   0.48556   0.23542   0.00000  Uiso   1.00
N286   N     0.85507   0.51444   0.26457   0.00000  Uiso   1.00
O287   O     0.96435   0.57963   0.25357   0.00000  Uiso   1.00
O288   O     0.68339   0.38342   0.05554   0.00000  Uiso   1.00
O289   O     0.82460   0.39978   0.24947   0.00000  Uiso   1.00
O290   O     0.83466   0.42602   0.16585   0.00000  Uiso   1.00
O291   O     0.72408   0.57038   0.24423   0.00000  Uiso   1.00
O292   O     0.98157   0.50691   0.33380   0.00000  Uiso   1.00
O293   O     0.74130   0.49766   0.32446   0.00000  Uiso   1.00
O294   O     0.94258   0.42962   0.25576   0.00000  Uiso   1.00
O295   O     0.70231   0.42037   0.24642   0.00000  Uiso   1.00
O296   O     0.92537   0.50234   0.17554   0.00000  Uiso   1.00
O297   O     0.68510   0.49309   0.16620   0.00000  Uiso   1.00
O298   O     0.73615   0.46019   0.08738   0.00000  Uiso   1.00
Zn299  Zn    0.93786   0.50618   0.25623   0.00000  Uiso   1.00
Zn300  Zn    0.72881   0.49382   0.24376   0.00000  Uiso   1.00
C301   C     0.01462   0.93145   0.24839   0.00000  Uiso   1.00
C302   C     0.06364   0.86727   0.41033   0.00000  Uiso   1.00
C303   C     0.02204   0.98593   0.24709   0.00000  Uiso   1.00
C304   C     0.03822   0.84543   0.35342   0.00000  Uiso   1.00
C305   C     0.31075   0.68064   0.25184   0.00000  Uiso   1.00
C306   C     0.31855   0.73519   0.25123   0.00000  Uiso   1.00
C307   C     0.29665   0.82864   0.14549   0.00000  Uiso   1.00
C308   C     0.28147   0.80289   0.49269   0.00000  Uiso   1.00
C309   C     0.27602   0.82680   0.08617   0.00000  Uiso   1.00
C310   C     0.02823   0.88721   0.44348   0.00000  Uiso   1.00
C311   C     0.05057   0.89856   0.49969   0.00000  Uiso   1.00
C312   C     0.14449   0.86895   0.49045   0.00000  Uiso   1.00
C313   C     0.10727   0.88714   0.02373   0.00000  Uiso   1.00
C314   C     0.02206   0.77091   0.06623   0.00000  Uiso   1.00
C315   C     0.15786   0.76867   0.21853   0.00000  Uiso   1.00
C316   C     0.12419   0.86691   0.43295   0.00000  Uiso   1.00
C317   C     0.20015   0.85046   0.01110   0.00000  Uiso   1.00
C318   C     0.23184   0.82938   0.47390   0.00000  Uiso   1.00
C319   C     0.21512   0.83771   0.41845   0.00000  Uiso   1.00
C320   C     0.16529   0.86248   0.40001   0.00000  Uiso   1.00
C321   C     0.22445   0.85057   0.06694   0.00000  Uiso   1.00
C322   C     0.30394   0.80095   0.04890   0.00000  Uiso   1.00
H323   H     0.26860   0.99709   0.25644   0.00000  Uiso   1.00
H324   H     0.06405   0.66941   0.24230   0.00000  Uiso   1.00
H325   H     0.05497   0.70042   0.06845   0.00000  Uiso   1.00
H326   H     0.17609   0.72176   0.15838   0.00000  Uiso   1.00
H327   H     0.17687   0.88308   0.27814   0.00000  Uiso   1.00
H328   H     0.24122   0.82658   0.38978   0.00000  Uiso   1.00
H329   H     0.30370   0.78504   0.46352   0.00000  Uiso   1.00
H330   H     0.20408   0.86977   0.09631   0.00000  Uiso   1.00
H331   H     0.31673   0.89381   0.42605   0.00000  Uiso   1.00
H332   H     0.12028   0.89273   0.06798   0.00000  Uiso   1.00
H333   H     0.02272   0.91339   0.02526   0.00000  Uiso   1.00
H334   H     0.15845   0.87673   0.35953   0.00000  Uiso   1.00
N335   N     0.14493   0.81890   0.23542   0.00000  Uiso   1.00
N336   N     0.18840   0.84777   0.26457   0.00000  Uiso   1.00
O337   O     0.29769   0.91296   0.25357   0.00000  Uiso   1.00
O338   O     0.01672   0.71675   0.05554   0.00000  Uiso   1.00
O339   O     0.15793   0.73311   0.24947   0.00000  Uiso   1.00
O340   O     0.16800   0.75935   0.16585   0.00000  Uiso   1.00
O341   O     0.05742   0.90371   0.24423   0.00000  Uiso   1.00
O342   O     0.31490   0.84024   0.33380   0.00000  Uiso   1.00
O343   O     0.07463   0.83099   0.32446   0.00000  Uiso   1.00
O344   O     0.27592   0.76296   0.25576   0.00000  Uiso   1.00
O345   O     0.03565   0.75371   0.24642   0.00000  Uiso   1.00
O346   O     0.25870   0.83567   0.17554   0.00000  Uiso   1.00
O347   O     0.01843   0.82642   0.16620   0.00000  Uiso   1.00
O348   O     0.06948   0.79352   0.08738   0.00000  Uiso   1.00
Zn349  Zn    0.27119   0.83951   0.25623   0.00000  Uiso   1.00
Zn350  Zn    0.06214   0.82716   0.24376   0.00000  Uiso   1.00
C351   C     0.34796   0.93145   0.24839   0.00000  Uiso   1.00
C352   C     0.39697   0.86727   0.41033   0.00000  Uiso   1.00
C353   C     0.35538   0.98593   0.24709   0.00000  Uiso   1.00
C354   C     0.37155   0.84543   0.35342   0.00000  Uiso   1.00
C355   C     0.64408   0.68064   0.25184   0.00000  Uiso   1.00
C356   C     0.65188   0.73519   0.25123   0.00000  Uiso   1.00
C357   C     0.62998   0.82864   0.14549   0.00000  Uiso   1.00
C358   C     0.61480   0.80289   0.49269   0.00000  Uiso   1.00
C359   C     0.60935   0.82680   0.08617   0.00000  Uiso   1.00
C360   C     0.36156   0.88721   0.44348   0.00000  Uiso   1.00
C361   C     0.38390   0.89856   0.49969   0.00000  Uiso   1.00
C362   C     0.47783   0.86895   0.49045   0.00000  Uiso   1.00
C363   C     0.44060   0.88714   0.02373   0.00000  Uiso   1.00
C364   C     0.35539   0.77091   0.06623   0.00000  Uiso   1.00
C365   C     0.49119   0.76867   0.21853   0.00000  Uiso   1.00
C366   C     0.45753   0.86691   0.43295   0.00000  Uiso   1.00
C367   C     0.53349   0.85046   0.01110   0.00000  Uiso   1.00
C368   C     0.56517   0.82938   0.47390   0.00000  Uiso   1.00
C369   C     0.54845   0.83771   0.41845   0.00000  Uiso   1.00
C370   C     0.49862   0.86248   0.40001   0.00000  Uiso   1.00
C371   C     0.55778   0.85057   0.06694   0.00000  Uiso   1.00
C372   C     0.63727   0.80095   0.04890   0.00000  Uiso   1.00
H373   H     0.60194   0.99709   0.25644   0.00000  Uiso   1.00
H374   H     0.39738   0.66941   0.24230   0.00000  Uiso   1.00
H375   H     0.38831   0.70042   0.06845   0.00000  Uiso   1.00
H376   H     0.50943   0.72176   0.15838   0.00000  Uiso   1.00
H377   H     0.51020   0.88308   0.27814   0.00000  Uiso   1.00
H378   H     0.57456   0.82658   0.38978   0.00000  Uiso   1.00
H379   H     0.63704   0.78504   0.46352   0.00000  Uiso   1.00
H380   H     0.53741   0.86977   0.09631   0.00000  Uiso   1.00
H381   H     0.65006   0.89381   0.42605   0.00000  Uiso   1.00
H382   H     0.45361   0.89273   0.06798   0.00000  Uiso   1.00
H383   H     0.35606   0.91339   0.02526   0.00000  Uiso   1.00
H384   H     0.49178   0.87673   0.35953   0.00000  Uiso   1.00
N385   N     0.47827   0.81890   0.23542   0.00000  Uiso   1.00
N386   N     0.52173   0.84777   0.26457   0.00000  Uiso   1.00
O387   O     0.63102   0.91296   0.25357   0.00000  Uiso   1.00
O388   O     0.35006   0.71675   0.05554   0.00000  Uiso   1.00
O389   O     0.49127   0.73311   0.24947   0.00000  Uiso   1.00
O390   O     0.50133   0.75935   0.16585   0.00000  Uiso   1.00
O391   O     0.39075   0.90371   0.24423   0.00000  Uiso   1.00
O392   O     0.64823   0.84024   0.33380   0.00000  Uiso   1.00
O393   O     0.40796   0.83099   0.32446   0.00000  Uiso   1.00
O394   O     0.60925   0.76296   0.25576   0.00000  Uiso   1.00
O395   O     0.36898   0.75371   0.24642   0.00000  Uiso   1.00
O396   O     0.59204   0.83567   0.17554   0.00000  Uiso   1.00
O397   O     0.35177   0.82642   0.16620   0.00000  Uiso   1.00
O398   O     0.40282   0.79352   0.08738   0.00000  Uiso   1.00
Zn399  Zn    0.60453   0.83951   0.25623   0.00000  Uiso   1.00
Zn400  Zn    0.39547   0.82716   0.24376   0.00000  Uiso   1.00
C401   C     0.68129   0.93145   0.24839   0.00000  Uiso   1.00
C402   C     0.73031   0.86727   0.41033   0.00000  Uiso   1.00
C403   C     0.68871   0.98593   0.24709   0.00000  Uiso   1.00
C404   C     0.70488   0.84543   0.35342   0.00000  Uiso   1.00
C405   C     0.97742   0.68064   0.25184   0.00000  Uiso   1.00
C406   C     0.98522   0.73519   0.25123   0.00000  Uiso   1.00
C407   C     0.96331   0.82864   0.14549   0.00000  Uiso   1.00
C408   C     0.94814   0.80289   0.49269   0.00000  Uiso   1.00
C409   C     0.94269   0.82680   0.08617   0.00000  Uiso   1.00
C410   C     0.69489   0.88721   0.44348   0.00000  Uiso   1.00
C411   C     0.71723   0.89856   0.49969   0.00000  Uiso   1.00
C412   C     0.81116   0.86895   0.49045   0.00000  Uiso   1.00
C413   C     0.77394   0.88714   0.02373   0.00000  Uiso   1.00
C414   C     0.68872   0.77091   0.06623   0.00000  Uiso   1.00
C415   C     0.82452   0.76867   0.21853   0.00000  Uiso   1.00
C416   C     0.79086   0.86691   0.43295   0.00000  Uiso   1.00
C417   C     0.86682   0.85046   0.01110   0.00000  Uiso   1.00
C418   C     0.89851   0.82938   0.47390   0.00000  Uiso   1.00
C419   C     0.88179   0.83771   0.41845   0.00000  Uiso   1.00
C420   C     0.83195   0.86248   0.40001   0.00000  Uiso   1.00
C421   C     0.89111   0.85057   0.06694   0.00000  Uiso   1.00
C422   C     0.97061   0.80095   0.04890   0.00000  Uiso   1.00
H423   H     0.93527   0.99709   0.25644   0.00000  Uiso   1.00
H424   H     0.73071   0.66941   0.24230   0.00000  Uiso   1.00
H425   H     0.72164   0.70042   0.06845   0.00000  Uiso   1.00
H426   H     0.84276   0.72176   0.15838   0.00000  Uiso   1.00
H427   H     0.84353   0.88308   0.27814   0.00000  Uiso   1.00
H428   H     0.90789   0.82658   0.38978   0.00000  Uiso   1.00
H429   H     0.97037   0.78504   0.46352   0.00000  Uiso   1.00
H430   H     0.87075   0.86977   0.09631   0.00000  Uiso   1.00
H431   H     0.98339   0.89381   0.42605   0.00000  Uiso   1.00
H432   H     0.78694   0.89273   0.06798   0.00000  Uiso   1.00
H433   H     0.68939   0.91339   0.02526   0.00000  Uiso   1.00
H434   H     0.82511   0.87673   0.35953   0.00000  Uiso   1.00
N435   N     0.81160   0.81890   0.23542   0.00000  Uiso   1.00
N436   N     0.85507   0.84777   0.26457   0.00000  Uiso   1.00
O437   O     0.96435   0.91296   0.25357   0.00000  Uiso   1.00
O438   O     0.68339   0.71675   0.05554   0.00000  Uiso   1.00
O439   O     0.82460   0.73311   0.24947   0.00000  Uiso   1.00
O440   O     0.83466   0.75935   0.16585   0.00000  Uiso   1.00
O441   O     0.72408   0.90371   0.24423   0.00000  Uiso   1.00
O442   O     0.98157   0.84024   0.33380   0.00000  Uiso   1.00
O443   O     0.74130   0.83099   0.32446   0.00000  Uiso   1.00
O444   O     0.94258   0.76296   0.25576   0.00000  Uiso   1.00
O445   O     0.70231   0.75371   0.24642   0.00000  Uiso   1.00
O446   O     0.92537   0.83567   0.17554   0.00000  Uiso   1.00
O447   O     0.68510   0.82642   0.16620   0.00000  Uiso   1.00
O448   O     0.73615   0.79352   0.08738   0.00000  Uiso   1.00
Zn449  Zn    0.93786   0.83951   0.25623   0.00000  Uiso   1.00
Zn450  Zn    0.72881   0.82716   0.24376   0.00000  Uiso   1.00
C451   C     0.01462   0.26478   0.74839   0.00000  Uiso   1.00
C452   C     0.06364   0.20060   0.91033   0.00000  Uiso   1.00
C453   C     0.02204   0.31926   0.74709   0.00000  Uiso   1.00
C454   C     0.03822   0.17876   0.85342   0.00000  Uiso   1.00
C455   C     0.31075   0.01397   0.75184   0.00000  Uiso   1.00
C456   C     0.31855   0.06852   0.75123   0.00000  Uiso   1.00
C457   C     0.29665   0.16197   0.64549   0.00000  Uiso   1.00
C458   C     0.28147   0.13622   0.99269   0.00000  Uiso   1.00
C459   C     0.27602   0.16013   0.58617   0.00000  Uiso   1.00
C460   C     0.02823   0.22055   0.94348   0.00000  Uiso   1.00
C461   C     0.05057   0.23189   0.99969   0.00000  Uiso   1.00
C462   C     0.14449   0.20228   0.99045   0.00000  Uiso   1.00
C463   C     0.10727   0.22047   0.52373   0.00000  Uiso   1.00
C464   C     0.02206   0.10425   0.56623   0.00000  Uiso   1.00
C465   C     0.15786   0.10200   0.71853   0.00000  Uiso   1.00
C466   C     0.12419   0.20024   0.93295   0.00000  Uiso   1.00
C467   C     0.20015   0.18379   0.51110   0.00000  Uiso   1.00
C468   C     0.23184   0.16271   0.97390   0.00000  Uiso   1.00
C469   C     0.21512   0.17105   0.91845   0.00000  Uiso   1.00
C470   C     0.16529   0.19581   0.90001   0.00000  Uiso   1.00
C471   C     0.22445   0.18391   0.56694   0.00000  Uiso   1.00
C472   C     0.30394   0.13428   0.54890   0.00000  Uiso   1.00
H473   H     0.26860   0.33043   0.75644   0.00000  Uiso   1.00
H474   H     0.06405   0.00274   0.74230   0.00000  Uiso   1.00
H475   H     0.05497   0.03375   0.56845   0.00000  Uiso   1.00
H476   H     0.17609   0.05509   0.65838   0.00000  Uiso   1.00
H477   H     0.17687   0.21641   0.77814   0.00000  Uiso   1.00
H478   H     0.24122   0.15991   0.88978   0.00000  Uiso   1.00
H479   H     0.30370   0.11837   0.96352   0.00000  Uiso   1.00
H480   H     0.20408   0.20310   0.59631   0.00000  Uiso   1.00
H481   H     0.31673   0.22715   0.92605   0.00000  Uiso   1.00
H482   H     0.12028   0.22606   0.56798   0.00000  Uiso   1.00
H483   H     0.02272   0.24672   0.52526   0.00000  Uiso   1.00
H484   H     0.15845   0.21006   0.85953   0.00000  Uiso   1.00
N485   N     0.14493   0.15223   0.73542   0.00000  Uiso   1.00
N486   N     0.18840   0.18110   0.76457   0.00000  Uiso   1.00
O487   O     0.29769   0.24629   0.75357   0.00000  Uiso   1.00
O488   O     0.01672   0.05009   0.55554   0.00000  Uiso   1.00
O489   O     0.15793   0.06644   0.74947   0.00000  Uiso   1.00
O490   O     0.16800   0.09268   0.66585   0.00000  Uiso   1.00
O491   O     0.05742   0.23704   0.74423   0.00000  Uiso   1.00
O492   O     0.31490   0.17358   0.83380   0.00000  Uiso   1.00
O493   O     0.07463   0.16433   0.82446   0.00000  Uiso   1.00
O494   O     0.27592   0.09629   0.75576   0.00000  Uiso   1.00
O495   O     0.03565   0.08704   0.74642   0.00000  Uiso   1.00
O496   O     0.25870   0.16901   0.67554   0.00000  Uiso   1.00
O497   O     0.01843   0.15976   0.66620   0.00000  Uiso   1.00
O498   O     0.06948   0.12686   0.58738   0.00000  Uiso   1.00
Zn499  Zn    0.27119   0.17284   0.75623   0.00000  Uiso   1.00
Zn500  Zn    0.06214   0.16049   0.74376   0.00000  Uiso   1.00
C501   C     0.34796   0.26478   0.74839   0.00000  Uiso   1.00
C502   C     0.39697   0.20060   0.91033   0.00000  Uiso   1.00
C503   C     0.35538   0.31926   0.74709   0.00000  Uiso   1.00
C504   C     0.37155   0.17876   0.85342   0.00000  Uiso   1.00
C505   C     0.64408   0.01397   0.75184   0.00000  Uiso   1.00
C506   C     0.65188   0.06852   0.75123   0.00000  Uiso   1.00
C507   C     0.62998   0.16197   0.64549   0.00000  Uiso   1.00
C508   C     0.61480   0.13622   0.99269   0.00000  Uiso   1.00
C509   C     0.60935   0.16013   0.58617   0.00000  Uiso   1.00
C510   C     0.36156   0.22055   0.94348   0.00000  Uiso   1.00
C511   C     0.38390   0.23189   0.99969   0.00000  Uiso   1.00
C512   C     0.47783   0.20228   0.99045   0.00000  Uiso   1.00
C513   C     0.44060   0.22047   0.52373   0.00000  Uiso   1.00
C514   C     0.35539   0.10425   0.56623   0.00000  Uiso   1.00
C515   C     0.49119   0.10200   0.71853   0.00000  Uiso   1.00
C516   C     0.45753   0.20024   0.93295   0.00000  Uiso   1.00
C517   C     0.53349   0.18379   0.51110   0.00000  Uiso   1.00
C518   C     0.56517   0.16271   0.97390   0.00000  Uiso   1.00
C519   C     0.54845   0.17105   0.91845   0.00000  Uiso   1.00
C520   C     0.49862   0.19581   0.90001   0.00000  Uiso   1.00
C521   C     0.55778   0.18391   0.56694   0.00000  Uiso   1.00
C522   C     0.63727   0.13428   0.54890   0.00000  Uiso   1.00
H523   H     0.60194   0.33043   0.75644   0.00000  Uiso   1.00
H524   H     0.39738   0.00274   0.74230   0.00000  Uiso   1.00
H525   H     0.38831   0.03375   0.56845   0.00000  Uiso   1.00
H526   H     0.50943   0.05509   0.65838   0.00000  Uiso   1.00
H527   H     0.51020   0.21641   0.77814   0.00000  Uiso   1.00
H528   H     0.57456   0.15991   0.88978   0.00000  Uiso   1.00
H529   H     0.63704   0.11837   0.96352   0.00000  Uiso   1.00
H530   H     0.53741   0.20310   0.59631   0.00000  Uiso   1.00
H531   H     0.65006   0.22715   0.92605   0.00000  Uiso   1.00
H532   H     0.45361   0.22606   0.56798   0.00000  Uiso   1.00
H533   H     0.35606   0.24672   0.52526   0.00000  Uiso   1.00
H534   H     0.49178   0.21006   0.85953   0.00000  Uiso   1.00
N535   N     0.47827   0.15223   0.73542   0.00000  Uiso   1.00
N536   N     0.52173   0.18110   0.76457   0.00000  Uiso   1.00
O537   O     0.63102   0.24629   0.75357   0.00000  Uiso   1.00
O538   O     0.35006   0.05009   0.55554   0.00000  Uiso   1.00
O539   O     0.49127   0.06644   0.74947   0.00000  Uiso   1.00
O540   O     0.50133   0.09268   0.66585   0.00000  Uiso   1.00
O541   O     0.39075   0.23704   0.74423   0.00000  Uiso   1.00
O542   O     0.64823   0.17358   0.83380   0.00000  Uiso   1.00
O543   O     0.40796   0.16433   0.82446   0.00000  Uiso   1.00
O544   O     0.60925   0.09629   0.75576   0.00000  Uiso   1.00
O545   O     0.36898   0.08704   0.74642   0.00000  Uiso   1.00
O546   O     0.59204   0.16901   0.67554   0.00000  Uiso   1.00
O547   O     0.35177   0.15976   0.66620   0.00000  Uiso   1.00
O548   O     0.40282   0.12686   0.58738   0.00000  Uiso   1.00
Zn549  Zn    0.60453   0.17284   0.75623   0.00000  Uiso   1.00
Zn550  Zn    0.39547   0.16049   0.74376   0.00000  Uiso   1.00
C551   C     0.68129   0.26478   0.74839   0.00000  Uiso   1.00
C552   C     0.73031   0.20060   0.91033   0.00000  Uiso   1.00
C553   C     0.68871   0.31926   0.74709   0.00000  Uiso   1.00
C554   C     0.70488   0.17876   0.85342   0.00000  Uiso   1.00
C555   C     0.97742   0.01397   0.75184   0.00000  Uiso   1.00
C556   C     0.98522   0.06852   0.75123   0.00000  Uiso   1.00
C557   C     0.96331   0.16197   0.64549   0.00000  Uiso   1.00
C558   C     0.94814   0.13622   0.99269   0.00000  Uiso   1.00
C559   C     0.94269   0.16013   0.58617   0.00000  Uiso   1.00
C560   C     0.69489   0.22055   0.94348   0.00000  Uiso   1.00
C561   C     0.71723   0.23189   0.99969   0.00000  Uiso   1.00
C562   C     0.81116   0.20228   0.99045   0.00000  Uiso   1.00
C563   C     0.77394   0.22047   0.52373   0.00000  Uiso   1.00
C564   C     0.68872   0.10425   0.56623   0.00000  Uiso   1.00
C565   C     0.82452   0.10200   0.71853   0.00000  Uiso   1.00
C566   C     0.79086   0.20024   0.93295   0.00000  Uiso   1.00
C567   C     0.86682   0.18379   0.51110   0.00000  Uiso   1.00
C568   C     0.89851   0.16271   0.97390   0.00000  Uiso   1.00
C569   C     0.88179   0.17105   0.91845   0.00000  Uiso   1.00
C570   C     0.83195   0.19581   0.90001   0.00000  Uiso   1.00
C571   C     0.89111   0.18391   0.56694   0.00000  Uiso   1.00
C572   C     0.97061   0.13428   0.54890   0.00000  Uiso   1.00
H573   H     0.93527   0.33043   0.75644   0.00000  Uiso   1.00
H574   H     0.73071   0.00274   0.74230   0.00000  Uiso   1.00
H575   H     0.72164   0.03375   0.56845   0.00000  Uiso   1.00
H576   H     0.84276   0.05509   0.65838   0.00000  Uiso   1.00
H577   H     0.84353   0.21641   0.77814   0.00000  Uiso   1.00
H578   H     0.90789   0.15991   0.88978   0.00000  Uiso   1.00
H579   H     0.97037   0.11837   0.96352   0.00000  Uiso   1.00
H580   H     0.87075   0.20310   0.59631   0.00000  Uiso   1.00
H581   H     0.98339   0.22715   0.92605   0.00000  Uiso   1.00
H582   H     0.78694   0.22606   0.56798   0.00000  Uiso   1.00
H583   H     0.68939   0.24672   0.52526   0.00000  Uiso   1.00
H584   H     0.82511   0.21006   0.85953   0.00000  Uiso   1.00
N585   N     0.81160   0.15223   0.73542   0.00000  Uiso   1.00
N586   N     0.85507   0.18110   0.76457   0.00000  Uiso   1.00
O587   O     0.96435   0.24629   0.75357   0.00000  Uiso   1.00
O588   O     0.68339   0.05009   0.55554   0.00000  Uiso   1.00
O589   O     0.82460   0.06644   0.74947   0.00000  Uiso   1.00
O590   O     0.83466   0.09268   0.66585   0.00000  Uiso   1.00
O591   O     0.72408   0.23704   0.74423   0.00000  Uiso   1.00
O592   O     0.98157   0.17358   0.83380   0.00000  Uiso   1.00
O593   O     0.74130   0.16433   0.82446   0.00000  Uiso   1.00
O594   O     0.94258   0.09629   0.75576   0.00000  Uiso   1.00
O595   O     0.70231   0.08704   0.74642   0.00000  Uiso   1.00
O596   O     0.92537   0.16901   0.67554   0.00000  Uiso   1.00
O597   O     0.68510   0.15976   0.66620   0.00000  Uiso   1.00
O598   O     0.73615   0.12686   0.58738   0.00000  Uiso   1.00
Zn599  Zn    0.93786   0.17284   0.75623   0.00000  Uiso   1.00
Zn600  Zn    0.72881   0.16049   0.74376   0.00000  Uiso   1.00
C601   C     0.01462   0.59812   0.74839   0.00000  Uiso   1.00
C602   C     0.06364   0.53394   0.91033   0.00000  Uiso   1.00
C603   C     0.02204   0.65259   0.74709   0.00000  Uiso   1.00
C604   C     0.03822   0.51210   0.85342   0.00000  Uiso   1.00
C605   C     0.31075   0.34730   0.75184   0.00000  Uiso   1.00
C606   C     0.31855   0.40185   0.75123   0.00000  Uiso   1.00
C607   C     0.29665   0.49531   0.64549   0.00000  Uiso   1.00
C608   C     0.28147   0.46956   0.99269   0.00000  Uiso   1.00
C609   C     0.27602   0.49347   0.58617   0.00000  Uiso   1.00
C610   C     0.02823   0.55388   0.94348   0.00000  Uiso   1.00
C611   C     0.05057   0.56523   0.99969   0.00000  Uiso   1.00
C612   C     0.14449   0.53562   0.99045   0.00000  Uiso   1.00
C613   C     0.10727   0.55381   0.52373   0.00000  Uiso   1.00
C614   C     0.02206   0.43758   0.56623   0.00000  Uiso   1.00
C615   C     0.15786   0.43534   0.71853   0.00000  Uiso   1.00
C616   C     0.12419   0.53358   0.93295   0.00000  Uiso   1.00
C617   C     0.20015   0.51713   0.51110   0.00000  Uiso   1.00
C618   C     0.23184   0.49604   0.97390   0.00000  Uiso   1.00
C619   C     0.21512   0.50438   0.91845   0.00000  Uiso   1.00
C620   C     0.16529   0.52915   0.90001   0.00000  Uiso   1.00
C621   C     0.22445   0.51724   0.56694   0.00000  Uiso   1.00
C622   C     0.30394   0.46761   0.54890   0.00000  Uiso   1.00
H623   H     0.26860   0.66376   0.75644   0.00000  Uiso   1.00
H624   H     0.06405   0.33607   0.74230   0.00000  Uiso   1.00
H625   H     0.05497   0.36709   0.56845   0.00000  Uiso   1.00
H626   H     0.17609   0.38842   0.65838   0.00000  Uiso   1.00
H627   H     0.17687   0.54974   0.77814   0.00000  Uiso   1.00
H628   H     0.24122   0.49324   0.88978   0.00000  Uiso   1.00
H629   H     0.30370   0.45171   0.96352   0.00000  Uiso   1.00
H630   H     0.20408   0.53643   0.59631   0.00000  Uiso   1.00
H631   H     0.31673   0.56048   0.92605   0.00000  Uiso   1.00
H632   H     0.12028   0.55940   0.56798   0.00000  Uiso   1.00
H633   H     0.02272   0.58005   0.52526   0.00000  Uiso   1.00
H634   H     0.15845   0.54339   0.85953   0.00000  Uiso   1.00
N635   N     0.14493   0.48556   0.73542   0.00000  Uiso   1.00
N636   N     0.18840   0.51444   0.76457   0.00000  Uiso   1.00
O637   O     0.29769   0.57963   0.75357   0.00000  Uiso   1.00
O638   O     0.01672   0.38342   0.55554   0.00000  Uiso   1.00
O639   O     0.15793   0.39978   0.74947   0.00000  Uiso   1.00
O640   O     0.16800   0.42602   0.66585   0.00000  Uiso   1.00
O641   O     0.05742   0.57038   0.74423   0.00000  Uiso   1.00
O642   O     0.31490   0.50691   0.83380   0.00000  Uiso   1.00
O643   O     0.07463   0.49766   0.82446   0.00000  Uiso   1.00
O644   O     0.27592   0.42962   0.75576   0.00000  Uiso   1.00
O645   O     0.03565   0.42037   0.74642   0.00000  Uiso   1.00
O646   O     0.25870   0.50234   0.67554   0.00000  Uiso   1.00
O647   O     0.01843   0.49309   0.66620   0.00000  Uiso   1.00
O648   O     0.06948   0.46019   0.58738   0.00000  Uiso   1.00
Zn649  Zn    0.27119   0.50618   0.75623   0.00000  Uiso   1.00
Zn650  Zn    0.06214   0.49382   0.74376   0.00000  Uiso   1.00
C651   C     0.34796   0.59812   0.74839   0.00000  Uiso   1.00
C652   C     0.39697   0.53394   0.91033   0.00000  Uiso   1.00
C653   C     0.35538   0.65259   0.74709   0.00000  Uiso   1.00
C654   C     0.37155   0.51210   0.85342   0.00000  Uiso   1.00
C655   C     0.64408   0.34730   0.75184   0.00000  Uiso   1.00
C656   C     0.65188   0.40185   0.75123   0.00000  Uiso   1.00
C657   C     0.62998   0.49531   0.64549   0.00000  Uiso   1.00
C658   C     0.61480   0.46956   0.99269   0.00000  Uiso   1.00
C659   C     0.60935   0.49347   0.58617   0.00000  Uiso   1.00
C660   C     0.36156   0.55388   0.94348   0.00000  Uiso   1.00
C661   C     0.38390   0.56523   0.99969   0.00000  Uiso   1.00
C662   C     0.47783   0.53562   0.99045   0.00000  Uiso   1.00
C663   C     0.44060   0.55381   0.52373   0.00000  Uiso   1.00
C664   C     0.35539   0.43758   0.56623   0.00000  Uiso   1.00
C665   C     0.49119   0.43534   0.71853   0.00000  Uiso   1.00
C666   C     0.45753   0.53358   0.93295   0.00000  Uiso   1.00
C667   C     0.53349   0.51713   0.51110   0.00000  Uiso   1.00
C668   C     0.56517   0.49604   0.97390   0.00000  Uiso   1.00
C669   C     0.54845   0.50438   0.91845   0.00000  Uiso   1.00
C670   C     0.49862   0.52915   0.90001   0.00000  Uiso   1.00
C671   C     0.55778   0.51724   0.56694   0.00000  Uiso   1.00
C672   C     0.63727   0.46761   0.54890   0.00000  Uiso   1.00
H673   H     0.60194   0.66376   0.75644   0.00000  Uiso   1.00
H674   H     0.39738   0.33607   0.74230   0.00000  Uiso   1.00
H675   H     0.38831   0.36709   0.56845   0.00000  Uiso   1.00
H676   H     0.50943   0.38842   0.65838   0.00000  Uiso   1.00
H677   H     0.51020   0.54974   0.77814   0.00000  Uiso   1.00
H678   H     0.57456   0.49324   0.88978   0.00000  Uiso   1.00
H679   H     0.63704   0.45171   0.96352   0.00000  Uiso   1.00
H680   H     0.53741   0.53643   0.59631   0.00000  Uiso   1.00
H681   H     0.65006   0.56048   0.92605   0.00000  Uiso   1.00
H682   H     0.45361   0.55940   0.56798   0.00000  Uiso   1.00
H683   H     0.35606   0.58005   0.52526   0.00000  Uiso   1.00
H684   H     0.49178   0.54339   0.85953   0.00000  Uiso   1.00
N685   N     0.47827   0.48556   0.73542   0.00000  Uiso   1.00
N686   N     0.52173   0.51444   0.76457   0.00000  Uiso   1.00
O687   O     0.63102   0.57963   0.75357   0.00000  Uiso   1.00
O688   O     0.35006   0.38342   0.55554   0.00000  Uiso   1.00
O689   O     0.49127   0.39978   0.74947   0.00000  Uiso   1.00
O690   O     0.50133   0.42602   0.66585   0.00000  Uiso   1.00
O691   O     0.39075   0.57038   0.74423   0.00000  Uiso   1.00
O692   O     0.64823   0.50691   0.83380   0.00000  Uiso   1.00
O693   O     0.40796   0.49766   0.82446   0.00000  Uiso   1.00
O694   O     0.60925   0.42962   0.75576   0.00000  Uiso   1.00
O695   O     0.36898   0.42037   0.74642   0.00000  Uiso   1.00
O696   O     0.59204   0.50234   0.67554   0.00000  Uiso   1.00
O697   O     0.35177   0.49309   0.66620   0.00000  Uiso   1.00
O698   O     0.40282   0.46019   0.58738   0.00000  Uiso   1.00
Zn699  Zn    0.60453   0.50618   0.75623   0.00000  Uiso   1.00
Zn700  Zn    0.39547   0.49382   0.74376   0.00000  Uiso   1.00
C701   C     0.68129   0.59812   0.74839   0.00000  Uiso   1.00
C702   C     0.73031   0.53394   0.91033   0.00000  Uiso   1.00
C703   C     0.68871   0.65259   0.74709   0.00000  Uiso   1.00
C704   C     0.70488   0.51210   0.85342   0.00000  Uiso   1.00
C705   C     0.97742   0.34730   0.75184   0.00000  Uiso   1.00
C706   C     0.98522   0.40185   0.75123   0.00000  Uiso   1.00
C707   C     0.96331   0.49531   0.64549   0.00000  Uiso   1.00
C708   C     0.94814   0.46956   0.99269   0.00000  Uiso   1.00
C709   C     0.94269   0.49347   0.58617   0.00000  Uiso   1.00
C710   C     0.69489   0.55388   0.94348   0.00000  Uiso   1.00
C711   C     0.71723   0.56523   0.99969   0.00000  Uiso   1.00
C712   C     0.81116   0.53562   0.99045   0.00000  Uiso   1.00
C713   C     0.77394   0.55381   0.52373   0.00000  Uiso   1.00
C714   C     0.68872   0.43758   0.56623   0.00000  Uiso   1.00
C715   C     0.82452   0.43534   0.71853   0.00000  Uiso   1.00
C716   C     0.79086   0.53358   0.93295   0.00000  Uiso   1.00
C717   C     0.86682   0.51713   0.51110   0.00000  Uiso   1.00
C718   C     0.89851   0.49604   0.97390   0.00000  Uiso   1.00
C719   C     0.88179   0.50438   0.91845   0.00000  Uiso   1.00
C720   C     0.83195   0.52915   0.90001   0.00000  Uiso   1.00
C721   C     0.89111   0.51724   0.56694   0.00000  Uiso   1.00
C722   C     0.97061   0.46761   0.54890   0.00000  Uiso   1.00
H723   H     0.93527   0.66376   0.75644   0.00000  Uiso   1.00
H724   H     0.73071   0.33607   0.74230   0.00000  Uiso   1.00
H725   H     0.72164   0.36709   0.56845   0.00000  Uiso   1.00
H726   H     0.84276   0.38842   0.65838   0.00000  Uiso   1.00
H727   H     0.84353   0.54974   0.77814   0.00000  Uiso   1.00
H728   H     0.90789   0.49324   0.88978   0.00000  Uiso   1.00
H729   H     0.97037   0.45171   0.96352   0.00000  Uiso   1.00
H730   H     0.87075   0.53643   0.59631   0.00000  Uiso   1.00
H731   H     0.98339   0.56048   0.92605   0.00000  Uiso   1.00
H732   H     0.78694   0.55940   0.56798   0.00000  Uiso   1.00
H733   H     0.68939   0.58005   0.52526   0.00000  Uiso   1.00
H734   H     0.82511   0.54339   0.85953   0.00000  Uiso   1.00
N735   N     0.81160   0.48556   0.73542   0.00000  Uiso   1.00
N736   N     0.85507   0.51444   0.76457   0.00000  Uiso   1.00
O737   O     0.96435   0.57963   0.75357   0.00000  Uiso   1.00
O738   O     0.68339   0.38342   0.55554   0.00000  Uiso   1.00
O739   O     0.82460   0.39978   0.74947   0.00000  Uiso   1.00
O740   O     0.83466   0.42602   0.66585   0.00000  Uiso   1.00
O741   O     0.72408   0.57038   0.74423   0.00000  Uiso   1.00
O742   O     0.98157   0.50691   0.83380   0.00000  Uiso   1.00
O743   O     0.74130   0.49766   0.82446   0.00000  Uiso   1.00
O744   O     0.94258   0.42962   0.75576   0.00000  Uiso   1.00
O745   O     0.70231   0.42037   0.74642   0.00000  Uiso   1.00
O746   O     0.92537   0.50234   0.67554   0.00000  Uiso   1.00
O747   O     0.68510   0.49309   0.66620   0.00000  Uiso   1.00
O748   O     0.73615   0.46019   0.58738   0.00000  Uiso   1.00
Zn749  Zn    0.93786   0.50618   0.75623   0.00000  Uiso   1.00
Zn750  Zn    0.72881   0.49382   0.74376   0.00000  Uiso   1.00
C751   C     0.01462   0.93145   0.74839   0.00000  Uiso   1.00
C752   C     0.06364   0.86727   0.91033   0.00000  Uiso   1.00
C753   C     0.02204   0.98593   0.74709   0.00000  Uiso   1.00
C754   C     0.03822   0.84543   0.85342   0.00000  Uiso   1.00
C755   C     0.31075   0.68064   0.75184   0.00000  Uiso   1.00
C756   C     0.31855   0.73519   0.75123   0.00000  Uiso   1.00
C757   C     0.29665   0.82864   0.64549   0.00000  Uiso   1.00
C758   C     0.28147   0.80289   0.99269   0.00000  Uiso   1.00
C759   C     0.27602   0.82680   0.58617   0.00000  Uiso   1.00
C760   C     0.02823   0.88721   0.94348   0.00000  Uiso   1.00
C761   C     0.05057   0.89856   0.99969   0.00000  Uiso   1.00
C762   C     0.14449   0.86895   0.99045   0.00000  Uiso   1.00
C763   C     0.10727   0.88714   0.52373   0.00000  Uiso   1.00
C764   C     0.02206   0.77091   0.56623   0.00000  Uiso   1.00
C765   C     0.15786   0.76867   0.71853   0.00000  Uiso   1.00
C766   C     0.12419   0.86691   0.93295   0.00000  Uiso   1.00
C767   C     0.20015   0.85046   0.51110   0.00000  Uiso   1.00
C768   C     0.23184   0.82938   0.97390   0.00000  Uiso   1.00
C769   C     0.21512   0.83771   0.91845   0.00000  Uiso   1.00
C770   C     0.16529   0.86248   0.90001   0.00000  Uiso   1.00
C771   C     0.22445   0.85057   0.56694   0.00000  Uiso   1.00
C772   C     0.30394   0.80095   0.54890   0.00000  Uiso   1.00
H773   H     0.26860   0.99709   0.75644   0.00000  Uiso   1.00
H774   H     0.06405   0.66941   0.74230   0.00000  Uiso   1.00
H775   H     0.05497   0.70042   0.56845   0.00000  Uiso   1.00
H776   H     0.17609   0.72176   0.65838   0.00000  Uiso   1.00
H777   H     0.17687   0.88308   0.77814   0.00000  Uiso   1.00
H778   H     0.24122   0.82658   0.88978   0.00000  Uiso   1.00
H779   H     0.30370   0.78504   0.96352   0.00000  Uiso   1.00
H780   H     0.20408   0.86977   0.59631   0.00000  Uiso   1.00
H781   H     0.31673   0.89381   0.92605   0.00000  Uiso   1.00
H782   H     0.12028   0.89273   0.56798   0.00000  Uiso   1.00
H783   H     0.02272   0.91339   0.52526   0.00000  Uiso   1.00
H784   H     0.15845   0.87673   0.85953   0.00000  Uiso   1.00
N785   N     0.14493   0.81890   0.73542   0.00000  Uiso   1.00
N786   N     0.18840   0.84777   0.76457   0.00000  Uiso   1.00
O787   O     0.29769   0.91296   0.75357   0.00000  Uiso   1.00
O788   O     0.01672   0.71675   0.55554   0.00000  Uiso   1.00
O789   O     0.15793   0.73311   0.74947   0.00000  Uiso   1.00
O790   O     0.16800   0.75935   0.66585   0.00000  Uiso   1.00
O791   O     0.05742   0.90371   0.74423   0.00000  Uiso   1.00
O792   O     0.31490   0.84024   0.83380   0.00000  Uiso   1.00
O793   O     0.07463   0.83099   0.82446   0.00000  Uiso   1.00
O794   O     0.27592   0.76296   0.75576   0.00000  Uiso   1.00
O795   O     0.03565   0.75371   0.74642   0.00000  Uiso   1.00
O796   O     0.25870   0.83567   0.67554   0.00000  Uiso   1.00
O797   O     0.01843   0.82642   0.66620   0.00000  Uiso   1.00
O798   O     0.06948   0.79352   0.58738   0.00000  Uiso   1.00
Zn799  Zn    0.27119   0.83951   0.75623   0.00000  Uiso   1.00
Zn800  Zn    0.06214   0.82716   0.74376   0.00000  Uiso   1.00
C801   C     0.34796   0.93145   0.74839   0.00000  Uiso   1.00
C802   C     0.39697   0.86727   0.91033   0.00000  Uiso   1.00
C803   C     0.35538   0.98593   0.74709   0.00000  Uiso   1.00
C804   C     0.37155   0.84543   0.85342   0.00000  Uiso   1.00
C805   C     0.64408   0.68064   0.75184   0.00000  Uiso   1.00
C806   C     0.65188   0.73519   0.75123   0.00000  Uiso   1.00
C807   C     0.62998   0.82864   0.64549   0.00000  Uiso   1.00
C808   C     0.61480   0.80289   0.99269   0.00000  Uiso   1.00
C809   C     0.60935   0.82680   0.58617   0.00000  Uiso   1.00
C810   C     0.36156   0.88721   0.94348   0.00000  Uiso   1.00
C811   C     0.38390   0.89856   0.99969   0.00000  Uiso   1.00
C812   C     0.47783   0.86895   0.99045   0.00000  Uiso   1.00
C813   C     0.44060   0.88714   0.52373   0.00000  Uiso   1.00
C814   C     0.35539   0.77091   0.56623   0.00000  Uiso   1.00
C815   C     0.49119   0.76867   0.71853   0.00000  Uiso   1.00
C816   C     0.45753   0.86691   0.93295   0.00000  Uiso   1.00
C817   C     0.53349   0.85046   0.51110   0.00000  Uiso   1.00
C818   C     0.56517   0.82938   0.97390   0.00000  Uiso   1.00
C819   C     0.54845   0.83771   0.91845   0.00000  Uiso   1.00
C820   C     0.49862   0.86248   0.90001   0.00000  Uiso   1.00
C821   C     0.55778   0.85057   0.56694   0.00000  Uiso   1.00
C822   C     0.63727   0.80095   0.54890   0.00000  Uiso   1.00
H823   H     0.60194   0.99709   0.75644   0.00000  Uiso   1.00
H824   H     0.39738   0.66941   0.74230   0.00000  Uiso   1.00
H825   H     0.38831   0.70042   0.56845   0.00000  Uiso   1.00
H826   H     0.50943   0.72176   0.65838   0.00000  Uiso   1.00
H827   H     0.51020   0.88308   0.77814   0.00000  Uiso   1.00
H828   H     0.57456   0.82658   0.88978   0.00000  Uiso   1.00
H829   H     0.63704   0.78504   0.96352   0.00000  Uiso   1.00
H830   H     0.53741   0.86977   0.59631   0.00000  Uiso   1.00
H831   H     0.65006   0.89381   0.92605   0.00000  Uiso   1.00
H832   H     0.45361   0.89273   0.56798   0.00000  Uiso   1.00
H833   H     0.35606   0.91339   0.52526   0.00000  Uiso   1.00
H834   H     0.49178   0.87673   0.85953   0.00000  Uiso   1.00
N835   N     0.47827   0.81890   0.73542   0.00000  Uiso   1.00
N836   N     0.52173   0.84777   0.76457   0.00000  Uiso   1.00
O837   O     0.63102   0.91296   0.75357   0.00000  Uiso   1.00
O838   O     0.35006   0.71675   0.55554   0.00000  Uiso   1.00
O839   O     0.49127   0.73311   0.74947   0.00000  Uiso   1.00
O840   O     0.50133   0.75935   0.66585   0.00000  Uiso   1.00
O841   O     0.39075   0.90371   0.74423   0.00000  Uiso   1.00
O842   O     0.64823   0.84024   0.83380   0.00000  Uiso   1.00
O843   O     0.40796   0.83099   0.82446   0.00000  Uiso   1.00
O844   O     0.60925   0.76296   0.75576   0.00000  Uiso   1.00
O845   O     0.36898   0.75371   0.74642   0.00000  Uiso   1.00
O846   O     0.59204   0.83567   0.67554   0.00000  Uiso   1.00
O847   O     0.35177   0.82642   0.66620   0.00000  Uiso   1.00
O848   O     0.40282   0.79352   0.58738   0.00000  Uiso   1.00
Zn849  Zn    0.60453   0.83951   0.75623   0.00000  Uiso   1.00
Zn850  Zn    0.39547   0.82716   0.74376   0.00000  Uiso   1.00
C851   C     0.68129   0.93145   0.74839   0.00000  Uiso   1.00
C852   C     0.73031   0.86727   0.91033   0.00000  Uiso   1.00
C853   C     0.68871   0.98593   0.74709   0.00000  Uiso   1.00
C854   C     0.70488   0.84543   0.85342   0.00000  Uiso   1.00
C855   C     0.97742   0.68064   0.75184   0.00000  Uiso   1.00
C856   C     0.98522   0.73519   0.75123   0.00000  Uiso   1.00
C857   C     0.96331   0.82864   0.64549   0.00000  Uiso   1.00
C858   C     0.94814   0.80289   0.99269   0.00000  Uiso   1.00
C859   C     0.94269   0.82680   0.58617   0.00000  Uiso   1.00
C860   C     0.69489   0.88721   0.94348   0.00000  Uiso   1.00
C861   C     0.71723   0.89856   0.99969   0.00000  Uiso   1.00
C862   C     0.81116   0.86895   0.99045   0.00000  Uiso   1.00
C863   C     0.77394   0.88714   0.52373   0.00000  Uiso   1.00
C864   C     0.68872   0.77091   0.56623   0.00000  Uiso   1.00
C865   C     0.82452   0.76867   0.71853   0.00000  Uiso   1.00
C866   C     0.79086   0.86691   0.93295   0.00000  Uiso   1.00
C867   C     0.86682   0.85046   0.51110   0.00000  Uiso   1.00
C868   C     0.89851   0.82938   0.97390   0.00000  Uiso   1.00
C869   C     0.88179   0.83771   0.91845   0.00000  Uiso   1.00
C870   C     0.83195   0.86248   0.90001   0.00000  Uiso   1.00
C871   C     0.89111   0.85057   0.56694   0.00000  Uiso   1.00
C872   C     0.97061   0.80095   0.54890   0.00000  Uiso   1.00
H873   H     0.93527   0.99709   0.75644   0.00000  Uiso   1.00
H874   H     0.73071   0.66941   0.74230   0.00000  Uiso   1.00
H875   H     0.72164   0.70042   0.56845   0.00000  Uiso   1.00
H876   H     0.84276   0.72176   0.65838   0.00000  Uiso   1.00
H877   H     0.84353   0.88308   0.77814   0.00000  Uiso   1.00
H878   H     0.90789   0.82658   0.88978   0.00000  Uiso   1.00
H879   H     0.97037   0.78504   0.96352   0.00000  Uiso   1.00
H880   H     0.87075   0.86977   0.59631   0.00000  Uiso   1.00
H881   H     0.98339   0.89381   0.92605   0.00000  Uiso   1.00
H882   H     0.78694   0.89273   0.56798   0.00000  Uiso   1.00
H883   H     0.68939   0.91339   0.52526   0.00000  Uiso   1.00
H884   H     0.82511   0.87673   0.85953   0.00000  Uiso   1.00
N885   N     0.81160   0.81890   0.73542   0.00000  Uiso   1.00
N886   N     0.85507   0.84777   0.76457   0.00000  Uiso   1.00
O887   O     0.96435   0.91296   0.75357   0.00000  Uiso   1.00
O888   O     0.68339   0.71675   0.55554   0.00000  Uiso   1.00
O889   O     0.82460   0.73311   0.74947   0.00000  Uiso   1.00
O890   O     0.83466   0.75935   0.66585   0.00000  Uiso   1.00
O891   O     0.72408   0.90371   0.74423   0.00000  Uiso   1.00
O892   O     0.98157   0.84024   0.83380   0.00000  Uiso   1.00
O893   O     0.74130   0.83099   0.82446   0.00000  Uiso   1.00
O894   O     0.94258   0.76296   0.75576   0.00000  Uiso   1.00
O895   O     0.70231   0.75371   0.74642   0.00000  Uiso   1.00
O896   O     0.92537   0.83567   0.67554   0.00000  Uiso   1.00
O897   O     0.68510   0.82642   0.66620   0.00000  Uiso   1.00
O898   O     0.73615   0.79352   0.58738   0.00000  Uiso   1.00
Zn899  Zn    0.93786   0.83951   0.75623   0.00000  Uiso   1.00
Zn900  Zn    0.72881   0.82716   0.74376   0.00000  Uiso   1.00
loop_
_geom_bond_atom_site_label_1
_geom_bond_atom_site_label_2
_geom_bond_distance
_geom_bond_site_symmetry_2
_ccdc_geom_bond_type
C1     O41     1.292   .     A
C1     C3      1.402   .     S
C1     O137    1.281   1_455 S
C2     C16     1.416   .     A
C2     C4      1.481   .     S
C2     C10     1.399   .     A
C3     C255    1.336   1_455 S
C3     H174    1.086   .     S
C4     O43     1.296   .     A
C4     O142    1.313   1_455 S
C5     C6      1.403   .     S
C5     C353    1.336   1_545 S
C5     H323    1.088   1_545 S
C6     O44     1.291   .     A
C6     O95     1.282   .     S
C7     O46     1.300   .     A
C7     C9      1.448   .     S
C7     O97     1.295   .     S
C8     H29     1.086   .     S
C8     C18     1.395   .     A
C8     C472    1.389   .     S
C9     C22     1.415   .     A
C9     C21     1.397   .     A
C10    C11     1.394   .     A
C10    H131    1.079   1_455 S
C11    C463    1.396   .     S
C11    H483    1.083   .     S
C12    C16     1.405   .     A
C12    C463    1.417   .     S
C12    C467    1.422   .     S
C13    H32     1.077   .     S
C13    C462    1.417   1_554 S
C13    C461    1.396   1_554 S
C14    O38     1.397   .     S
C14    O48     1.222   .     D
C14    C122    1.476   1_455 S
C15    O40     1.396   .     S
C15    O39     1.222   .     D
C15    N35     1.412   .     S
C16    C20     1.405   .     A
C17    C21     1.383   .     A
C17    C462    1.422   1_554 S
C17    C468    1.420   1_554 S
C18    C19     1.382   .     A
C18    C467    1.420   .     S
C19    H28     1.079   .     S
C19    C20     1.373   .     A
C20    H34     1.071   .     S
C21    H30     1.077   .     S
C22    C458    1.389   1_554 S
C22    C64     1.476   .     S
H23    C155    1.088   .     S
H24    C303    1.086   1_545 S
H25    O38     1.014   .     S
H26    O40     1.014   .     S
H27    N36     1.027   .     S
H31    C60     1.079   .     S
H33    C461    1.083   1_554 S
N35    N36     1.285   .     D
N35    Zn50    2.029   .     S
N36    Zn49    2.029   .     S
O37    Zn49    1.957   .     S
O37    C51     1.281   .     S
O41    Zn50    1.978   .     S
O42    Zn49    1.980   .     S
O42    C54     1.313   .     S
O43    Zn50    1.963   .     S
O44    Zn49    1.978   .     S
O45    Zn50    1.957   .     S
O45    C106    1.282   1_455 S
O46    Zn49    1.963   .     S
O47    Zn50    1.980   .     S
O47    C107    1.295   1_455 S
C51    O91     1.292   .     A
C51    C53     1.402   .     S
C52    C66     1.416   .     A
C52    C54     1.481   .     S
C52    C60     1.399   .     A
C53    C155    1.336   .     S
C53    H224    1.086   .     S
C54    O93     1.296   .     A
C55    C56     1.403   .     S
C55    C403    1.336   1_545 S
C55    H373    1.088   1_545 S
C56    O94     1.291   .     A
C56    O145    1.282   .     S
C57    O96     1.300   .     A
C57    C59     1.448   .     S
C57    O147    1.295   .     S
C58    H79     1.086   .     S
C58    C68     1.395   .     A
C58    C522    1.389   .     S
C59    C72     1.415   .     A
C59    C71     1.397   .     A
C60    C61     1.394   .     A
C61    C513    1.396   .     S
C61    H533    1.083   .     S
C62    C66     1.405   .     A
C62    C513    1.417   .     S
C62    C517    1.422   .     S
C63    H82     1.077   .     S
C63    C512    1.417   1_554 S
C63    C511    1.396   1_554 S
C64    O88     1.397   .     S
C64    O98     1.222   .     D
C65    O90     1.396   .     S
C65    O89     1.222   .     D
C65    N85     1.412   .     S
C66    C70     1.405   .     A
C67    C71     1.383   .     A
C67    C512    1.422   1_554 S
C67    C518    1.420   1_554 S
C68    C69     1.382   .     A
C68    C517    1.420   .     S
C69    H78     1.079   .     S
C69    C70     1.373   .     A
C70    H84     1.071   .     S
C71    H80     1.077   .     S
C72    C508    1.389   1_554 S
C72    C114    1.476   .     S
H73    C205    1.088   .     S
H74    C353    1.086   1_545 S
H75    O88     1.014   .     S
H76    O90     1.014   .     S
H77    N86     1.027   .     S
H81    C110    1.079   .     S
H83    C511    1.083   1_554 S
N85    N86     1.285   .     D
N85    Zn100   2.029   .     S
N86    Zn99    2.029   .     S
O87    Zn99    1.957   .     S
O87    C101    1.281   .     S
O91    Zn100   1.978   .     S
O92    Zn99    1.980   .     S
O92    C104    1.313   .     S
O93    Zn100   1.963   .     S
O94    Zn99    1.978   .     S
O95    Zn100   1.957   .     S
O96    Zn99    1.963   .     S
O97    Zn100   1.980   .     S
C101   O141    1.292   .     A
C101   C103    1.402   .     S
C102   C116    1.416   .     A
C102   C104    1.481   .     S
C102   C110    1.399   .     A
C103   C205    1.336   .     S
C103   H274    1.086   .     S
C104   O143    1.296   .     A
C105   C106    1.403   .     S
C105   C303    1.336   1_645 S
C105   H423    1.088   1_545 S
C106   O144    1.291   .     A
C106   O45     1.282   1_655 S
C107   O146    1.300   .     A
C107   C109    1.448   .     S
C107   O47     1.295   1_655 S
C108   H129    1.086   .     S
C108   C118    1.395   .     A
C108   C572    1.389   .     S
C109   C122    1.415   .     A
C109   C121    1.397   .     A
C110   C111    1.394   .     A
C111   C563    1.396   .     S
C111   H583    1.083   .     S
C112   C116    1.405   .     A
C112   C563    1.417   .     S
C112   C567    1.422   .     S
C113   H132    1.077   .     S
C113   C562    1.417   1_554 S
C113   C561    1.396   1_554 S
C114   O138    1.397   .     S
C114   O148    1.222   .     D
C115   O140    1.396   .     S
C115   O139    1.222   .     D
C115   N135    1.412   .     S
C116   C120    1.405   .     A
C117   C121    1.383   .     A
C117   C562    1.422   1_554 S
C117   C568    1.420   1_554 S
C118   C119    1.382   .     A
C118   C567    1.420   .     S
C119   H128    1.079   .     S
C119   C120    1.373   .     A
C120   H134    1.071   .     S
C121   H130    1.077   .     S
C122   C558    1.389   1_554 S
C122   C14     1.476   1_655 S
H123   C255    1.088   .     S
H124   C403    1.086   1_545 S
H125   O138    1.014   .     S
H126   O140    1.014   .     S
H127   N136    1.027   .     S
H131   C10     1.079   1_655 S
H133   C561    1.083   1_554 S
N135   N136    1.285   .     D
N135   Zn150   2.029   .     S
N136   Zn149   2.029   .     S
O137   Zn149   1.957   .     S
O137   C1      1.281   1_655 S
O141   Zn150   1.978   .     S
O142   Zn149   1.980   .     S
O142   C4      1.313   1_655 S
O143   Zn150   1.963   .     S
O144   Zn149   1.978   .     S
O145   Zn150   1.957   .     S
O146   Zn149   1.963   .     S
O147   Zn150   1.980   .     S
C151   O191    1.292   .     A
C151   C153    1.402   .     S
C151   O287    1.281   1_455 S
C152   C166    1.416   .     A
C152   C154    1.481   .     S
C152   C160    1.399   .     A
C153   C405    1.336   1_455 S
C153   H324    1.086   .     S
C154   O193    1.296   .     A
C154   O292    1.313   1_455 S
C155   C156    1.403   .     S
C156   O194    1.291   .     A
C156   O245    1.282   .     S
C157   O196    1.300   .     A
C157   C159    1.448   .     S
C157   O247    1.295   .     S
C158   H179    1.086   .     S
C158   C168    1.395   .     A
C158   C622    1.389   .     S
C159   C172    1.415   .     A
C159   C171    1.397   .     A
C160   C161    1.394   .     A
C160   H281    1.079   1_455 S
C161   C613    1.396   .     S
C161   H633    1.083   .     S
C162   C166    1.405   .     A
C162   C613    1.417   .     S
C162   C617    1.422   .     S
C163   H182    1.077   .     S
C163   C612    1.417   1_554 S
C163   C611    1.396   1_554 S
C164   O188    1.397   .     S
C164   O198    1.222   .     D
C164   C272    1.476   1_455 S
C165   O190    1.396   .     S
C165   O189    1.222   .     D
C165   N185    1.412   .     S
C166   C170    1.405   .     A
C167   C171    1.383   .     A
C167   C612    1.422   1_554 S
C167   C618    1.420   1_554 S
C168   C169    1.382   .     A
C168   C617    1.420   .     S
C169   H178    1.079   .     S
C169   C170    1.373   .     A
C170   H184    1.071   .     S
C171   H180    1.077   .     S
C172   C608    1.389   1_554 S
C172   C214    1.476   .     S
H173   C305    1.088   .     S
H175   O188    1.014   .     S
H176   O190    1.014   .     S
H177   N186    1.027   .     S
H181   C210    1.079   .     S
H183   C611    1.083   1_554 S
N185   N186    1.285   .     D
N185   Zn200   2.029   .     S
N186   Zn199   2.029   .     S
O187   Zn199   1.957   .     S
O187   C201    1.281   .     S
O191   Zn200   1.978   .     S
O192   Zn199   1.980   .     S
O192   C204    1.313   .     S
O193   Zn200   1.963   .     S
O194   Zn199   1.978   .     S
O195   Zn200   1.957   .     S
O195   C256    1.282   1_455 S
O196   Zn199   1.963   .     S
O197   Zn200   1.980   .     S
O197   C257    1.295   1_455 S
C201   O241    1.292   .     A
C201   C203    1.402   .     S
C202   C216    1.416   .     A
C202   C204    1.481   .     S
C202   C210    1.399   .     A
C203   C305    1.336   .     S
C203   H374    1.086   .     S
C204   O243    1.296   .     A
C205   C206    1.403   .     S
C206   O244    1.291   .     A
C206   O295    1.282   .     S
C207   O246    1.300   .     A
C207   C209    1.448   .     S
C207   O297    1.295   .     S
C208   H229    1.086   .     S
C208   C218    1.395   .     A
C208   C672    1.389   .     S
C209   C222    1.415   .     A
C209   C221    1.397   .     A
C210   C211    1.394   .     A
C211   C663    1.396   .     S
C211   H683    1.083   .     S
C212   C216    1.405   .     A
C212   C663    1.417   .     S
C212   C667    1.422   .     S
C213   H232    1.077   .     S
C213   C662    1.417   1_554 S
C213   C661    1.396   1_554 S
C214   O238    1.397   .     S
C214   O248    1.222   .     D
C215   O240    1.396   .     S
C215   O239    1.222   .     D
C215   N235    1.412   .     S
C216   C220    1.405   .     A
C217   C221    1.383   .     A
C217   C662    1.422   1_554 S
C217   C668    1.420   1_554 S
C218   C219    1.382   .     A
C218   C667    1.420   .     S
C219   H228    1.079   .     S
C219   C220    1.373   .     A
C220   H234    1.071   .     S
C221   H230    1.077   .     S
C222   C658    1.389   1_554 S
C222   C264    1.476   .     S
H223   C355    1.088   .     S
H225   O238    1.014   .     S
H226   O240    1.014   .     S
H227   N236    1.027   .     S
H231   C260    1.079   .     S
H233   C661    1.083   1_554 S
N235   N236    1.285   .     D
N235   Zn250   2.029   .     S
N236   Zn249   2.029   .     S
O237   Zn249   1.957   .     S
O237   C251    1.281   .     S
O241   Zn250   1.978   .     S
O242   Zn249   1.980   .     S
O242   C254    1.313   .     S
O243   Zn250   1.963   .     S
O244   Zn249   1.978   .     S
O245   Zn250   1.957   .     S
O246   Zn249   1.963   .     S
O247   Zn250   1.980   .     S
C251   O291    1.292   .     A
C251   C253    1.402   .     S
C252   C266    1.416   .     A
C252   C254    1.481   .     S
C252   C260    1.399   .     A
C253   C355    1.336   .     S
C253   H424    1.086   .     S
C254   O293    1.296   .     A
C255   C256    1.403   .     S
C255   C3      1.336   1_655 S
C256   O294    1.291   .     A
C256   O195    1.282   1_655 S
C257   O296    1.300   .     A
C257   C259    1.448   .     S
C257   O197    1.295   1_655 S
C258   H279    1.086   .     S
C258   C268    1.395   .     A
C258   C722    1.389   .     S
C259   C272    1.415   .     A
C259   C271    1.397   .     A
C260   C261    1.394   .     A
C261   C713    1.396   .     S
C261   H733    1.083   .     S
C262   C266    1.405   .     A
C262   C713    1.417   .     S
C262   C717    1.422   .     S
C263   H282    1.077   .     S
C263   C712    1.417   1_554 S
C263   C711    1.396   1_554 S
C264   O288    1.397   .     S
C264   O298    1.222   .     D
C265   O290    1.396   .     S
C265   O289    1.222   .     D
C265   N285    1.412   .     S
C266   C270    1.405   .     A
C267   C271    1.383   .     A
C267   C712    1.422   1_554 S
C267   C718    1.420   1_554 S
C268   C269    1.382   .     A
C268   C717    1.420   .     S
C269   H278    1.079   .     S
C269   C270    1.373   .     A
C270   H284    1.071   .     S
C271   H280    1.077   .     S
C272   C708    1.389   1_554 S
C272   C164    1.476   1_655 S
H273   C405    1.088   .     S
H275   O288    1.014   .     S
H276   O290    1.014   .     S
H277   N286    1.027   .     S
H281   C160    1.079   1_655 S
H283   C711    1.083   1_554 S
N285   N286    1.285   .     D
N285   Zn300   2.029   .     S
N286   Zn299   2.029   .     S
O287   Zn299   1.957   .     S
O287   C151    1.281   1_655 S
O291   Zn300   1.978   .     S
O292   Zn299   1.980   .     S
O292   C154    1.313   1_655 S
O293   Zn300   1.963   .     S
O294   Zn299   1.978   .     S
O295   Zn300   1.957   .     S
O296   Zn299   1.963   .     S
O297   Zn300   1.980   .     S
C301   O341    1.292   .     A
C301   C303    1.402   .     S
C301   O437    1.281   1_455 S
C302   C316    1.416   .     A
C302   C304    1.481   .     S
C302   C310    1.399   .     A
C303   C105    1.336   1_465 S
C303   H24     1.086   1_565 S
C304   O343    1.296   .     A
C304   O442    1.313   1_455 S
C305   C306    1.403   .     S
C306   O344    1.291   .     A
C306   O395    1.282   .     S
C307   O346    1.300   .     A
C307   C309    1.448   .     S
C307   O397    1.295   .     S
C308   H329    1.086   .     S
C308   C318    1.395   .     A
C308   C772    1.389   .     S
C309   C322    1.415   .     A
C309   C321    1.397   .     A
C310   C311    1.394   .     A
C310   H431    1.079   1_455 S
C311   C763    1.396   .     S
C311   H783    1.083   .     S
C312   C316    1.405   .     A
C312   C763    1.417   .     S
C312   C767    1.422   .     S
C313   H332    1.077   .     S
C313   C762    1.417   1_554 S
C313   C761    1.396   1_554 S
C314   O338    1.397   .     S
C314   O348    1.222   .     D
C314   C422    1.476   1_455 S
C315   O340    1.396   .     S
C315   O339    1.222   .     D
C315   N335    1.412   .     S
C316   C320    1.405   .     A
C317   C321    1.383   .     A
C317   C762    1.422   1_554 S
C317   C768    1.420   1_554 S
C318   C319    1.382   .     A
C318   C767    1.420   .     S
C319   H328    1.079   .     S
C319   C320    1.373   .     A
C320   H334    1.071   .     S
C321   H330    1.077   .     S
C322   C758    1.389   1_554 S
C322   C364    1.476   .     S
H323   C5      1.088   1_565 S
H325   O338    1.014   .     S
H326   O340    1.014   .     S
H327   N336    1.027   .     S
H331   C360    1.079   .     S
H333   C761    1.083   1_554 S
N335   N336    1.285   .     D
N335   Zn350   2.029   .     S
N336   Zn349   2.029   .     S
O337   Zn349   1.957   .     S
O337   C351    1.281   .     S
O341   Zn350   1.978   .     S
O342   Zn349   1.980   .     S
O342   C354    1.313   .     S
O343   Zn350   1.963   .     S
O344   Zn349   1.978   .     S
O345   Zn350   1.957   .     S
O345   C406    1.282   1_455 S
O346   Zn349   1.963   .     S
O347   Zn350   1.980   .     S
O347   C407    1.295   1_455 S
C351   O391    1.292   .     A
C351   C353    1.402   .     S
C352   C366    1.416   .     A
C352   C354    1.481   .     S
C352   C360    1.399   .     A
C353   C5      1.336   1_565 S
C353   H74     1.086   1_565 S
C354   O393    1.296   .     A
C355   C356    1.403   .     S
C356   O394    1.291   .     A
C356   O445    1.282   .     S
C357   O396    1.300   .     A
C357   C359    1.448   .     S
C357   O447    1.295   .     S
C358   H379    1.086   .     S
C358   C368    1.395   .     A
C358   C822    1.389   .     S
C359   C372    1.415   .     A
C359   C371    1.397   .     A
C360   C361    1.394   .     A
C361   C813    1.396   .     S
C361   H833    1.083   .     S
C362   C366    1.405   .     A
C362   C813    1.417   .     S
C362   C817    1.422   .     S
C363   H382    1.077   .     S
C363   C812    1.417   1_554 S
C363   C811    1.396   1_554 S
C364   O388    1.397   .     S
C364   O398    1.222   .     D
C365   O390    1.396   .     S
C365   O389    1.222   .     D
C365   N385    1.412   .     S
C366   C370    1.405   .     A
C367   C371    1.383   .     A
C367   C812    1.422   1_554 S
C367   C818    1.420   1_554 S
C368   C369    1.382   .     A
C368   C817    1.420   .     S
C369   H378    1.079   .     S
C369   C370    1.373   .     A
C370   H384    1.071   .     S
C371   H380    1.077   .     S
C372   C808    1.389   1_554 S
C372   C414    1.476   .     S
H373   C55     1.088   1_565 S
H375   O388    1.014   .     S
H376   O390    1.014   .     S
H377   N386    1.027   .     S
H381   C410    1.079   .     S
H383   C811    1.083   1_554 S
N385   N386    1.285   .     D
N385   Zn400   2.029   .     S
N386   Zn399   2.029   .     S
O387   Zn399   1.957   .     S
O387   C401    1.281   .     S
O391   Zn400   1.978   .     S
O392   Zn399   1.980   .     S
O392   C404    1.313   .     S
O393   Zn400   1.963   .     S
O394   Zn399   1.978   .     S
O395   Zn400   1.957   .     S
O396   Zn399   1.963   .     S
O397   Zn400   1.980   .     S
C401   O441    1.292   .     A
C401   C403    1.402   .     S
C402   C416    1.416   .     A
C402   C404    1.481   .     S
C402   C410    1.399   .     A
C403   C55     1.336   1_565 S
C403   H124    1.086   1_565 S
C404   O443    1.296   .     A
C405   C406    1.403   .     S
C405   C153    1.336   1_655 S
C406   O444    1.291   .     A
C406   O345    1.282   1_655 S
C407   O446    1.300   .     A
C407   C409    1.448   .     S
C407   O347    1.295   1_655 S
C408   H429    1.086   .     S
C408   C418    1.395   .     A
C408   C872    1.389   .     S
C409   C422    1.415   .     A
C409   C421    1.397   .     A
C410   C411    1.394   .     A
C411   C863    1.396   .     S
C411   H883    1.083   .     S
C412   C416    1.405   .     A
C412   C863    1.417   .     S
C412   C867    1.422   .     S
C413   H432    1.077   .     S
C413   C862    1.417   1_554 S
C413   C861    1.396   1_554 S
C414   O438    1.397   .     S
C414   O448    1.222   .     D
C415   O440    1.396   .     S
C415   O439    1.222   .     D
C415   N435    1.412   .     S
C416   C420    1.405   .     A
C417   C421    1.383   .     A
C417   C862    1.422   1_554 S
C417   C868    1.420   1_554 S
C418   C419    1.382   .     A
C418   C867    1.420   .     S
C419   H428    1.079   .     S
C419   C420    1.373   .     A
C420   H434    1.071   .     S
C421   H430    1.077   .     S
C422   C858    1.389   1_554 S
C422   C314    1.476   1_655 S
H423   C105    1.088   1_565 S
H425   O438    1.014   .     S
H426   O440    1.014   .     S
H427   N436    1.027   .     S
H431   C310    1.079   1_655 S
H433   C861    1.083   1_554 S
N435   N436    1.285   .     D
N435   Zn450   2.029   .     S
N436   Zn449   2.029   .     S
O437   Zn449   1.957   .     S
O437   C301    1.281   1_655 S
O441   Zn450   1.978   .     S
O442   Zn449   1.980   .     S
O442   C304    1.313   1_655 S
O443   Zn450   1.963   .     S
O444   Zn449   1.978   .     S
O445   Zn450   1.957   .     S
O446   Zn449   1.963   .     S
O447   Zn450   1.980   .     S
C451   O491    1.292   .     A
C451   C453    1.402   .     S
C451   O587    1.281   1_455 S
C452   C466    1.416   .     A
C452   C454    1.481   .     S
C452   C460    1.399   .     A
C453   C705    1.336   1_455 S
C453   H624    1.086   .     S
C454   O493    1.296   .     A
C454   O592    1.313   1_455 S
C455   C456    1.403   .     S
C455   C803    1.336   1_545 S
C455   H773    1.088   1_545 S
C456   O494    1.291   .     A
C456   O545    1.282   .     S
C457   O496    1.300   .     A
C457   C459    1.448   .     S
C457   O547    1.295   .     S
C458   H479    1.086   .     S
C458   C468    1.395   .     A
C458   C22     1.389   1_556 S
C459   C472    1.415   .     A
C459   C471    1.397   .     A
C460   C461    1.394   .     A
C460   H581    1.079   1_455 S
C461   C13     1.396   1_556 S
C461   H33     1.083   1_556 S
C462   C466    1.405   .     A
C462   C13     1.417   1_556 S
C462   C17     1.422   1_556 S
C463   H482    1.077   .     S
C464   O488    1.397   .     S
C464   O498    1.222   .     D
C464   C572    1.476   1_455 S
C465   O490    1.396   .     S
C465   O489    1.222   .     D
C465   N485    1.412   .     S
C466   C470    1.405   .     A
C467   C471    1.383   .     A
C468   C469    1.382   .     A
C468   C17     1.420   1_556 S
C469   H478    1.079   .     S
C469   C470    1.373   .     A
C470   H484    1.071   .     S
C471   H480    1.077   .     S
C472   C514    1.476   .     S
H473   C605    1.088   .     S
H474   C753    1.086   1_545 S
H475   O488    1.014   .     S
H476   O490    1.014   .     S
H477   N486    1.027   .     S
H481   C510    1.079   .     S
N485   N486    1.285   .     D
N485   Zn500   2.029   .     S
N486   Zn499   2.029   .     S
O487   Zn499   1.957   .     S
O487   C501    1.281   .     S
O491   Zn500   1.978   .     S
O492   Zn499   1.980   .     S
O492   C504    1.313   .     S
O493   Zn500   1.963   .     S
O494   Zn499   1.978   .     S
O495   Zn500   1.957   .     S
O495   C556    1.282   1_455 S
O496   Zn499   1.963   .     S
O497   Zn500   1.980   .     S
O497   C557    1.295   1_455 S
C501   O541    1.292   .     A
C501   C503    1.402   .     S
C502   C516    1.416   .     A
C502   C504    1.481   .     S
C502   C510    1.399   .     A
C503   C605    1.336   .     S
C503   H674    1.086   .     S
C504   O543    1.296   .     A
C505   C506    1.403   .     S
C505   C853    1.336   1_545 S
C505   H823    1.088   1_545 S
C506   O544    1.291   .     A
C506   O595    1.282   .     S
C507   O546    1.300   .     A
C507   C509    1.448   .     S
C507   O597    1.295   .     S
C508   H529    1.086   .     S
C508   C518    1.395   .     A
C508   C72     1.389   1_556 S
C509   C522    1.415   .     A
C509   C521    1.397   .     A
C510   C511    1.394   .     A
C511   C63     1.396   1_556 S
C511   H83     1.083   1_556 S
C512   C516    1.405   .     A
C512   C63     1.417   1_556 S
C512   C67     1.422   1_556 S
C513   H532    1.077   .     S
C514   O538    1.397   .     S
C514   O548    1.222   .     D
C515   O540    1.396   .     S
C515   O539    1.222   .     D
C515   N535    1.412   .     S
C516   C520    1.405   .     A
C517   C521    1.383   .     A
C518   C519    1.382   .     A
C518   C67     1.420   1_556 S
C519   H528    1.079   .     S
C519   C520    1.373   .     A
C520   H534    1.071   .     S
C521   H530    1.077   .     S
C522   C564    1.476   .     S
H523   C655    1.088   .     S
H524   C803    1.086   1_545 S
H525   O538    1.014   .     S
H526   O540    1.014   .     S
H527   N536    1.027   .     S
H531   C560    1.079   .     S
N535   N536    1.285   .     D
N535   Zn550   2.029   .     S
N536   Zn549   2.029   .     S
O537   Zn549   1.957   .     S
O537   C551    1.281   .     S
O541   Zn550   1.978   .     S
O542   Zn549   1.980   .     S
O542   C554    1.313   .     S
O543   Zn550   1.963   .     S
O544   Zn549   1.978   .     S
O545   Zn550   1.957   .     S
O546   Zn549   1.963   .     S
O547   Zn550   1.980   .     S
C551   O591    1.292   .     A
C551   C553    1.402   .     S
C552   C566    1.416   .     A
C552   C554    1.481   .     S
C552   C560    1.399   .     A
C553   C655    1.336   .     S
C553   H724    1.086   .     S
C554   O593    1.296   .     A
C555   C556    1.403   .     S
C555   C753    1.336   1_645 S
C555   H873    1.088   1_545 S
C556   O594    1.291   .     A
C556   O495    1.282   1_655 S
C557   O596    1.300   .     A
C557   C559    1.448   .     S
C557   O497    1.295   1_655 S
C558   H579    1.086   .     S
C558   C568    1.395   .     A
C558   C122    1.389   1_556 S
C559   C572    1.415   .     A
C559   C571    1.397   .     A
C560   C561    1.394   .     A
C561   C113    1.396   1_556 S
C561   H133    1.083   1_556 S
C562   C566    1.405   .     A
C562   C113    1.417   1_556 S
C562   C117    1.422   1_556 S
C563   H582    1.077   .     S
C564   O588    1.397   .     S
C564   O598    1.222   .     D
C565   O590    1.396   .     S
C565   O589    1.222   .     D
C565   N585    1.412   .     S
C566   C570    1.405   .     A
C567   C571    1.383   .     A
C568   C569    1.382   .     A
C568   C117    1.420   1_556 S
C569   H578    1.079   .     S
C569   C570    1.373   .     A
C570   H584    1.071   .     S
C571   H580    1.077   .     S
C572   C464    1.476   1_655 S
H573   C705    1.088   .     S
H574   C853    1.086   1_545 S
H575   O588    1.014   .     S
H576   O590    1.014   .     S
H577   N586    1.027   .     S
H581   C460    1.079   1_655 S
N585   N586    1.285   .     D
N585   Zn600   2.029   .     S
N586   Zn599   2.029   .     S
O587   Zn599   1.957   .     S
O587   C451    1.281   1_655 S
O591   Zn600   1.978   .     S
O592   Zn599   1.980   .     S
O592   C454    1.313   1_655 S
O593   Zn600   1.963   .     S
O594   Zn599   1.978   .     S
O595   Zn600   1.957   .     S
O596   Zn599   1.963   .     S
O597   Zn600   1.980   .     S
C601   O641    1.292   .     A
C601   C603    1.402   .     S
C601   O737    1.281   1_455 S
C602   C616    1.416   .     A
C602   C604    1.481   .     S
C602   C610    1.399   .     A
C603   C855    1.336   1_455 S
C603   H774    1.086   .     S
C604   O643    1.296   .     A
C604   O742    1.313   1_455 S
C605   C606    1.403   .     S
C606   O644    1.291   .     A
C606   O695    1.282   .     S
C607   O646    1.300   .     A
C607   C609    1.448   .     S
C607   O697    1.295   .     S
C608   H629    1.086   .     S
C608   C618    1.395   .     A
C608   C172    1.389   1_556 S
C609   C622    1.415   .     A
C609   C621    1.397   .     A
C610   C611    1.394   .     A
C610   H731    1.079   1_455 S
C611   C163    1.396   1_556 S
C611   H183    1.083   1_556 S
C612   C616    1.405   .     A
C612   C163    1.417   1_556 S
C612   C167    1.422   1_556 S
C613   H632    1.077   .     S
C614   O638    1.397   .     S
C614   O648    1.222   .     D
C614   C722    1.476   1_455 S
C615   O640    1.396   .     S
C615   O639    1.222   .     D
C615   N635    1.412   .     S
C616   C620    1.405   .     A
C617   C621    1.383   .     A
C618   C619    1.382   .     A
C618   C167    1.420   1_556 S
C619   H628    1.079   .     S
C619   C620    1.373   .     A
C620   H634    1.071   .     S
C621   H630    1.077   .     S
C622   C664    1.476   .     S
H623   C755    1.088   .     S
H625   O638    1.014   .     S
H626   O640    1.014   .     S
H627   N636    1.027   .     S
H631   C660    1.079   .     S
N635   N636    1.285   .     D
N635   Zn650   2.029   .     S
N636   Zn649   2.029   .     S
O637   Zn649   1.957   .     S
O637   C651    1.281   .     S
O641   Zn650   1.978   .     S
O642   Zn649   1.980   .     S
O642   C654    1.313   .     S
O643   Zn650   1.963   .     S
O644   Zn649   1.978   .     S
O645   Zn650   1.957   .     S
O645   C706    1.282   1_455 S
O646   Zn649   1.963   .     S
O647   Zn650   1.980   .     S
O647   C707    1.295   1_455 S
C651   O691    1.292   .     A
C651   C653    1.402   .     S
C652   C666    1.416   .     A
C652   C654    1.481   .     S
C652   C660    1.399   .     A
C653   C755    1.336   .     S
C653   H824    1.086   .     S
C654   O693    1.296   .     A
C655   C656    1.403   .     S
C656   O694    1.291   .     A
C656   O745    1.282   .     S
C657   O696    1.300   .     A
C657   C659    1.448   .     S
C657   O747    1.295   .     S
C658   H679    1.086   .     S
C658   C668    1.395   .     A
C658   C222    1.389   1_556 S
C659   C672    1.415   .     A
C659   C671    1.397   .     A
C660   C661    1.394   .     A
C661   C213    1.396   1_556 S
C661   H233    1.083   1_556 S
C662   C666    1.405   .     A
C662   C213    1.417   1_556 S
C662   C217    1.422   1_556 S
C663   H682    1.077   .     S
C664   O688    1.397   .     S
C664   O698    1.222   .     D
C665   O690    1.396   .     S
C665   O689    1.222   .     D
C665   N685    1.412   .     S
C666   C670    1.405   .     A
C667   C671    1.383   .     A
C668   C669    1.382   .     A
C668   C217    1.420   1_556 S
C669   H678    1.079   .     S
C669   C670    1.373   .     A
C670   H684    1.071   .     S
C671   H680    1.077   .     S
C672   C714    1.476   .     S
H673   C805    1.088   .     S
H675   O688    1.014   .     S
H676   O690    1.014   .     S
H677   N686    1.027   .     S
H681   C710    1.079   .     S
N685   N686    1.285   .     D
N685   Zn700   2.029   .     S
N686   Zn699   2.029   .     S
O687   Zn699   1.957   .     S
O687   C701    1.281   .     S
O691   Zn700   1.978   .     S
O692   Zn699   1.980   .     S
O692   C704    1.313   .     S
O693   Zn700   1.963   .     S
O694   Zn699   1.978   .     S
O695   Zn700   1.957   .     S
O696   Zn699   1.963   .     S
O697   Zn700   1.980   .     S
C701   O741    1.292   .     A
C701   C703    1.402   .     S
C702   C716    1.416   .     A
C702   C704    1.481   .     S
C702   C710    1.399   .     A
C703   C805    1.336   .     S
C703   H874    1.086   .     S
C704   O743    1.296   .     A
C705   C706    1.403   .     S
C705   C453    1.336   1_655 S
C706   O744    1.291   .     A
C706   O645    1.282   1_655 S
C707   O746    1.300   .     A
C707   C709    1.448   .     S
C707   O647    1.295   1_655 S
C708   H729    1.086   .     S
C708   C718    1.395   .     A
C708   C272    1.389   1_556 S
C709   C722    1.415   .     A
C709   C721    1.397   .     A
C710   C711    1.394   .     A
C711   C263    1.396   1_556 S
C711   H283    1.083   1_556 S
C712   C716    1.405   .     A
C712   C263    1.417   1_556 S
C712   C267    1.422   1_556 S
C713   H732    1.077   .     S
C714   O738    1.397   .     S
C714   O748    1.222   .     D
C715   O740    1.396   .     S
C715   O739    1.222   .     D
C715   N735    1.412   .     S
C716   C720    1.405   .     A
C717   C721    1.383   .     A
C718   C719    1.382   .     A
C718   C267    1.420   1_556 S
C719   H728    1.079   .     S
C719   C720    1.373   .     A
C720   H734    1.071   .     S
C721   H730    1.077   .     S
C722   C614    1.476   1_655 S
H723   C855    1.088   .     S
H725   O738    1.014   .     S
H726   O740    1.014   .     S
H727   N736    1.027   .     S
H731   C610    1.079   1_655 S
N735   N736    1.285   .     D
N735   Zn750   2.029   .     S
N736   Zn749   2.029   .     S
O737   Zn749   1.957   .     S
O737   C601    1.281   1_655 S
O741   Zn750   1.978   .     S
O742   Zn749   1.980   .     S
O742   C604    1.313   1_655 S
O743   Zn750   1.963   .     S
O744   Zn749   1.978   .     S
O745   Zn750   1.957   .     S
O746   Zn749   1.963   .     S
O747   Zn750   1.980   .     S
C751   O791    1.292   .     A
C751   C753    1.402   .     S
C751   O887    1.281   1_455 S
C752   C766    1.416   .     A
C752   C754    1.481   .     S
C752   C760    1.399   .     A
C753   C555    1.336   1_465 S
C753   H474    1.086   1_565 S
C754   O793    1.296   .     A
C754   O892    1.313   1_455 S
C755   C756    1.403   .     S
C756   O794    1.291   .     A
C756   O845    1.282   .     S
C757   O796    1.300   .     A
C757   C759    1.448   .     S
C757   O847    1.295   .     S
C758   H779    1.086   .     S
C758   C768    1.395   .     A
C758   C322    1.389   1_556 S
C759   C772    1.415   .     A
C759   C771    1.397   .     A
C760   C761    1.394   .     A
C760   H881    1.079   1_455 S
C761   C313    1.396   1_556 S
C761   H333    1.083   1_556 S
C762   C766    1.405   .     A
C762   C313    1.417   1_556 S
C762   C317    1.422   1_556 S
C763   H782    1.077   .     S
C764   O788    1.397   .     S
C764   O798    1.222   .     D
C764   C872    1.476   1_455 S
C765   O790    1.396   .     S
C765   O789    1.222   .     D
C765   N785    1.412   .     S
C766   C770    1.405   .     A
C767   C771    1.383   .     A
C768   C769    1.382   .     A
C768   C317    1.420   1_556 S
C769   H778    1.079   .     S
C769   C770    1.373   .     A
C770   H784    1.071   .     S
C771   H780    1.077   .     S
C772   C814    1.476   .     S
H773   C455    1.088   1_565 S
H775   O788    1.014   .     S
H776   O790    1.014   .     S
H777   N786    1.027   .     S
H781   C810    1.079   .     S
N785   N786    1.285   .     D
N785   Zn800   2.029   .     S
N786   Zn799   2.029   .     S
O787   Zn799   1.957   .     S
O787   C801    1.281   .     S
O791   Zn800   1.978   .     S
O792   Zn799   1.980   .     S
O792   C804    1.313   .     S
O793   Zn800   1.963   .     S
O794   Zn799   1.978   .     S
O795   Zn800   1.957   .     S
O795   C856    1.282   1_455 S
O796   Zn799   1.963   .     S
O797   Zn800   1.980   .     S
O797   C857    1.295   1_455 S
C801   O841    1.292   .     A
C801   C803    1.402   .     S
C802   C816    1.416   .     A
C802   C804    1.481   .     S
C802   C810    1.399   .     A
C803   C455    1.336   1_565 S
C803   H524    1.086   1_565 S
C804   O843    1.296   .     A
C805   C806    1.403   .     S
C806   O844    1.291   .     A
C806   O895    1.282   .     S
C807   O846    1.300   .     A
C807   C809    1.448   .     S
C807   O897    1.295   .     S
C808   H829    1.086   .     S
C808   C818    1.395   .     A
C808   C372    1.389   1_556 S
C809   C822    1.415   .     A
C809   C821    1.397   .     A
C810   C811    1.394   .     A
C811   C363    1.396   1_556 S
C811   H383    1.083   1_556 S
C812   C816    1.405   .     A
C812   C363    1.417   1_556 S
C812   C367    1.422   1_556 S
C813   H832    1.077   .     S
C814   O838    1.397   .     S
C814   O848    1.222   .     D
C815   O840    1.396   .     S
C815   O839    1.222   .     D
C815   N835    1.412   .     S
C816   C820    1.405   .     A
C817   C821    1.383   .     A
C818   C819    1.382   .     A
C818   C367    1.420   1_556 S
C819   H828    1.079   .     S
C819   C820    1.373   .     A
C820   H834    1.071   .     S
C821   H830    1.077   .     S
C822   C864    1.476   .     S
H823   C505    1.088   1_565 S
H825   O838    1.014   .     S
H826   O840    1.014   .     S
H827   N836    1.027   .     S
H831   C860    1.079   .     S
N835   N836    1.285   .     D
N835   Zn850   2.029   .     S
N836   Zn849   2.029   .     S
O837   Zn849   1.957   .     S
O837   C851    1.281   .     S
O841   Zn850   1.978   .     S
O842   Zn849   1.980   .     S
O842   C854    1.313   .     S
O843   Zn850   1.963   .     S
O844   Zn849   1.978   .     S
O845   Zn850   1.957   .     S
O846   Zn849   1.963   .     S
O847   Zn850   1.980   .     S
C851   O891    1.292   .     A
C851   C853    1.402   .     S
C852   C866    1.416   .     A
C852   C854    1.481   .     S
C852   C860    1.399   .     A
C853   C505    1.336   1_565 S
C853   H574    1.086   1_565 S
C854   O893    1.296   .     A
C855   C856    1.403   .     S
C855   C603    1.336   1_655 S
C856   O894    1.291   .     A
C856   O795    1.282   1_655 S
C857   O896    1.300   .     A
C857   C859    1.448   .     S
C857   O797    1.295   1_655 S
C858   H879    1.086   .     S
C858   C868    1.395   .     A
C858   C422    1.389   1_556 S
C859   C872    1.415   .     A
C859   C871    1.397   .     A
C860   C861    1.394   .     A
C861   C413    1.396   1_556 S
C861   H433    1.083   1_556 S
C862   C866    1.405   .     A
C862   C413    1.417   1_556 S
C862   C417    1.422   1_556 S
C863   H882    1.077   .     S
C864   O888    1.397   .     S
C864   O898    1.222   .     D
C865   O890    1.396   .     S
C865   O889    1.222   .     D
C865   N885    1.412   .     S
C866   C870    1.405   .     A
C867   C871    1.383   .     A
C868   C869    1.382   .     A
C868   C417    1.420   1_556 S
C869   H878    1.079   .     S
C869   C870    1.373   .     A
C870   H884    1.071   .     S
C871   H880    1.077   .     S
C872   C764    1.476   1_655 S
H873   C555    1.088   1_565 S
H875   O888    1.014   .     S
H876   O890    1.014   .     S
H877   N886    1.027   .     S
H881   C760    1.079   1_655 S
N885   N886    1.285   .     D
N885   Zn900   2.029   .     S
N886   Zn899   2.029   .     S
O887   Zn899   1.957   .     S
O887   C751    1.281   1_655 S
O891   Zn900   1.978   .     S
O892   Zn899   1.980   .     S
O892   C754    1.313   1_655 S
O893   Zn900   1.963   .     S
O894   Zn899   1.978   .     S
O895   Zn900   1.957   .     S
O896   Zn899   1.963   .     S
O897   Zn900   1.980   .     S
