data_str_m3_o1_o16_pcu_sym.150
_audit_creation_date              2020-01-03
_audit_creation_method            'Materials Studio'
_symmetry_space_group_name_H-M    'P1'
_symmetry_Int_Tables_number       1
_symmetry_cell_setting            triclinic
loop_
_symmetry_equiv_pos_as_xyz
  x,y,z
_cell_length_a                    29.5470
_cell_length_b                    32.0058
_cell_length_c                    26.1822
_cell_angle_alpha                 89.9196
_cell_angle_beta                  69.5751
_cell_angle_gamma                 89.8093
loop_
_atom_site_label
_atom_site_type_symbol
_atom_site_fract_x
_atom_site_fract_y
_atom_site_fract_z
_atom_site_U_iso_or_equiv
_atom_site_adp_type
_atom_site_occupancy
C1     C     0.16696   0.24666   0.24890   0.00000  Uiso   1.00
C2     C     0.14261   0.16971   0.49411   0.00000  Uiso   1.00
C3     C     0.14972   0.18348   0.44060   0.00000  Uiso   1.00
C4     C     0.17890   0.17957   0.01615   0.00000  Uiso   1.00
C5     C     0.21444   0.21015   0.49093   0.00000  Uiso   1.00
C6     C     0.21626   0.22795   0.44178   0.00000  Uiso   1.00
C7     C     0.18499   0.21423   0.41635   0.00000  Uiso   1.00
C8     C     0.18178   0.15915   0.06189   0.00000  Uiso   1.00
C9     C     0.24436   0.20591   0.06592   0.00000  Uiso   1.00
C10    C     0.12118   0.16663   0.41237   0.00000  Uiso   1.00
C11    C     0.19492   0.31174   0.27303   0.00000  Uiso   1.00
C12    C     0.13958   0.16728   0.35253   0.00000  Uiso   1.00
C13    C     0.19515   0.02117   0.27325   0.00000  Uiso   1.00
C14    C     0.16750   0.04264   0.24818   0.00000  Uiso   1.00
C15    C     0.14076   0.02206   0.22133   0.00000  Uiso   1.00
C16    C     0.14172   0.31237   0.21922   0.00000  Uiso   1.00
C17    C     0.16762   0.29084   0.24701   0.00000  Uiso   1.00
C18    C     0.30320   0.13344   0.27039   0.00000  Uiso   1.00
C19    C     0.01802   0.13323   0.26967   0.00000  Uiso   1.00
C20    C     0.02997   0.20000   0.23004   0.00000  Uiso   1.00
C21    C     0.31547   0.19993   0.22983   0.00000  Uiso   1.00
C22    C     0.16683   0.08670   0.24967   0.00000  Uiso   1.00
C23    C     0.19360   0.16720   0.14774   0.00000  Uiso   1.00
C24    C     0.24748   0.22263   0.01560   0.00000  Uiso   1.00
C25    C     0.21024   0.17489   0.08959   0.00000  Uiso   1.00
C26    C     0.07794   0.14543   0.44099   0.00000  Uiso   1.00
C27    C     0.06754   0.13680   0.49644   0.00000  Uiso   1.00
C28    C     0.09949   0.14743   0.02323   0.00000  Uiso   1.00
H29    H     0.26649   0.21867   0.08748   0.00000  Uiso   1.00
H30    H     0.21583   0.03743   0.29405   0.00000  Uiso   1.00
H31    H     0.11991   0.03923   0.20136   0.00000  Uiso   1.00
H32    H     0.28023   0.10682   0.28666   0.00000  Uiso   1.00
H33    H     0.03141   0.10641   0.28524   0.00000  Uiso   1.00
H34    H     0.05279   0.22670   0.21413   0.00000  Uiso   1.00
H35    H     0.30237   0.22651   0.21348   0.00000  Uiso   1.00
H36    H     0.24268   0.25174   0.42225   0.00000  Uiso   1.00
H37    H     0.27409   0.24654   0.49725   0.00000  Uiso   1.00
H38    H     0.16063   0.13189   0.07854   0.00000  Uiso   1.00
H39    H     0.03458   0.12100   0.01915   0.00000  Uiso   1.00
H40    H     0.18780   0.22887   0.37808   0.00000  Uiso   1.00
H41    H     0.21523   0.29501   0.29401   0.00000  Uiso   1.00
N42    N     0.04760   0.16668   0.25002   0.00000  Uiso   1.00
N43    N     0.28573   0.16665   0.25001   0.00000  Uiso   1.00
O44    O     0.12846   0.22775   0.25001   0.00000  Uiso   1.00
O45    O     0.20490   0.22774   0.25001   0.00000  Uiso   1.00
O46    O     0.10947   0.16666   0.32681   0.00000  Uiso   1.00
O47    O     0.18591   0.16665   0.32681   0.00000  Uiso   1.00
O48    O     0.12843   0.10559   0.25000   0.00000  Uiso   1.00
O49    O     0.20488   0.10558   0.25000   0.00000  Uiso   1.00
O50    O     0.14742   0.16668   0.17319   0.00000  Uiso   1.00
O51    O     0.22387   0.16667   0.17319   0.00000  Uiso   1.00
Zn52   Zn    0.11562   0.16667   0.25000   0.00000  Uiso   1.00
Zn53   Zn    0.21771   0.16666   0.25000   0.00000  Uiso   1.00
O54    O     0.11589   0.29145   0.19216   0.00000  Uiso   1.00
C55    C     0.14316   0.29131   0.13584   0.00000  Uiso   1.00
H56    H     0.14775   0.32367   0.11913   0.00000  Uiso   1.00
H57    H     0.17936   0.27681   0.12778   0.00000  Uiso   1.00
C58    C     0.11673   0.26591   0.10597   0.00000  Uiso   1.00
H59    H     0.13689   0.26711   0.06141   0.00000  Uiso   1.00
H60    H     0.11385   0.23283   0.11951   0.00000  Uiso   1.00
H61    H     0.07992   0.27885   0.11432   0.00000  Uiso   1.00
O62    O     0.04862   0.13119   0.41284   0.00000  Uiso   1.00
C63    C     0.33213   0.13461   0.44422   0.00000  Uiso   1.00
H64    H     0.32377   0.16387   0.46885   0.00000  Uiso   1.00
H65    H     0.32036   0.10697   0.47138   0.00000  Uiso   1.00
C66    C     0.30286   0.13523   0.40671   0.00000  Uiso   1.00
H67    H     0.31255   0.16305   0.37973   0.00000  Uiso   1.00
H68    H     0.30988   0.10629   0.38181   0.00000  Uiso   1.00
H69    H     0.26374   0.13663   0.43123   0.00000  Uiso   1.00
O70    O     0.08400   0.14356   0.07964   0.00000  Uiso   1.00
C71    C     0.07130   0.10174   0.09706   0.00000  Uiso   1.00
H72    H     0.09202   0.09276   0.12359   0.00000  Uiso   1.00
H73    H     0.08083   0.07825   0.06343   0.00000  Uiso   1.00
C74    C     0.01741   0.09915   0.13104   0.00000  Uiso   1.00
H75    H     0.00783   0.12525   0.16054   0.00000  Uiso   1.00
H76    H     0.32854   0.10245   0.10479   0.00000  Uiso   1.00
C77    C     0.00484   0.05779   0.16183   0.00000  Uiso   1.00
H78    H     0.01407   0.03118   0.13277   0.00000  Uiso   1.00
H79    H     0.29886   0.05691   0.18564   0.00000  Uiso   1.00
H80    H     0.02488   0.05446   0.19050   0.00000  Uiso   1.00
C81    C     0.50029   0.24666   0.24890   0.00000  Uiso   1.00
C82    C     0.47594   0.16971   0.49411   0.00000  Uiso   1.00
C83    C     0.48305   0.18348   0.44060   0.00000  Uiso   1.00
C84    C     0.51223   0.17957   0.01615   0.00000  Uiso   1.00
C85    C     0.54777   0.21015   0.49093   0.00000  Uiso   1.00
C86    C     0.54959   0.22795   0.44178   0.00000  Uiso   1.00
C87    C     0.51833   0.21423   0.41635   0.00000  Uiso   1.00
C88    C     0.51511   0.15915   0.06189   0.00000  Uiso   1.00
C89    C     0.57770   0.20591   0.06592   0.00000  Uiso   1.00
C90    C     0.45451   0.16663   0.41237   0.00000  Uiso   1.00
C91    C     0.52825   0.31174   0.27303   0.00000  Uiso   1.00
C92    C     0.47291   0.16728   0.35253   0.00000  Uiso   1.00
C93    C     0.52849   0.02117   0.27325   0.00000  Uiso   1.00
C94    C     0.50083   0.04264   0.24818   0.00000  Uiso   1.00
C95    C     0.47409   0.02206   0.22133   0.00000  Uiso   1.00
C96    C     0.47505   0.31237   0.21922   0.00000  Uiso   1.00
C97    C     0.50095   0.29084   0.24701   0.00000  Uiso   1.00
C98    C     0.63654   0.13344   0.27039   0.00000  Uiso   1.00
C99    C     0.35136   0.13323   0.26967   0.00000  Uiso   1.00
C100   C     0.36331   0.20000   0.23004   0.00000  Uiso   1.00
C101   C     0.64880   0.19993   0.22983   0.00000  Uiso   1.00
C102   C     0.50016   0.08670   0.24967   0.00000  Uiso   1.00
C103   C     0.52693   0.16720   0.14774   0.00000  Uiso   1.00
C104   C     0.58081   0.22263   0.01560   0.00000  Uiso   1.00
C105   C     0.54358   0.17489   0.08959   0.00000  Uiso   1.00
C106   C     0.41127   0.14543   0.44099   0.00000  Uiso   1.00
C107   C     0.40087   0.13680   0.49644   0.00000  Uiso   1.00
C108   C     0.43282   0.14743   0.02323   0.00000  Uiso   1.00
H109   H     0.59983   0.21867   0.08748   0.00000  Uiso   1.00
H110   H     0.54916   0.03743   0.29405   0.00000  Uiso   1.00
H111   H     0.45324   0.03923   0.20136   0.00000  Uiso   1.00
H112   H     0.61356   0.10682   0.28666   0.00000  Uiso   1.00
H113   H     0.36474   0.10641   0.28524   0.00000  Uiso   1.00
H114   H     0.38612   0.22670   0.21413   0.00000  Uiso   1.00
H115   H     0.63570   0.22651   0.21348   0.00000  Uiso   1.00
H116   H     0.57601   0.25174   0.42225   0.00000  Uiso   1.00
H117   H     0.60743   0.24654   0.49725   0.00000  Uiso   1.00
H118   H     0.49397   0.13189   0.07854   0.00000  Uiso   1.00
H119   H     0.36792   0.12100   0.01915   0.00000  Uiso   1.00
H120   H     0.52114   0.22887   0.37808   0.00000  Uiso   1.00
H121   H     0.54856   0.29501   0.29401   0.00000  Uiso   1.00
N122   N     0.38093   0.16668   0.25002   0.00000  Uiso   1.00
N123   N     0.61906   0.16665   0.25001   0.00000  Uiso   1.00
O124   O     0.46179   0.22775   0.25001   0.00000  Uiso   1.00
O125   O     0.53823   0.22774   0.25001   0.00000  Uiso   1.00
O126   O     0.44280   0.16666   0.32681   0.00000  Uiso   1.00
O127   O     0.51924   0.16665   0.32681   0.00000  Uiso   1.00
O128   O     0.46177   0.10559   0.25000   0.00000  Uiso   1.00
O129   O     0.53821   0.10558   0.25000   0.00000  Uiso   1.00
O130   O     0.48076   0.16668   0.17319   0.00000  Uiso   1.00
O131   O     0.55720   0.16667   0.17319   0.00000  Uiso   1.00
Zn132  Zn    0.44896   0.16667   0.25000   0.00000  Uiso   1.00
Zn133  Zn    0.55104   0.16666   0.25000   0.00000  Uiso   1.00
O134   O     0.44922   0.29145   0.19216   0.00000  Uiso   1.00
C135   C     0.47649   0.29131   0.13584   0.00000  Uiso   1.00
H136   H     0.48109   0.32367   0.11913   0.00000  Uiso   1.00
H137   H     0.51269   0.27681   0.12778   0.00000  Uiso   1.00
C138   C     0.45007   0.26591   0.10597   0.00000  Uiso   1.00
H139   H     0.47022   0.26711   0.06141   0.00000  Uiso   1.00
H140   H     0.44718   0.23283   0.11951   0.00000  Uiso   1.00
H141   H     0.41325   0.27885   0.11432   0.00000  Uiso   1.00
O142   O     0.38195   0.13119   0.41284   0.00000  Uiso   1.00
C143   C     0.66547   0.13461   0.44422   0.00000  Uiso   1.00
H144   H     0.65710   0.16387   0.46885   0.00000  Uiso   1.00
H145   H     0.65369   0.10697   0.47138   0.00000  Uiso   1.00
C146   C     0.63619   0.13523   0.40671   0.00000  Uiso   1.00
H147   H     0.64588   0.16305   0.37973   0.00000  Uiso   1.00
H148   H     0.64321   0.10629   0.38181   0.00000  Uiso   1.00
H149   H     0.59708   0.13663   0.43123   0.00000  Uiso   1.00
O150   O     0.41734   0.14356   0.07964   0.00000  Uiso   1.00
C151   C     0.40464   0.10174   0.09706   0.00000  Uiso   1.00
H152   H     0.42536   0.09276   0.12359   0.00000  Uiso   1.00
H153   H     0.41416   0.07825   0.06343   0.00000  Uiso   1.00
C154   C     0.35074   0.09915   0.13104   0.00000  Uiso   1.00
H155   H     0.34117   0.12525   0.16054   0.00000  Uiso   1.00
H156   H     0.66187   0.10245   0.10479   0.00000  Uiso   1.00
C157   C     0.33818   0.05779   0.16183   0.00000  Uiso   1.00
H158   H     0.34740   0.03118   0.13277   0.00000  Uiso   1.00
H159   H     0.63219   0.05691   0.18564   0.00000  Uiso   1.00
H160   H     0.35821   0.05446   0.19050   0.00000  Uiso   1.00
C161   C     0.83362   0.24666   0.24890   0.00000  Uiso   1.00
C162   C     0.80928   0.16971   0.49411   0.00000  Uiso   1.00
C163   C     0.81638   0.18348   0.44060   0.00000  Uiso   1.00
C164   C     0.84557   0.17957   0.01615   0.00000  Uiso   1.00
C165   C     0.88111   0.21015   0.49093   0.00000  Uiso   1.00
C166   C     0.88292   0.22795   0.44178   0.00000  Uiso   1.00
C167   C     0.85166   0.21423   0.41635   0.00000  Uiso   1.00
C168   C     0.84844   0.15915   0.06189   0.00000  Uiso   1.00
C169   C     0.91103   0.20591   0.06592   0.00000  Uiso   1.00
C170   C     0.78784   0.16663   0.41237   0.00000  Uiso   1.00
C171   C     0.86158   0.31174   0.27303   0.00000  Uiso   1.00
C172   C     0.80625   0.16728   0.35253   0.00000  Uiso   1.00
C173   C     0.86182   0.02117   0.27325   0.00000  Uiso   1.00
C174   C     0.83416   0.04264   0.24818   0.00000  Uiso   1.00
C175   C     0.80742   0.02206   0.22133   0.00000  Uiso   1.00
C176   C     0.80839   0.31237   0.21922   0.00000  Uiso   1.00
C177   C     0.83429   0.29084   0.24701   0.00000  Uiso   1.00
C178   C     0.96987   0.13344   0.27039   0.00000  Uiso   1.00
C179   C     0.68469   0.13323   0.26967   0.00000  Uiso   1.00
C180   C     0.69664   0.20000   0.23004   0.00000  Uiso   1.00
C181   C     0.98213   0.19993   0.22983   0.00000  Uiso   1.00
C182   C     0.83349   0.08670   0.24967   0.00000  Uiso   1.00
C183   C     0.86026   0.16720   0.14774   0.00000  Uiso   1.00
C184   C     0.91415   0.22263   0.01560   0.00000  Uiso   1.00
C185   C     0.87691   0.17489   0.08959   0.00000  Uiso   1.00
C186   C     0.74460   0.14543   0.44099   0.00000  Uiso   1.00
C187   C     0.73420   0.13680   0.49644   0.00000  Uiso   1.00
C188   C     0.76615   0.14743   0.02323   0.00000  Uiso   1.00
H189   H     0.93316   0.21867   0.08748   0.00000  Uiso   1.00
H190   H     0.88249   0.03743   0.29405   0.00000  Uiso   1.00
H191   H     0.78658   0.03923   0.20136   0.00000  Uiso   1.00
H192   H     0.94690   0.10682   0.28666   0.00000  Uiso   1.00
H193   H     0.69808   0.10641   0.28524   0.00000  Uiso   1.00
H194   H     0.71946   0.22670   0.21413   0.00000  Uiso   1.00
H195   H     0.96903   0.22651   0.21348   0.00000  Uiso   1.00
H196   H     0.90935   0.25174   0.42225   0.00000  Uiso   1.00
H197   H     0.94076   0.24654   0.49725   0.00000  Uiso   1.00
H198   H     0.82730   0.13189   0.07854   0.00000  Uiso   1.00
H199   H     0.70125   0.12100   0.01915   0.00000  Uiso   1.00
H200   H     0.85447   0.22887   0.37808   0.00000  Uiso   1.00
H201   H     0.88189   0.29501   0.29401   0.00000  Uiso   1.00
N202   N     0.71426   0.16668   0.25002   0.00000  Uiso   1.00
N203   N     0.95239   0.16665   0.25001   0.00000  Uiso   1.00
O204   O     0.79512   0.22775   0.25001   0.00000  Uiso   1.00
O205   O     0.87157   0.22774   0.25001   0.00000  Uiso   1.00
O206   O     0.77613   0.16666   0.32681   0.00000  Uiso   1.00
O207   O     0.85258   0.16665   0.32681   0.00000  Uiso   1.00
O208   O     0.79510   0.10559   0.25000   0.00000  Uiso   1.00
O209   O     0.87154   0.10558   0.25000   0.00000  Uiso   1.00
O210   O     0.81409   0.16668   0.17319   0.00000  Uiso   1.00
O211   O     0.89053   0.16667   0.17319   0.00000  Uiso   1.00
Zn212  Zn    0.78229   0.16667   0.25000   0.00000  Uiso   1.00
Zn213  Zn    0.88438   0.16666   0.25000   0.00000  Uiso   1.00
O214   O     0.78255   0.29145   0.19216   0.00000  Uiso   1.00
C215   C     0.80983   0.29131   0.13584   0.00000  Uiso   1.00
H216   H     0.81442   0.32367   0.11913   0.00000  Uiso   1.00
H217   H     0.84603   0.27681   0.12778   0.00000  Uiso   1.00
C218   C     0.78340   0.26591   0.10597   0.00000  Uiso   1.00
H219   H     0.80355   0.26711   0.06141   0.00000  Uiso   1.00
H220   H     0.78052   0.23283   0.11951   0.00000  Uiso   1.00
H221   H     0.74659   0.27885   0.11432   0.00000  Uiso   1.00
O222   O     0.71528   0.13119   0.41284   0.00000  Uiso   1.00
C223   C     0.99880   0.13461   0.44422   0.00000  Uiso   1.00
H224   H     0.99044   0.16387   0.46885   0.00000  Uiso   1.00
H225   H     0.98702   0.10697   0.47138   0.00000  Uiso   1.00
C226   C     0.96952   0.13523   0.40671   0.00000  Uiso   1.00
H227   H     0.97922   0.16305   0.37973   0.00000  Uiso   1.00
H228   H     0.97655   0.10629   0.38181   0.00000  Uiso   1.00
H229   H     0.93041   0.13663   0.43123   0.00000  Uiso   1.00
O230   O     0.75067   0.14356   0.07964   0.00000  Uiso   1.00
C231   C     0.73797   0.10174   0.09706   0.00000  Uiso   1.00
H232   H     0.75869   0.09276   0.12359   0.00000  Uiso   1.00
H233   H     0.74750   0.07825   0.06343   0.00000  Uiso   1.00
C234   C     0.68408   0.09915   0.13104   0.00000  Uiso   1.00
H235   H     0.67450   0.12525   0.16054   0.00000  Uiso   1.00
H236   H     0.99520   0.10245   0.10479   0.00000  Uiso   1.00
C237   C     0.67151   0.05779   0.16183   0.00000  Uiso   1.00
H238   H     0.68073   0.03118   0.13277   0.00000  Uiso   1.00
H239   H     0.96552   0.05691   0.18564   0.00000  Uiso   1.00
H240   H     0.69154   0.05446   0.19050   0.00000  Uiso   1.00
C241   C     0.16696   0.58000   0.24890   0.00000  Uiso   1.00
C242   C     0.14261   0.50305   0.49411   0.00000  Uiso   1.00
C243   C     0.14972   0.51682   0.44060   0.00000  Uiso   1.00
C244   C     0.17890   0.51291   0.01615   0.00000  Uiso   1.00
C245   C     0.21444   0.54349   0.49093   0.00000  Uiso   1.00
C246   C     0.21626   0.56129   0.44178   0.00000  Uiso   1.00
C247   C     0.18499   0.54757   0.41635   0.00000  Uiso   1.00
C248   C     0.18178   0.49249   0.06189   0.00000  Uiso   1.00
C249   C     0.24436   0.53925   0.06592   0.00000  Uiso   1.00
C250   C     0.12118   0.49997   0.41237   0.00000  Uiso   1.00
C251   C     0.19492   0.64507   0.27303   0.00000  Uiso   1.00
C252   C     0.13958   0.50061   0.35253   0.00000  Uiso   1.00
C253   C     0.19515   0.35451   0.27325   0.00000  Uiso   1.00
C254   C     0.16750   0.37598   0.24818   0.00000  Uiso   1.00
C255   C     0.14076   0.35539   0.22133   0.00000  Uiso   1.00
C256   C     0.14172   0.64570   0.21922   0.00000  Uiso   1.00
C257   C     0.16762   0.62418   0.24701   0.00000  Uiso   1.00
C258   C     0.30320   0.46677   0.27039   0.00000  Uiso   1.00
C259   C     0.01802   0.46656   0.26967   0.00000  Uiso   1.00
C260   C     0.02997   0.53333   0.23004   0.00000  Uiso   1.00
C261   C     0.31547   0.53326   0.22983   0.00000  Uiso   1.00
C262   C     0.16683   0.42003   0.24967   0.00000  Uiso   1.00
C263   C     0.19360   0.50054   0.14774   0.00000  Uiso   1.00
C264   C     0.24748   0.55596   0.01560   0.00000  Uiso   1.00
C265   C     0.21024   0.50823   0.08959   0.00000  Uiso   1.00
C266   C     0.07794   0.47876   0.44099   0.00000  Uiso   1.00
C267   C     0.06754   0.47013   0.49644   0.00000  Uiso   1.00
C268   C     0.09949   0.48076   0.02323   0.00000  Uiso   1.00
H269   H     0.26649   0.55201   0.08748   0.00000  Uiso   1.00
H270   H     0.21583   0.37076   0.29405   0.00000  Uiso   1.00
H271   H     0.11991   0.37256   0.20136   0.00000  Uiso   1.00
H272   H     0.28023   0.44015   0.28666   0.00000  Uiso   1.00
H273   H     0.03141   0.43974   0.28524   0.00000  Uiso   1.00
H274   H     0.05279   0.56003   0.21413   0.00000  Uiso   1.00
H275   H     0.30237   0.55985   0.21348   0.00000  Uiso   1.00
H276   H     0.24268   0.58507   0.42225   0.00000  Uiso   1.00
H277   H     0.27409   0.57987   0.49725   0.00000  Uiso   1.00
H278   H     0.16063   0.46523   0.07854   0.00000  Uiso   1.00
H279   H     0.03458   0.45433   0.01915   0.00000  Uiso   1.00
H280   H     0.18780   0.56220   0.37808   0.00000  Uiso   1.00
H281   H     0.21523   0.62834   0.29401   0.00000  Uiso   1.00
N282   N     0.04760   0.50001   0.25002   0.00000  Uiso   1.00
N283   N     0.28573   0.49998   0.25001   0.00000  Uiso   1.00
O284   O     0.12846   0.56108   0.25001   0.00000  Uiso   1.00
O285   O     0.20490   0.56107   0.25001   0.00000  Uiso   1.00
O286   O     0.10947   0.50000   0.32681   0.00000  Uiso   1.00
O287   O     0.18591   0.49999   0.32681   0.00000  Uiso   1.00
O288   O     0.12843   0.43893   0.25000   0.00000  Uiso   1.00
O289   O     0.20488   0.43892   0.25000   0.00000  Uiso   1.00
O290   O     0.14742   0.50001   0.17319   0.00000  Uiso   1.00
O291   O     0.22387   0.50000   0.17319   0.00000  Uiso   1.00
Zn292  Zn    0.11562   0.50001   0.25000   0.00000  Uiso   1.00
Zn293  Zn    0.21771   0.49999   0.25000   0.00000  Uiso   1.00
O294   O     0.11589   0.62478   0.19216   0.00000  Uiso   1.00
C295   C     0.14316   0.62464   0.13584   0.00000  Uiso   1.00
H296   H     0.14775   0.65700   0.11913   0.00000  Uiso   1.00
H297   H     0.17936   0.61014   0.12778   0.00000  Uiso   1.00
C298   C     0.11673   0.59924   0.10597   0.00000  Uiso   1.00
H299   H     0.13689   0.60044   0.06141   0.00000  Uiso   1.00
H300   H     0.11385   0.56616   0.11951   0.00000  Uiso   1.00
H301   H     0.07992   0.61218   0.11432   0.00000  Uiso   1.00
O302   O     0.04862   0.46452   0.41284   0.00000  Uiso   1.00
C303   C     0.33213   0.46794   0.44422   0.00000  Uiso   1.00
H304   H     0.32377   0.49720   0.46885   0.00000  Uiso   1.00
H305   H     0.32036   0.44031   0.47138   0.00000  Uiso   1.00
C306   C     0.30286   0.46856   0.40671   0.00000  Uiso   1.00
H307   H     0.31255   0.49638   0.37973   0.00000  Uiso   1.00
H308   H     0.30988   0.43963   0.38181   0.00000  Uiso   1.00
H309   H     0.26374   0.46996   0.43123   0.00000  Uiso   1.00
O310   O     0.08400   0.47689   0.07964   0.00000  Uiso   1.00
C311   C     0.07130   0.43507   0.09706   0.00000  Uiso   1.00
H312   H     0.09202   0.42610   0.12359   0.00000  Uiso   1.00
H313   H     0.08083   0.41158   0.06343   0.00000  Uiso   1.00
C314   C     0.01741   0.43248   0.13104   0.00000  Uiso   1.00
H315   H     0.00783   0.45858   0.16054   0.00000  Uiso   1.00
H316   H     0.32854   0.43578   0.10479   0.00000  Uiso   1.00
C317   C     0.00484   0.39112   0.16183   0.00000  Uiso   1.00
H318   H     0.01407   0.36452   0.13277   0.00000  Uiso   1.00
H319   H     0.29886   0.39025   0.18564   0.00000  Uiso   1.00
H320   H     0.02488   0.38780   0.19050   0.00000  Uiso   1.00
C321   C     0.50029   0.58000   0.24890   0.00000  Uiso   1.00
C322   C     0.47594   0.50305   0.49411   0.00000  Uiso   1.00
C323   C     0.48305   0.51682   0.44060   0.00000  Uiso   1.00
C324   C     0.51223   0.51291   0.01615   0.00000  Uiso   1.00
C325   C     0.54777   0.54349   0.49093   0.00000  Uiso   1.00
C326   C     0.54959   0.56129   0.44178   0.00000  Uiso   1.00
C327   C     0.51833   0.54757   0.41635   0.00000  Uiso   1.00
C328   C     0.51511   0.49249   0.06189   0.00000  Uiso   1.00
C329   C     0.57770   0.53925   0.06592   0.00000  Uiso   1.00
C330   C     0.45451   0.49997   0.41237   0.00000  Uiso   1.00
C331   C     0.52825   0.64507   0.27303   0.00000  Uiso   1.00
C332   C     0.47291   0.50061   0.35253   0.00000  Uiso   1.00
C333   C     0.52849   0.35451   0.27325   0.00000  Uiso   1.00
C334   C     0.50083   0.37598   0.24818   0.00000  Uiso   1.00
C335   C     0.47409   0.35539   0.22133   0.00000  Uiso   1.00
C336   C     0.47505   0.64570   0.21922   0.00000  Uiso   1.00
C337   C     0.50095   0.62418   0.24701   0.00000  Uiso   1.00
C338   C     0.63654   0.46677   0.27039   0.00000  Uiso   1.00
C339   C     0.35136   0.46656   0.26967   0.00000  Uiso   1.00
C340   C     0.36331   0.53333   0.23004   0.00000  Uiso   1.00
C341   C     0.64880   0.53326   0.22983   0.00000  Uiso   1.00
C342   C     0.50016   0.42003   0.24967   0.00000  Uiso   1.00
C343   C     0.52693   0.50054   0.14774   0.00000  Uiso   1.00
C344   C     0.58081   0.55596   0.01560   0.00000  Uiso   1.00
C345   C     0.54358   0.50823   0.08959   0.00000  Uiso   1.00
C346   C     0.41127   0.47876   0.44099   0.00000  Uiso   1.00
C347   C     0.40087   0.47013   0.49644   0.00000  Uiso   1.00
C348   C     0.43282   0.48076   0.02323   0.00000  Uiso   1.00
H349   H     0.59983   0.55201   0.08748   0.00000  Uiso   1.00
H350   H     0.54916   0.37076   0.29405   0.00000  Uiso   1.00
H351   H     0.45324   0.37256   0.20136   0.00000  Uiso   1.00
H352   H     0.61356   0.44015   0.28666   0.00000  Uiso   1.00
H353   H     0.36474   0.43974   0.28524   0.00000  Uiso   1.00
H354   H     0.38612   0.56003   0.21413   0.00000  Uiso   1.00
H355   H     0.63570   0.55985   0.21348   0.00000  Uiso   1.00
H356   H     0.57601   0.58507   0.42225   0.00000  Uiso   1.00
H357   H     0.60743   0.57987   0.49725   0.00000  Uiso   1.00
H358   H     0.49397   0.46523   0.07854   0.00000  Uiso   1.00
H359   H     0.36792   0.45433   0.01915   0.00000  Uiso   1.00
H360   H     0.52114   0.56220   0.37808   0.00000  Uiso   1.00
H361   H     0.54856   0.62834   0.29401   0.00000  Uiso   1.00
N362   N     0.38093   0.50001   0.25002   0.00000  Uiso   1.00
N363   N     0.61906   0.49998   0.25001   0.00000  Uiso   1.00
O364   O     0.46179   0.56108   0.25001   0.00000  Uiso   1.00
O365   O     0.53823   0.56107   0.25001   0.00000  Uiso   1.00
O366   O     0.44280   0.50000   0.32681   0.00000  Uiso   1.00
O367   O     0.51924   0.49999   0.32681   0.00000  Uiso   1.00
O368   O     0.46177   0.43893   0.25000   0.00000  Uiso   1.00
O369   O     0.53821   0.43892   0.25000   0.00000  Uiso   1.00
O370   O     0.48076   0.50001   0.17319   0.00000  Uiso   1.00
O371   O     0.55720   0.50000   0.17319   0.00000  Uiso   1.00
Zn372  Zn    0.44896   0.50001   0.25000   0.00000  Uiso   1.00
Zn373  Zn    0.55104   0.49999   0.25000   0.00000  Uiso   1.00
O374   O     0.44922   0.62478   0.19216   0.00000  Uiso   1.00
C375   C     0.47649   0.62464   0.13584   0.00000  Uiso   1.00
H376   H     0.48109   0.65700   0.11913   0.00000  Uiso   1.00
H377   H     0.51269   0.61014   0.12778   0.00000  Uiso   1.00
C378   C     0.45007   0.59924   0.10597   0.00000  Uiso   1.00
H379   H     0.47022   0.60044   0.06141   0.00000  Uiso   1.00
H380   H     0.44718   0.56616   0.11951   0.00000  Uiso   1.00
H381   H     0.41325   0.61218   0.11432   0.00000  Uiso   1.00
O382   O     0.38195   0.46452   0.41284   0.00000  Uiso   1.00
C383   C     0.66547   0.46794   0.44422   0.00000  Uiso   1.00
H384   H     0.65710   0.49720   0.46885   0.00000  Uiso   1.00
H385   H     0.65369   0.44031   0.47138   0.00000  Uiso   1.00
C386   C     0.63619   0.46856   0.40671   0.00000  Uiso   1.00
H387   H     0.64588   0.49638   0.37973   0.00000  Uiso   1.00
H388   H     0.64321   0.43963   0.38181   0.00000  Uiso   1.00
H389   H     0.59708   0.46996   0.43123   0.00000  Uiso   1.00
O390   O     0.41734   0.47689   0.07964   0.00000  Uiso   1.00
C391   C     0.40464   0.43507   0.09706   0.00000  Uiso   1.00
H392   H     0.42536   0.42610   0.12359   0.00000  Uiso   1.00
H393   H     0.41416   0.41158   0.06343   0.00000  Uiso   1.00
C394   C     0.35074   0.43248   0.13104   0.00000  Uiso   1.00
H395   H     0.34117   0.45858   0.16054   0.00000  Uiso   1.00
H396   H     0.66187   0.43578   0.10479   0.00000  Uiso   1.00
C397   C     0.33818   0.39112   0.16183   0.00000  Uiso   1.00
H398   H     0.34740   0.36452   0.13277   0.00000  Uiso   1.00
H399   H     0.63219   0.39025   0.18564   0.00000  Uiso   1.00
H400   H     0.35821   0.38780   0.19050   0.00000  Uiso   1.00
C401   C     0.83362   0.58000   0.24890   0.00000  Uiso   1.00
C402   C     0.80928   0.50305   0.49411   0.00000  Uiso   1.00
C403   C     0.81638   0.51682   0.44060   0.00000  Uiso   1.00
C404   C     0.84557   0.51291   0.01615   0.00000  Uiso   1.00
C405   C     0.88111   0.54349   0.49093   0.00000  Uiso   1.00
C406   C     0.88292   0.56129   0.44178   0.00000  Uiso   1.00
C407   C     0.85166   0.54757   0.41635   0.00000  Uiso   1.00
C408   C     0.84844   0.49249   0.06189   0.00000  Uiso   1.00
C409   C     0.91103   0.53925   0.06592   0.00000  Uiso   1.00
C410   C     0.78784   0.49997   0.41237   0.00000  Uiso   1.00
C411   C     0.86158   0.64507   0.27303   0.00000  Uiso   1.00
C412   C     0.80625   0.50061   0.35253   0.00000  Uiso   1.00
C413   C     0.86182   0.35451   0.27325   0.00000  Uiso   1.00
C414   C     0.83416   0.37598   0.24818   0.00000  Uiso   1.00
C415   C     0.80742   0.35539   0.22133   0.00000  Uiso   1.00
C416   C     0.80839   0.64570   0.21922   0.00000  Uiso   1.00
C417   C     0.83429   0.62418   0.24701   0.00000  Uiso   1.00
C418   C     0.96987   0.46677   0.27039   0.00000  Uiso   1.00
C419   C     0.68469   0.46656   0.26967   0.00000  Uiso   1.00
C420   C     0.69664   0.53333   0.23004   0.00000  Uiso   1.00
C421   C     0.98213   0.53326   0.22983   0.00000  Uiso   1.00
C422   C     0.83349   0.42003   0.24967   0.00000  Uiso   1.00
C423   C     0.86026   0.50054   0.14774   0.00000  Uiso   1.00
C424   C     0.91415   0.55596   0.01560   0.00000  Uiso   1.00
C425   C     0.87691   0.50823   0.08959   0.00000  Uiso   1.00
C426   C     0.74460   0.47876   0.44099   0.00000  Uiso   1.00
C427   C     0.73420   0.47013   0.49644   0.00000  Uiso   1.00
C428   C     0.76615   0.48076   0.02323   0.00000  Uiso   1.00
H429   H     0.93316   0.55201   0.08748   0.00000  Uiso   1.00
H430   H     0.88249   0.37076   0.29405   0.00000  Uiso   1.00
H431   H     0.78658   0.37256   0.20136   0.00000  Uiso   1.00
H432   H     0.94690   0.44015   0.28666   0.00000  Uiso   1.00
H433   H     0.69808   0.43974   0.28524   0.00000  Uiso   1.00
H434   H     0.71946   0.56003   0.21413   0.00000  Uiso   1.00
H435   H     0.96903   0.55985   0.21348   0.00000  Uiso   1.00
H436   H     0.90935   0.58507   0.42225   0.00000  Uiso   1.00
H437   H     0.94076   0.57987   0.49725   0.00000  Uiso   1.00
H438   H     0.82730   0.46523   0.07854   0.00000  Uiso   1.00
H439   H     0.70125   0.45433   0.01915   0.00000  Uiso   1.00
H440   H     0.85447   0.56220   0.37808   0.00000  Uiso   1.00
H441   H     0.88189   0.62834   0.29401   0.00000  Uiso   1.00
N442   N     0.71426   0.50001   0.25002   0.00000  Uiso   1.00
N443   N     0.95239   0.49998   0.25001   0.00000  Uiso   1.00
O444   O     0.79512   0.56108   0.25001   0.00000  Uiso   1.00
O445   O     0.87157   0.56107   0.25001   0.00000  Uiso   1.00
O446   O     0.77613   0.50000   0.32681   0.00000  Uiso   1.00
O447   O     0.85258   0.49999   0.32681   0.00000  Uiso   1.00
O448   O     0.79510   0.43893   0.25000   0.00000  Uiso   1.00
O449   O     0.87154   0.43892   0.25000   0.00000  Uiso   1.00
O450   O     0.81409   0.50001   0.17319   0.00000  Uiso   1.00
O451   O     0.89053   0.50000   0.17319   0.00000  Uiso   1.00
Zn452  Zn    0.78229   0.50001   0.25000   0.00000  Uiso   1.00
Zn453  Zn    0.88438   0.49999   0.25000   0.00000  Uiso   1.00
O454   O     0.78255   0.62478   0.19216   0.00000  Uiso   1.00
C455   C     0.80983   0.62464   0.13584   0.00000  Uiso   1.00
H456   H     0.81442   0.65700   0.11913   0.00000  Uiso   1.00
H457   H     0.84603   0.61014   0.12778   0.00000  Uiso   1.00
C458   C     0.78340   0.59924   0.10597   0.00000  Uiso   1.00
H459   H     0.80355   0.60044   0.06141   0.00000  Uiso   1.00
H460   H     0.78052   0.56616   0.11951   0.00000  Uiso   1.00
H461   H     0.74659   0.61218   0.11432   0.00000  Uiso   1.00
O462   O     0.71528   0.46452   0.41284   0.00000  Uiso   1.00
C463   C     0.99880   0.46794   0.44422   0.00000  Uiso   1.00
H464   H     0.99044   0.49720   0.46885   0.00000  Uiso   1.00
H465   H     0.98702   0.44031   0.47138   0.00000  Uiso   1.00
C466   C     0.96952   0.46856   0.40671   0.00000  Uiso   1.00
H467   H     0.97922   0.49638   0.37973   0.00000  Uiso   1.00
H468   H     0.97655   0.43963   0.38181   0.00000  Uiso   1.00
H469   H     0.93041   0.46996   0.43123   0.00000  Uiso   1.00
O470   O     0.75067   0.47689   0.07964   0.00000  Uiso   1.00
C471   C     0.73797   0.43507   0.09706   0.00000  Uiso   1.00
H472   H     0.75869   0.42610   0.12359   0.00000  Uiso   1.00
H473   H     0.74750   0.41158   0.06343   0.00000  Uiso   1.00
C474   C     0.68408   0.43248   0.13104   0.00000  Uiso   1.00
H475   H     0.67450   0.45858   0.16054   0.00000  Uiso   1.00
H476   H     0.99520   0.43578   0.10479   0.00000  Uiso   1.00
C477   C     0.67151   0.39112   0.16183   0.00000  Uiso   1.00
H478   H     0.68073   0.36452   0.13277   0.00000  Uiso   1.00
H479   H     0.96552   0.39025   0.18564   0.00000  Uiso   1.00
H480   H     0.69154   0.38780   0.19050   0.00000  Uiso   1.00
C481   C     0.16696   0.91333   0.24890   0.00000  Uiso   1.00
C482   C     0.14261   0.83638   0.49411   0.00000  Uiso   1.00
C483   C     0.14972   0.85015   0.44060   0.00000  Uiso   1.00
C484   C     0.17890   0.84624   0.01615   0.00000  Uiso   1.00
C485   C     0.21444   0.87682   0.49093   0.00000  Uiso   1.00
C486   C     0.21626   0.89462   0.44178   0.00000  Uiso   1.00
C487   C     0.18499   0.88090   0.41635   0.00000  Uiso   1.00
C488   C     0.18178   0.82582   0.06189   0.00000  Uiso   1.00
C489   C     0.24436   0.87258   0.06592   0.00000  Uiso   1.00
C490   C     0.12118   0.83330   0.41237   0.00000  Uiso   1.00
C491   C     0.19492   0.97840   0.27303   0.00000  Uiso   1.00
C492   C     0.13958   0.83394   0.35253   0.00000  Uiso   1.00
C493   C     0.19515   0.68784   0.27325   0.00000  Uiso   1.00
C494   C     0.16750   0.70931   0.24818   0.00000  Uiso   1.00
C495   C     0.14076   0.68873   0.22133   0.00000  Uiso   1.00
C496   C     0.14172   0.97904   0.21922   0.00000  Uiso   1.00
C497   C     0.16762   0.95751   0.24701   0.00000  Uiso   1.00
C498   C     0.30320   0.80011   0.27039   0.00000  Uiso   1.00
C499   C     0.01802   0.79990   0.26967   0.00000  Uiso   1.00
C500   C     0.02997   0.86666   0.23004   0.00000  Uiso   1.00
C501   C     0.31547   0.86660   0.22983   0.00000  Uiso   1.00
C502   C     0.16683   0.75337   0.24967   0.00000  Uiso   1.00
C503   C     0.19360   0.83387   0.14774   0.00000  Uiso   1.00
C504   C     0.24748   0.88930   0.01560   0.00000  Uiso   1.00
C505   C     0.21024   0.84156   0.08959   0.00000  Uiso   1.00
C506   C     0.07794   0.81210   0.44099   0.00000  Uiso   1.00
C507   C     0.06754   0.80347   0.49644   0.00000  Uiso   1.00
C508   C     0.09949   0.81409   0.02323   0.00000  Uiso   1.00
H509   H     0.26649   0.88534   0.08748   0.00000  Uiso   1.00
H510   H     0.21583   0.70410   0.29405   0.00000  Uiso   1.00
H511   H     0.11991   0.70590   0.20136   0.00000  Uiso   1.00
H512   H     0.28023   0.77348   0.28666   0.00000  Uiso   1.00
H513   H     0.03141   0.77307   0.28524   0.00000  Uiso   1.00
H514   H     0.05279   0.89337   0.21413   0.00000  Uiso   1.00
H515   H     0.30237   0.89318   0.21348   0.00000  Uiso   1.00
H516   H     0.24268   0.91840   0.42225   0.00000  Uiso   1.00
H517   H     0.27409   0.91321   0.49725   0.00000  Uiso   1.00
H518   H     0.16063   0.79856   0.07854   0.00000  Uiso   1.00
H519   H     0.03458   0.78767   0.01915   0.00000  Uiso   1.00
H520   H     0.18780   0.89553   0.37808   0.00000  Uiso   1.00
H521   H     0.21523   0.96168   0.29401   0.00000  Uiso   1.00
N522   N     0.04760   0.83334   0.25002   0.00000  Uiso   1.00
N523   N     0.28573   0.83331   0.25001   0.00000  Uiso   1.00
O524   O     0.12846   0.89442   0.25001   0.00000  Uiso   1.00
O525   O     0.20490   0.89441   0.25001   0.00000  Uiso   1.00
O526   O     0.10947   0.83333   0.32681   0.00000  Uiso   1.00
O527   O     0.18591   0.83332   0.32681   0.00000  Uiso   1.00
O528   O     0.12843   0.77226   0.25000   0.00000  Uiso   1.00
O529   O     0.20488   0.77225   0.25000   0.00000  Uiso   1.00
O530   O     0.14742   0.83335   0.17319   0.00000  Uiso   1.00
O531   O     0.22387   0.83334   0.17319   0.00000  Uiso   1.00
Zn532  Zn    0.11562   0.83334   0.25000   0.00000  Uiso   1.00
Zn533  Zn    0.21771   0.83333   0.25000   0.00000  Uiso   1.00
O534   O     0.11589   0.95812   0.19216   0.00000  Uiso   1.00
C535   C     0.14316   0.95797   0.13584   0.00000  Uiso   1.00
H536   H     0.14775   0.99033   0.11913   0.00000  Uiso   1.00
H537   H     0.17936   0.94347   0.12778   0.00000  Uiso   1.00
C538   C     0.11673   0.93257   0.10597   0.00000  Uiso   1.00
H539   H     0.13689   0.93378   0.06141   0.00000  Uiso   1.00
H540   H     0.11385   0.89949   0.11951   0.00000  Uiso   1.00
H541   H     0.07992   0.94551   0.11432   0.00000  Uiso   1.00
O542   O     0.04862   0.79786   0.41284   0.00000  Uiso   1.00
C543   C     0.33213   0.80128   0.44422   0.00000  Uiso   1.00
H544   H     0.32377   0.83053   0.46885   0.00000  Uiso   1.00
H545   H     0.32036   0.77364   0.47138   0.00000  Uiso   1.00
C546   C     0.30286   0.80189   0.40671   0.00000  Uiso   1.00
H547   H     0.31255   0.82972   0.37973   0.00000  Uiso   1.00
H548   H     0.30988   0.77296   0.38181   0.00000  Uiso   1.00
H549   H     0.26374   0.80330   0.43123   0.00000  Uiso   1.00
O550   O     0.08400   0.81022   0.07964   0.00000  Uiso   1.00
C551   C     0.07130   0.76840   0.09706   0.00000  Uiso   1.00
H552   H     0.09202   0.75943   0.12359   0.00000  Uiso   1.00
H553   H     0.08083   0.74491   0.06343   0.00000  Uiso   1.00
C554   C     0.01741   0.76581   0.13104   0.00000  Uiso   1.00
H555   H     0.00783   0.79191   0.16054   0.00000  Uiso   1.00
H556   H     0.32854   0.76911   0.10479   0.00000  Uiso   1.00
C557   C     0.00484   0.72446   0.16183   0.00000  Uiso   1.00
H558   H     0.01407   0.69785   0.13277   0.00000  Uiso   1.00
H559   H     0.29886   0.72358   0.18564   0.00000  Uiso   1.00
H560   H     0.02488   0.72113   0.19050   0.00000  Uiso   1.00
C561   C     0.50029   0.91333   0.24890   0.00000  Uiso   1.00
C562   C     0.47594   0.83638   0.49411   0.00000  Uiso   1.00
C563   C     0.48305   0.85015   0.44060   0.00000  Uiso   1.00
C564   C     0.51223   0.84624   0.01615   0.00000  Uiso   1.00
C565   C     0.54777   0.87682   0.49093   0.00000  Uiso   1.00
C566   C     0.54959   0.89462   0.44178   0.00000  Uiso   1.00
C567   C     0.51833   0.88090   0.41635   0.00000  Uiso   1.00
C568   C     0.51511   0.82582   0.06189   0.00000  Uiso   1.00
C569   C     0.57770   0.87258   0.06592   0.00000  Uiso   1.00
C570   C     0.45451   0.83330   0.41237   0.00000  Uiso   1.00
C571   C     0.52825   0.97840   0.27303   0.00000  Uiso   1.00
C572   C     0.47291   0.83394   0.35253   0.00000  Uiso   1.00
C573   C     0.52849   0.68784   0.27325   0.00000  Uiso   1.00
C574   C     0.50083   0.70931   0.24818   0.00000  Uiso   1.00
C575   C     0.47409   0.68873   0.22133   0.00000  Uiso   1.00
C576   C     0.47505   0.97904   0.21922   0.00000  Uiso   1.00
C577   C     0.50095   0.95751   0.24701   0.00000  Uiso   1.00
C578   C     0.63654   0.80011   0.27039   0.00000  Uiso   1.00
C579   C     0.35136   0.79990   0.26967   0.00000  Uiso   1.00
C580   C     0.36331   0.86666   0.23004   0.00000  Uiso   1.00
C581   C     0.64880   0.86660   0.22983   0.00000  Uiso   1.00
C582   C     0.50016   0.75337   0.24967   0.00000  Uiso   1.00
C583   C     0.52693   0.83387   0.14774   0.00000  Uiso   1.00
C584   C     0.58081   0.88930   0.01560   0.00000  Uiso   1.00
C585   C     0.54358   0.84156   0.08959   0.00000  Uiso   1.00
C586   C     0.41127   0.81210   0.44099   0.00000  Uiso   1.00
C587   C     0.40087   0.80347   0.49644   0.00000  Uiso   1.00
C588   C     0.43282   0.81409   0.02323   0.00000  Uiso   1.00
H589   H     0.59983   0.88534   0.08748   0.00000  Uiso   1.00
H590   H     0.54916   0.70410   0.29405   0.00000  Uiso   1.00
H591   H     0.45324   0.70590   0.20136   0.00000  Uiso   1.00
H592   H     0.61356   0.77348   0.28666   0.00000  Uiso   1.00
H593   H     0.36474   0.77307   0.28524   0.00000  Uiso   1.00
H594   H     0.38612   0.89337   0.21413   0.00000  Uiso   1.00
H595   H     0.63570   0.89318   0.21348   0.00000  Uiso   1.00
H596   H     0.57601   0.91840   0.42225   0.00000  Uiso   1.00
H597   H     0.60743   0.91321   0.49725   0.00000  Uiso   1.00
H598   H     0.49397   0.79856   0.07854   0.00000  Uiso   1.00
H599   H     0.36792   0.78767   0.01915   0.00000  Uiso   1.00
H600   H     0.52114   0.89553   0.37808   0.00000  Uiso   1.00
H601   H     0.54856   0.96168   0.29401   0.00000  Uiso   1.00
N602   N     0.38093   0.83334   0.25002   0.00000  Uiso   1.00
N603   N     0.61906   0.83331   0.25001   0.00000  Uiso   1.00
O604   O     0.46179   0.89442   0.25001   0.00000  Uiso   1.00
O605   O     0.53823   0.89441   0.25001   0.00000  Uiso   1.00
O606   O     0.44280   0.83333   0.32681   0.00000  Uiso   1.00
O607   O     0.51924   0.83332   0.32681   0.00000  Uiso   1.00
O608   O     0.46177   0.77226   0.25000   0.00000  Uiso   1.00
O609   O     0.53821   0.77225   0.25000   0.00000  Uiso   1.00
O610   O     0.48076   0.83335   0.17319   0.00000  Uiso   1.00
O611   O     0.55720   0.83334   0.17319   0.00000  Uiso   1.00
Zn612  Zn    0.44896   0.83334   0.25000   0.00000  Uiso   1.00
Zn613  Zn    0.55104   0.83333   0.25000   0.00000  Uiso   1.00
O614   O     0.44922   0.95812   0.19216   0.00000  Uiso   1.00
C615   C     0.47649   0.95797   0.13584   0.00000  Uiso   1.00
H616   H     0.48109   0.99033   0.11913   0.00000  Uiso   1.00
H617   H     0.51269   0.94347   0.12778   0.00000  Uiso   1.00
C618   C     0.45007   0.93257   0.10597   0.00000  Uiso   1.00
H619   H     0.47022   0.93378   0.06141   0.00000  Uiso   1.00
H620   H     0.44718   0.89949   0.11951   0.00000  Uiso   1.00
H621   H     0.41325   0.94551   0.11432   0.00000  Uiso   1.00
O622   O     0.38195   0.79786   0.41284   0.00000  Uiso   1.00
C623   C     0.66547   0.80128   0.44422   0.00000  Uiso   1.00
H624   H     0.65710   0.83053   0.46885   0.00000  Uiso   1.00
H625   H     0.65369   0.77364   0.47138   0.00000  Uiso   1.00
C626   C     0.63619   0.80189   0.40671   0.00000  Uiso   1.00
H627   H     0.64588   0.82972   0.37973   0.00000  Uiso   1.00
H628   H     0.64321   0.77296   0.38181   0.00000  Uiso   1.00
H629   H     0.59708   0.80330   0.43123   0.00000  Uiso   1.00
O630   O     0.41734   0.81022   0.07964   0.00000  Uiso   1.00
C631   C     0.40464   0.76840   0.09706   0.00000  Uiso   1.00
H632   H     0.42536   0.75943   0.12359   0.00000  Uiso   1.00
H633   H     0.41416   0.74491   0.06343   0.00000  Uiso   1.00
C634   C     0.35074   0.76581   0.13104   0.00000  Uiso   1.00
H635   H     0.34117   0.79191   0.16054   0.00000  Uiso   1.00
H636   H     0.66187   0.76911   0.10479   0.00000  Uiso   1.00
C637   C     0.33818   0.72446   0.16183   0.00000  Uiso   1.00
H638   H     0.34740   0.69785   0.13277   0.00000  Uiso   1.00
H639   H     0.63219   0.72358   0.18564   0.00000  Uiso   1.00
H640   H     0.35821   0.72113   0.19050   0.00000  Uiso   1.00
C641   C     0.83362   0.91333   0.24890   0.00000  Uiso   1.00
C642   C     0.80928   0.83638   0.49411   0.00000  Uiso   1.00
C643   C     0.81638   0.85015   0.44060   0.00000  Uiso   1.00
C644   C     0.84557   0.84624   0.01615   0.00000  Uiso   1.00
C645   C     0.88111   0.87682   0.49093   0.00000  Uiso   1.00
C646   C     0.88292   0.89462   0.44178   0.00000  Uiso   1.00
C647   C     0.85166   0.88090   0.41635   0.00000  Uiso   1.00
C648   C     0.84844   0.82582   0.06189   0.00000  Uiso   1.00
C649   C     0.91103   0.87258   0.06592   0.00000  Uiso   1.00
C650   C     0.78784   0.83330   0.41237   0.00000  Uiso   1.00
C651   C     0.86158   0.97840   0.27303   0.00000  Uiso   1.00
C652   C     0.80625   0.83394   0.35253   0.00000  Uiso   1.00
C653   C     0.86182   0.68784   0.27325   0.00000  Uiso   1.00
C654   C     0.83416   0.70931   0.24818   0.00000  Uiso   1.00
C655   C     0.80742   0.68873   0.22133   0.00000  Uiso   1.00
C656   C     0.80839   0.97904   0.21922   0.00000  Uiso   1.00
C657   C     0.83429   0.95751   0.24701   0.00000  Uiso   1.00
C658   C     0.96987   0.80011   0.27039   0.00000  Uiso   1.00
C659   C     0.68469   0.79990   0.26967   0.00000  Uiso   1.00
C660   C     0.69664   0.86666   0.23004   0.00000  Uiso   1.00
C661   C     0.98213   0.86660   0.22983   0.00000  Uiso   1.00
C662   C     0.83349   0.75337   0.24967   0.00000  Uiso   1.00
C663   C     0.86026   0.83387   0.14774   0.00000  Uiso   1.00
C664   C     0.91415   0.88930   0.01560   0.00000  Uiso   1.00
C665   C     0.87691   0.84156   0.08959   0.00000  Uiso   1.00
C666   C     0.74460   0.81210   0.44099   0.00000  Uiso   1.00
C667   C     0.73420   0.80347   0.49644   0.00000  Uiso   1.00
C668   C     0.76615   0.81409   0.02323   0.00000  Uiso   1.00
H669   H     0.93316   0.88534   0.08748   0.00000  Uiso   1.00
H670   H     0.88249   0.70410   0.29405   0.00000  Uiso   1.00
H671   H     0.78658   0.70590   0.20136   0.00000  Uiso   1.00
H672   H     0.94690   0.77348   0.28666   0.00000  Uiso   1.00
H673   H     0.69808   0.77307   0.28524   0.00000  Uiso   1.00
H674   H     0.71946   0.89337   0.21413   0.00000  Uiso   1.00
H675   H     0.96903   0.89318   0.21348   0.00000  Uiso   1.00
H676   H     0.90935   0.91840   0.42225   0.00000  Uiso   1.00
H677   H     0.94076   0.91321   0.49725   0.00000  Uiso   1.00
H678   H     0.82730   0.79856   0.07854   0.00000  Uiso   1.00
H679   H     0.70125   0.78767   0.01915   0.00000  Uiso   1.00
H680   H     0.85447   0.89553   0.37808   0.00000  Uiso   1.00
H681   H     0.88189   0.96168   0.29401   0.00000  Uiso   1.00
N682   N     0.71426   0.83334   0.25002   0.00000  Uiso   1.00
N683   N     0.95239   0.83331   0.25001   0.00000  Uiso   1.00
O684   O     0.79512   0.89442   0.25001   0.00000  Uiso   1.00
O685   O     0.87157   0.89441   0.25001   0.00000  Uiso   1.00
O686   O     0.77613   0.83333   0.32681   0.00000  Uiso   1.00
O687   O     0.85258   0.83332   0.32681   0.00000  Uiso   1.00
O688   O     0.79510   0.77226   0.25000   0.00000  Uiso   1.00
O689   O     0.87154   0.77225   0.25000   0.00000  Uiso   1.00
O690   O     0.81409   0.83335   0.17319   0.00000  Uiso   1.00
O691   O     0.89053   0.83334   0.17319   0.00000  Uiso   1.00
Zn692  Zn    0.78229   0.83334   0.25000   0.00000  Uiso   1.00
Zn693  Zn    0.88438   0.83333   0.25000   0.00000  Uiso   1.00
O694   O     0.78255   0.95812   0.19216   0.00000  Uiso   1.00
C695   C     0.80983   0.95797   0.13584   0.00000  Uiso   1.00
H696   H     0.81442   0.99033   0.11913   0.00000  Uiso   1.00
H697   H     0.84603   0.94347   0.12778   0.00000  Uiso   1.00
C698   C     0.78340   0.93257   0.10597   0.00000  Uiso   1.00
H699   H     0.80355   0.93378   0.06141   0.00000  Uiso   1.00
H700   H     0.78052   0.89949   0.11951   0.00000  Uiso   1.00
H701   H     0.74659   0.94551   0.11432   0.00000  Uiso   1.00
O702   O     0.71528   0.79786   0.41284   0.00000  Uiso   1.00
C703   C     0.99880   0.80128   0.44422   0.00000  Uiso   1.00
H704   H     0.99044   0.83053   0.46885   0.00000  Uiso   1.00
H705   H     0.98702   0.77364   0.47138   0.00000  Uiso   1.00
C706   C     0.96952   0.80189   0.40671   0.00000  Uiso   1.00
H707   H     0.97922   0.82972   0.37973   0.00000  Uiso   1.00
H708   H     0.97655   0.77296   0.38181   0.00000  Uiso   1.00
H709   H     0.93041   0.80330   0.43123   0.00000  Uiso   1.00
O710   O     0.75067   0.81022   0.07964   0.00000  Uiso   1.00
C711   C     0.73797   0.76840   0.09706   0.00000  Uiso   1.00
H712   H     0.75869   0.75943   0.12359   0.00000  Uiso   1.00
H713   H     0.74750   0.74491   0.06343   0.00000  Uiso   1.00
C714   C     0.68408   0.76581   0.13104   0.00000  Uiso   1.00
H715   H     0.67450   0.79191   0.16054   0.00000  Uiso   1.00
H716   H     0.99520   0.76911   0.10479   0.00000  Uiso   1.00
C717   C     0.67151   0.72446   0.16183   0.00000  Uiso   1.00
H718   H     0.68073   0.69785   0.13277   0.00000  Uiso   1.00
H719   H     0.96552   0.72358   0.18564   0.00000  Uiso   1.00
H720   H     0.69154   0.72113   0.19050   0.00000  Uiso   1.00
C721   C     0.16696   0.24666   0.74890   0.00000  Uiso   1.00
C722   C     0.14261   0.16971   0.99411   0.00000  Uiso   1.00
C723   C     0.14972   0.18348   0.94060   0.00000  Uiso   1.00
C724   C     0.17890   0.17957   0.51615   0.00000  Uiso   1.00
C725   C     0.21444   0.21015   0.99093   0.00000  Uiso   1.00
C726   C     0.21626   0.22795   0.94178   0.00000  Uiso   1.00
C727   C     0.18499   0.21423   0.91635   0.00000  Uiso   1.00
C728   C     0.18178   0.15915   0.56189   0.00000  Uiso   1.00
C729   C     0.24436   0.20591   0.56592   0.00000  Uiso   1.00
C730   C     0.12118   0.16663   0.91237   0.00000  Uiso   1.00
C731   C     0.19492   0.31174   0.77303   0.00000  Uiso   1.00
C732   C     0.13958   0.16728   0.85253   0.00000  Uiso   1.00
C733   C     0.19515   0.02117   0.77325   0.00000  Uiso   1.00
C734   C     0.16750   0.04264   0.74818   0.00000  Uiso   1.00
C735   C     0.14076   0.02206   0.72133   0.00000  Uiso   1.00
C736   C     0.14172   0.31237   0.71922   0.00000  Uiso   1.00
C737   C     0.16762   0.29084   0.74701   0.00000  Uiso   1.00
C738   C     0.30320   0.13344   0.77039   0.00000  Uiso   1.00
C739   C     0.01802   0.13323   0.76967   0.00000  Uiso   1.00
C740   C     0.02997   0.20000   0.73004   0.00000  Uiso   1.00
C741   C     0.31547   0.19993   0.72983   0.00000  Uiso   1.00
C742   C     0.16683   0.08670   0.74967   0.00000  Uiso   1.00
C743   C     0.19360   0.16720   0.64774   0.00000  Uiso   1.00
C744   C     0.24748   0.22263   0.51560   0.00000  Uiso   1.00
C745   C     0.21024   0.17489   0.58959   0.00000  Uiso   1.00
C746   C     0.07794   0.14543   0.94099   0.00000  Uiso   1.00
C747   C     0.06754   0.13680   0.99644   0.00000  Uiso   1.00
C748   C     0.09949   0.14743   0.52323   0.00000  Uiso   1.00
H749   H     0.26649   0.21867   0.58748   0.00000  Uiso   1.00
H750   H     0.21583   0.03743   0.79405   0.00000  Uiso   1.00
H751   H     0.11991   0.03923   0.70136   0.00000  Uiso   1.00
H752   H     0.28023   0.10682   0.78666   0.00000  Uiso   1.00
H753   H     0.03141   0.10641   0.78524   0.00000  Uiso   1.00
H754   H     0.05279   0.22670   0.71413   0.00000  Uiso   1.00
H755   H     0.30237   0.22651   0.71348   0.00000  Uiso   1.00
H756   H     0.24268   0.25174   0.92225   0.00000  Uiso   1.00
H757   H     0.27409   0.24654   0.99725   0.00000  Uiso   1.00
H758   H     0.16063   0.13189   0.57854   0.00000  Uiso   1.00
H759   H     0.03458   0.12100   0.51915   0.00000  Uiso   1.00
H760   H     0.18780   0.22887   0.87808   0.00000  Uiso   1.00
H761   H     0.21523   0.29501   0.79401   0.00000  Uiso   1.00
N762   N     0.04760   0.16668   0.75002   0.00000  Uiso   1.00
N763   N     0.28573   0.16665   0.75001   0.00000  Uiso   1.00
O764   O     0.12846   0.22775   0.75001   0.00000  Uiso   1.00
O765   O     0.20490   0.22774   0.75001   0.00000  Uiso   1.00
O766   O     0.10947   0.16666   0.82681   0.00000  Uiso   1.00
O767   O     0.18591   0.16665   0.82681   0.00000  Uiso   1.00
O768   O     0.12843   0.10559   0.75000   0.00000  Uiso   1.00
O769   O     0.20488   0.10558   0.75000   0.00000  Uiso   1.00
O770   O     0.14742   0.16668   0.67319   0.00000  Uiso   1.00
O771   O     0.22387   0.16667   0.67319   0.00000  Uiso   1.00
Zn772  Zn    0.11562   0.16667   0.75000   0.00000  Uiso   1.00
Zn773  Zn    0.21771   0.16666   0.75000   0.00000  Uiso   1.00
O774   O     0.11589   0.29145   0.69216   0.00000  Uiso   1.00
C775   C     0.14316   0.29131   0.63584   0.00000  Uiso   1.00
H776   H     0.14775   0.32367   0.61913   0.00000  Uiso   1.00
H777   H     0.17936   0.27681   0.62778   0.00000  Uiso   1.00
C778   C     0.11673   0.26591   0.60597   0.00000  Uiso   1.00
H779   H     0.13689   0.26711   0.56141   0.00000  Uiso   1.00
H780   H     0.11385   0.23283   0.61951   0.00000  Uiso   1.00
H781   H     0.07992   0.27885   0.61432   0.00000  Uiso   1.00
O782   O     0.04862   0.13119   0.91284   0.00000  Uiso   1.00
C783   C     0.33213   0.13461   0.94422   0.00000  Uiso   1.00
H784   H     0.32377   0.16387   0.96885   0.00000  Uiso   1.00
H785   H     0.32036   0.10697   0.97138   0.00000  Uiso   1.00
C786   C     0.30286   0.13523   0.90671   0.00000  Uiso   1.00
H787   H     0.31255   0.16305   0.87973   0.00000  Uiso   1.00
H788   H     0.30988   0.10629   0.88181   0.00000  Uiso   1.00
H789   H     0.26374   0.13663   0.93123   0.00000  Uiso   1.00
O790   O     0.08400   0.14356   0.57964   0.00000  Uiso   1.00
C791   C     0.07130   0.10174   0.59706   0.00000  Uiso   1.00
H792   H     0.09202   0.09276   0.62359   0.00000  Uiso   1.00
H793   H     0.08083   0.07825   0.56343   0.00000  Uiso   1.00
C794   C     0.01741   0.09915   0.63104   0.00000  Uiso   1.00
H795   H     0.00783   0.12525   0.66054   0.00000  Uiso   1.00
H796   H     0.32854   0.10245   0.60479   0.00000  Uiso   1.00
C797   C     0.00484   0.05779   0.66183   0.00000  Uiso   1.00
H798   H     0.01407   0.03118   0.63277   0.00000  Uiso   1.00
H799   H     0.29886   0.05691   0.68564   0.00000  Uiso   1.00
H800   H     0.02488   0.05446   0.69050   0.00000  Uiso   1.00
C801   C     0.50029   0.24666   0.74890   0.00000  Uiso   1.00
C802   C     0.47594   0.16971   0.99411   0.00000  Uiso   1.00
C803   C     0.48305   0.18348   0.94060   0.00000  Uiso   1.00
C804   C     0.51223   0.17957   0.51615   0.00000  Uiso   1.00
C805   C     0.54777   0.21015   0.99093   0.00000  Uiso   1.00
C806   C     0.54959   0.22795   0.94178   0.00000  Uiso   1.00
C807   C     0.51833   0.21423   0.91635   0.00000  Uiso   1.00
C808   C     0.51511   0.15915   0.56189   0.00000  Uiso   1.00
C809   C     0.57770   0.20591   0.56592   0.00000  Uiso   1.00
C810   C     0.45451   0.16663   0.91237   0.00000  Uiso   1.00
C811   C     0.52825   0.31174   0.77303   0.00000  Uiso   1.00
C812   C     0.47291   0.16728   0.85253   0.00000  Uiso   1.00
C813   C     0.52849   0.02117   0.77325   0.00000  Uiso   1.00
C814   C     0.50083   0.04264   0.74818   0.00000  Uiso   1.00
C815   C     0.47409   0.02206   0.72133   0.00000  Uiso   1.00
C816   C     0.47505   0.31237   0.71922   0.00000  Uiso   1.00
C817   C     0.50095   0.29084   0.74701   0.00000  Uiso   1.00
C818   C     0.63654   0.13344   0.77039   0.00000  Uiso   1.00
C819   C     0.35136   0.13323   0.76967   0.00000  Uiso   1.00
C820   C     0.36331   0.20000   0.73004   0.00000  Uiso   1.00
C821   C     0.64880   0.19993   0.72983   0.00000  Uiso   1.00
C822   C     0.50016   0.08670   0.74967   0.00000  Uiso   1.00
C823   C     0.52693   0.16720   0.64774   0.00000  Uiso   1.00
C824   C     0.58081   0.22263   0.51560   0.00000  Uiso   1.00
C825   C     0.54358   0.17489   0.58959   0.00000  Uiso   1.00
C826   C     0.41127   0.14543   0.94099   0.00000  Uiso   1.00
C827   C     0.40087   0.13680   0.99644   0.00000  Uiso   1.00
C828   C     0.43282   0.14743   0.52323   0.00000  Uiso   1.00
H829   H     0.59983   0.21867   0.58748   0.00000  Uiso   1.00
H830   H     0.54916   0.03743   0.79405   0.00000  Uiso   1.00
H831   H     0.45324   0.03923   0.70136   0.00000  Uiso   1.00
H832   H     0.61356   0.10682   0.78666   0.00000  Uiso   1.00
H833   H     0.36474   0.10641   0.78524   0.00000  Uiso   1.00
H834   H     0.38612   0.22670   0.71413   0.00000  Uiso   1.00
H835   H     0.63570   0.22651   0.71348   0.00000  Uiso   1.00
H836   H     0.57601   0.25174   0.92225   0.00000  Uiso   1.00
H837   H     0.60743   0.24654   0.99725   0.00000  Uiso   1.00
H838   H     0.49397   0.13189   0.57854   0.00000  Uiso   1.00
H839   H     0.36792   0.12100   0.51915   0.00000  Uiso   1.00
H840   H     0.52114   0.22887   0.87808   0.00000  Uiso   1.00
H841   H     0.54856   0.29501   0.79401   0.00000  Uiso   1.00
N842   N     0.38093   0.16668   0.75002   0.00000  Uiso   1.00
N843   N     0.61906   0.16665   0.75001   0.00000  Uiso   1.00
O844   O     0.46179   0.22775   0.75001   0.00000  Uiso   1.00
O845   O     0.53823   0.22774   0.75001   0.00000  Uiso   1.00
O846   O     0.44280   0.16666   0.82681   0.00000  Uiso   1.00
O847   O     0.51924   0.16665   0.82681   0.00000  Uiso   1.00
O848   O     0.46177   0.10559   0.75000   0.00000  Uiso   1.00
O849   O     0.53821   0.10558   0.75000   0.00000  Uiso   1.00
O850   O     0.48076   0.16668   0.67319   0.00000  Uiso   1.00
O851   O     0.55720   0.16667   0.67319   0.00000  Uiso   1.00
Zn852  Zn    0.44896   0.16667   0.75000   0.00000  Uiso   1.00
Zn853  Zn    0.55104   0.16666   0.75000   0.00000  Uiso   1.00
O854   O     0.44922   0.29145   0.69216   0.00000  Uiso   1.00
C855   C     0.47649   0.29131   0.63584   0.00000  Uiso   1.00
H856   H     0.48109   0.32367   0.61913   0.00000  Uiso   1.00
H857   H     0.51269   0.27681   0.62778   0.00000  Uiso   1.00
C858   C     0.45007   0.26591   0.60597   0.00000  Uiso   1.00
H859   H     0.47022   0.26711   0.56141   0.00000  Uiso   1.00
H860   H     0.44718   0.23283   0.61951   0.00000  Uiso   1.00
H861   H     0.41325   0.27885   0.61432   0.00000  Uiso   1.00
O862   O     0.38195   0.13119   0.91284   0.00000  Uiso   1.00
C863   C     0.66547   0.13461   0.94422   0.00000  Uiso   1.00
H864   H     0.65710   0.16387   0.96885   0.00000  Uiso   1.00
H865   H     0.65369   0.10697   0.97138   0.00000  Uiso   1.00
C866   C     0.63619   0.13523   0.90671   0.00000  Uiso   1.00
H867   H     0.64588   0.16305   0.87973   0.00000  Uiso   1.00
H868   H     0.64321   0.10629   0.88181   0.00000  Uiso   1.00
H869   H     0.59708   0.13663   0.93123   0.00000  Uiso   1.00
O870   O     0.41734   0.14356   0.57964   0.00000  Uiso   1.00
C871   C     0.40464   0.10174   0.59706   0.00000  Uiso   1.00
H872   H     0.42536   0.09276   0.62359   0.00000  Uiso   1.00
H873   H     0.41416   0.07825   0.56343   0.00000  Uiso   1.00
C874   C     0.35074   0.09915   0.63104   0.00000  Uiso   1.00
H875   H     0.34117   0.12525   0.66054   0.00000  Uiso   1.00
H876   H     0.66187   0.10245   0.60479   0.00000  Uiso   1.00
C877   C     0.33818   0.05779   0.66183   0.00000  Uiso   1.00
H878   H     0.34740   0.03118   0.63277   0.00000  Uiso   1.00
H879   H     0.63219   0.05691   0.68564   0.00000  Uiso   1.00
H880   H     0.35821   0.05446   0.69050   0.00000  Uiso   1.00
C881   C     0.83362   0.24666   0.74890   0.00000  Uiso   1.00
C882   C     0.80928   0.16971   0.99411   0.00000  Uiso   1.00
C883   C     0.81638   0.18348   0.94060   0.00000  Uiso   1.00
C884   C     0.84557   0.17957   0.51615   0.00000  Uiso   1.00
C885   C     0.88111   0.21015   0.99093   0.00000  Uiso   1.00
C886   C     0.88292   0.22795   0.94178   0.00000  Uiso   1.00
C887   C     0.85166   0.21423   0.91635   0.00000  Uiso   1.00
C888   C     0.84844   0.15915   0.56189   0.00000  Uiso   1.00
C889   C     0.91103   0.20591   0.56592   0.00000  Uiso   1.00
C890   C     0.78784   0.16663   0.91237   0.00000  Uiso   1.00
C891   C     0.86158   0.31174   0.77303   0.00000  Uiso   1.00
C892   C     0.80625   0.16728   0.85253   0.00000  Uiso   1.00
C893   C     0.86182   0.02117   0.77325   0.00000  Uiso   1.00
C894   C     0.83416   0.04264   0.74818   0.00000  Uiso   1.00
C895   C     0.80742   0.02206   0.72133   0.00000  Uiso   1.00
C896   C     0.80839   0.31237   0.71922   0.00000  Uiso   1.00
C897   C     0.83429   0.29084   0.74701   0.00000  Uiso   1.00
C898   C     0.96987   0.13344   0.77039   0.00000  Uiso   1.00
C899   C     0.68469   0.13323   0.76967   0.00000  Uiso   1.00
C900   C     0.69664   0.20000   0.73004   0.00000  Uiso   1.00
C901   C     0.98213   0.19993   0.72983   0.00000  Uiso   1.00
C902   C     0.83349   0.08670   0.74967   0.00000  Uiso   1.00
C903   C     0.86026   0.16720   0.64774   0.00000  Uiso   1.00
C904   C     0.91415   0.22263   0.51560   0.00000  Uiso   1.00
C905   C     0.87691   0.17489   0.58959   0.00000  Uiso   1.00
C906   C     0.74460   0.14543   0.94099   0.00000  Uiso   1.00
C907   C     0.73420   0.13680   0.99644   0.00000  Uiso   1.00
C908   C     0.76615   0.14743   0.52323   0.00000  Uiso   1.00
H909   H     0.93316   0.21867   0.58748   0.00000  Uiso   1.00
H910   H     0.88249   0.03743   0.79405   0.00000  Uiso   1.00
H911   H     0.78658   0.03923   0.70136   0.00000  Uiso   1.00
H912   H     0.94690   0.10682   0.78666   0.00000  Uiso   1.00
H913   H     0.69808   0.10641   0.78524   0.00000  Uiso   1.00
H914   H     0.71946   0.22670   0.71413   0.00000  Uiso   1.00
H915   H     0.96903   0.22651   0.71348   0.00000  Uiso   1.00
H916   H     0.90935   0.25174   0.92225   0.00000  Uiso   1.00
H917   H     0.94076   0.24654   0.99725   0.00000  Uiso   1.00
H918   H     0.82730   0.13189   0.57854   0.00000  Uiso   1.00
H919   H     0.70125   0.12100   0.51915   0.00000  Uiso   1.00
H920   H     0.85447   0.22887   0.87808   0.00000  Uiso   1.00
H921   H     0.88189   0.29501   0.79401   0.00000  Uiso   1.00
N922   N     0.71426   0.16668   0.75002   0.00000  Uiso   1.00
N923   N     0.95239   0.16665   0.75001   0.00000  Uiso   1.00
O924   O     0.79512   0.22775   0.75001   0.00000  Uiso   1.00
O925   O     0.87157   0.22774   0.75001   0.00000  Uiso   1.00
O926   O     0.77613   0.16666   0.82681   0.00000  Uiso   1.00
O927   O     0.85258   0.16665   0.82681   0.00000  Uiso   1.00
O928   O     0.79510   0.10559   0.75000   0.00000  Uiso   1.00
O929   O     0.87154   0.10558   0.75000   0.00000  Uiso   1.00
O930   O     0.81409   0.16668   0.67319   0.00000  Uiso   1.00
O931   O     0.89053   0.16667   0.67319   0.00000  Uiso   1.00
Zn932  Zn    0.78229   0.16667   0.75000   0.00000  Uiso   1.00
Zn933  Zn    0.88438   0.16666   0.75000   0.00000  Uiso   1.00
O934   O     0.78255   0.29145   0.69216   0.00000  Uiso   1.00
C935   C     0.80983   0.29131   0.63584   0.00000  Uiso   1.00
H936   H     0.81442   0.32367   0.61913   0.00000  Uiso   1.00
H937   H     0.84603   0.27681   0.62778   0.00000  Uiso   1.00
C938   C     0.78340   0.26591   0.60597   0.00000  Uiso   1.00
H939   H     0.80355   0.26711   0.56141   0.00000  Uiso   1.00
H940   H     0.78052   0.23283   0.61951   0.00000  Uiso   1.00
H941   H     0.74659   0.27885   0.61432   0.00000  Uiso   1.00
O942   O     0.71528   0.13119   0.91284   0.00000  Uiso   1.00
C943   C     0.99880   0.13461   0.94422   0.00000  Uiso   1.00
H944   H     0.99044   0.16387   0.96885   0.00000  Uiso   1.00
H945   H     0.98702   0.10697   0.97138   0.00000  Uiso   1.00
C946   C     0.96952   0.13523   0.90671   0.00000  Uiso   1.00
H947   H     0.97922   0.16305   0.87973   0.00000  Uiso   1.00
H948   H     0.97655   0.10629   0.88181   0.00000  Uiso   1.00
H949   H     0.93041   0.13663   0.93123   0.00000  Uiso   1.00
O950   O     0.75067   0.14356   0.57964   0.00000  Uiso   1.00
C951   C     0.73797   0.10174   0.59706   0.00000  Uiso   1.00
H952   H     0.75869   0.09276   0.62359   0.00000  Uiso   1.00
H953   H     0.74750   0.07825   0.56343   0.00000  Uiso   1.00
C954   C     0.68408   0.09915   0.63104   0.00000  Uiso   1.00
H955   H     0.67450   0.12525   0.66054   0.00000  Uiso   1.00
H956   H     0.99520   0.10245   0.60479   0.00000  Uiso   1.00
C957   C     0.67151   0.05779   0.66183   0.00000  Uiso   1.00
H958   H     0.68073   0.03118   0.63277   0.00000  Uiso   1.00
H959   H     0.96552   0.05691   0.68564   0.00000  Uiso   1.00
H960   H     0.69154   0.05446   0.69050   0.00000  Uiso   1.00
C961   C     0.16696   0.58000   0.74890   0.00000  Uiso   1.00
C962   C     0.14261   0.50305   0.99411   0.00000  Uiso   1.00
C963   C     0.14972   0.51682   0.94060   0.00000  Uiso   1.00
C964   C     0.17890   0.51291   0.51615   0.00000  Uiso   1.00
C965   C     0.21444   0.54349   0.99093   0.00000  Uiso   1.00
C966   C     0.21626   0.56129   0.94178   0.00000  Uiso   1.00
C967   C     0.18499   0.54757   0.91635   0.00000  Uiso   1.00
C968   C     0.18178   0.49249   0.56189   0.00000  Uiso   1.00
C969   C     0.24436   0.53925   0.56592   0.00000  Uiso   1.00
C970   C     0.12118   0.49997   0.91237   0.00000  Uiso   1.00
C971   C     0.19492   0.64507   0.77303   0.00000  Uiso   1.00
C972   C     0.13958   0.50061   0.85253   0.00000  Uiso   1.00
C973   C     0.19515   0.35451   0.77325   0.00000  Uiso   1.00
C974   C     0.16750   0.37598   0.74818   0.00000  Uiso   1.00
C975   C     0.14076   0.35539   0.72133   0.00000  Uiso   1.00
C976   C     0.14172   0.64570   0.71922   0.00000  Uiso   1.00
C977   C     0.16762   0.62418   0.74701   0.00000  Uiso   1.00
C978   C     0.30320   0.46677   0.77039   0.00000  Uiso   1.00
C979   C     0.01802   0.46656   0.76967   0.00000  Uiso   1.00
C980   C     0.02997   0.53333   0.73004   0.00000  Uiso   1.00
C981   C     0.31547   0.53326   0.72983   0.00000  Uiso   1.00
C982   C     0.16683   0.42003   0.74967   0.00000  Uiso   1.00
C983   C     0.19360   0.50054   0.64774   0.00000  Uiso   1.00
C984   C     0.24748   0.55596   0.51560   0.00000  Uiso   1.00
C985   C     0.21024   0.50823   0.58959   0.00000  Uiso   1.00
C986   C     0.07794   0.47876   0.94099   0.00000  Uiso   1.00
C987   C     0.06754   0.47013   0.99644   0.00000  Uiso   1.00
C988   C     0.09949   0.48076   0.52323   0.00000  Uiso   1.00
H989   H     0.26649   0.55201   0.58748   0.00000  Uiso   1.00
H990   H     0.21583   0.37076   0.79405   0.00000  Uiso   1.00
H991   H     0.11991   0.37256   0.70136   0.00000  Uiso   1.00
H992   H     0.28023   0.44015   0.78666   0.00000  Uiso   1.00
H993   H     0.03141   0.43974   0.78524   0.00000  Uiso   1.00
H994   H     0.05279   0.56003   0.71413   0.00000  Uiso   1.00
H995   H     0.30237   0.55985   0.71348   0.00000  Uiso   1.00
H996   H     0.24268   0.58507   0.92225   0.00000  Uiso   1.00
H997   H     0.27409   0.57987   0.99725   0.00000  Uiso   1.00
H998   H     0.16063   0.46523   0.57854   0.00000  Uiso   1.00
H999   H     0.03458   0.45433   0.51915   0.00000  Uiso   1.00
H1000  H     0.18780   0.56220   0.87808   0.00000  Uiso   1.00
H1001  H     0.21523   0.62834   0.79401   0.00000  Uiso   1.00
N1002  N     0.04760   0.50001   0.75002   0.00000  Uiso   1.00
N1003  N     0.28573   0.49998   0.75001   0.00000  Uiso   1.00
O1004  O     0.12846   0.56108   0.75001   0.00000  Uiso   1.00
O1005  O     0.20490   0.56107   0.75001   0.00000  Uiso   1.00
O1006  O     0.10947   0.50000   0.82681   0.00000  Uiso   1.00
O1007  O     0.18591   0.49999   0.82681   0.00000  Uiso   1.00
O1008  O     0.12843   0.43893   0.75000   0.00000  Uiso   1.00
O1009  O     0.20488   0.43892   0.75000   0.00000  Uiso   1.00
O1010  O     0.14742   0.50001   0.67319   0.00000  Uiso   1.00
O1011  O     0.22387   0.50000   0.67319   0.00000  Uiso   1.00
Zn1012 Zn    0.11562   0.50001   0.75000   0.00000  Uiso   1.00
Zn1013 Zn    0.21771   0.49999   0.75000   0.00000  Uiso   1.00
O1014  O     0.11589   0.62478   0.69216   0.00000  Uiso   1.00
C1015  C     0.14316   0.62464   0.63584   0.00000  Uiso   1.00
H1016  H     0.14775   0.65700   0.61913   0.00000  Uiso   1.00
H1017  H     0.17936   0.61014   0.62778   0.00000  Uiso   1.00
C1018  C     0.11673   0.59924   0.60597   0.00000  Uiso   1.00
H1019  H     0.13689   0.60044   0.56141   0.00000  Uiso   1.00
H1020  H     0.11385   0.56616   0.61951   0.00000  Uiso   1.00
H1021  H     0.07992   0.61218   0.61432   0.00000  Uiso   1.00
O1022  O     0.04862   0.46452   0.91284   0.00000  Uiso   1.00
C1023  C     0.33213   0.46794   0.94422   0.00000  Uiso   1.00
H1024  H     0.32377   0.49720   0.96885   0.00000  Uiso   1.00
H1025  H     0.32036   0.44031   0.97138   0.00000  Uiso   1.00
C1026  C     0.30286   0.46856   0.90671   0.00000  Uiso   1.00
H1027  H     0.31255   0.49638   0.87973   0.00000  Uiso   1.00
H1028  H     0.30988   0.43963   0.88181   0.00000  Uiso   1.00
H1029  H     0.26374   0.46996   0.93123   0.00000  Uiso   1.00
O1030  O     0.08400   0.47689   0.57964   0.00000  Uiso   1.00
C1031  C     0.07130   0.43507   0.59706   0.00000  Uiso   1.00
H1032  H     0.09202   0.42610   0.62359   0.00000  Uiso   1.00
H1033  H     0.08083   0.41158   0.56343   0.00000  Uiso   1.00
C1034  C     0.01741   0.43248   0.63104   0.00000  Uiso   1.00
H1035  H     0.00783   0.45858   0.66054   0.00000  Uiso   1.00
H1036  H     0.32854   0.43578   0.60479   0.00000  Uiso   1.00
C1037  C     0.00484   0.39112   0.66183   0.00000  Uiso   1.00
H1038  H     0.01407   0.36452   0.63277   0.00000  Uiso   1.00
H1039  H     0.29886   0.39025   0.68564   0.00000  Uiso   1.00
H1040  H     0.02488   0.38780   0.69050   0.00000  Uiso   1.00
C1041  C     0.50029   0.58000   0.74890   0.00000  Uiso   1.00
C1042  C     0.47594   0.50305   0.99411   0.00000  Uiso   1.00
C1043  C     0.48305   0.51682   0.94060   0.00000  Uiso   1.00
C1044  C     0.51223   0.51291   0.51615   0.00000  Uiso   1.00
C1045  C     0.54777   0.54349   0.99093   0.00000  Uiso   1.00
C1046  C     0.54959   0.56129   0.94178   0.00000  Uiso   1.00
C1047  C     0.51833   0.54757   0.91635   0.00000  Uiso   1.00
C1048  C     0.51511   0.49249   0.56189   0.00000  Uiso   1.00
C1049  C     0.57770   0.53925   0.56592   0.00000  Uiso   1.00
C1050  C     0.45451   0.49997   0.91237   0.00000  Uiso   1.00
C1051  C     0.52825   0.64507   0.77303   0.00000  Uiso   1.00
C1052  C     0.47291   0.50061   0.85253   0.00000  Uiso   1.00
C1053  C     0.52849   0.35451   0.77325   0.00000  Uiso   1.00
C1054  C     0.50083   0.37598   0.74818   0.00000  Uiso   1.00
C1055  C     0.47409   0.35539   0.72133   0.00000  Uiso   1.00
C1056  C     0.47505   0.64570   0.71922   0.00000  Uiso   1.00
C1057  C     0.50095   0.62418   0.74701   0.00000  Uiso   1.00
C1058  C     0.63654   0.46677   0.77039   0.00000  Uiso   1.00
C1059  C     0.35136   0.46656   0.76967   0.00000  Uiso   1.00
C1060  C     0.36331   0.53333   0.73004   0.00000  Uiso   1.00
C1061  C     0.64880   0.53326   0.72983   0.00000  Uiso   1.00
C1062  C     0.50016   0.42003   0.74967   0.00000  Uiso   1.00
C1063  C     0.52693   0.50054   0.64774   0.00000  Uiso   1.00
C1064  C     0.58081   0.55596   0.51560   0.00000  Uiso   1.00
C1065  C     0.54358   0.50823   0.58959   0.00000  Uiso   1.00
C1066  C     0.41127   0.47876   0.94099   0.00000  Uiso   1.00
C1067  C     0.40087   0.47013   0.99644   0.00000  Uiso   1.00
C1068  C     0.43282   0.48076   0.52323   0.00000  Uiso   1.00
H1069  H     0.59983   0.55201   0.58748   0.00000  Uiso   1.00
H1070  H     0.54916   0.37076   0.79405   0.00000  Uiso   1.00
H1071  H     0.45324   0.37256   0.70136   0.00000  Uiso   1.00
H1072  H     0.61356   0.44015   0.78666   0.00000  Uiso   1.00
H1073  H     0.36474   0.43974   0.78524   0.00000  Uiso   1.00
H1074  H     0.38612   0.56003   0.71413   0.00000  Uiso   1.00
H1075  H     0.63570   0.55985   0.71348   0.00000  Uiso   1.00
H1076  H     0.57601   0.58507   0.92225   0.00000  Uiso   1.00
H1077  H     0.60743   0.57987   0.99725   0.00000  Uiso   1.00
H1078  H     0.49397   0.46523   0.57854   0.00000  Uiso   1.00
H1079  H     0.36792   0.45433   0.51915   0.00000  Uiso   1.00
H1080  H     0.52114   0.56220   0.87808   0.00000  Uiso   1.00
H1081  H     0.54856   0.62834   0.79401   0.00000  Uiso   1.00
N1082  N     0.38093   0.50001   0.75002   0.00000  Uiso   1.00
N1083  N     0.61906   0.49998   0.75001   0.00000  Uiso   1.00
O1084  O     0.46179   0.56108   0.75001   0.00000  Uiso   1.00
O1085  O     0.53823   0.56107   0.75001   0.00000  Uiso   1.00
O1086  O     0.44280   0.50000   0.82681   0.00000  Uiso   1.00
O1087  O     0.51924   0.49999   0.82681   0.00000  Uiso   1.00
O1088  O     0.46177   0.43893   0.75000   0.00000  Uiso   1.00
O1089  O     0.53821   0.43892   0.75000   0.00000  Uiso   1.00
O1090  O     0.48076   0.50001   0.67319   0.00000  Uiso   1.00
O1091  O     0.55720   0.50000   0.67319   0.00000  Uiso   1.00
Zn1092 Zn    0.44896   0.50001   0.75000   0.00000  Uiso   1.00
Zn1093 Zn    0.55104   0.49999   0.75000   0.00000  Uiso   1.00
O1094  O     0.44922   0.62478   0.69216   0.00000  Uiso   1.00
C1095  C     0.47649   0.62464   0.63584   0.00000  Uiso   1.00
H1096  H     0.48109   0.65700   0.61913   0.00000  Uiso   1.00
H1097  H     0.51269   0.61014   0.62778   0.00000  Uiso   1.00
C1098  C     0.45007   0.59924   0.60597   0.00000  Uiso   1.00
H1099  H     0.47022   0.60044   0.56141   0.00000  Uiso   1.00
H1100  H     0.44718   0.56616   0.61951   0.00000  Uiso   1.00
H1101  H     0.41325   0.61218   0.61432   0.00000  Uiso   1.00
O1102  O     0.38195   0.46452   0.91284   0.00000  Uiso   1.00
C1103  C     0.66547   0.46794   0.94422   0.00000  Uiso   1.00
H1104  H     0.65710   0.49720   0.96885   0.00000  Uiso   1.00
H1105  H     0.65369   0.44031   0.97138   0.00000  Uiso   1.00
C1106  C     0.63619   0.46856   0.90671   0.00000  Uiso   1.00
H1107  H     0.64588   0.49638   0.87973   0.00000  Uiso   1.00
H1108  H     0.64321   0.43963   0.88181   0.00000  Uiso   1.00
H1109  H     0.59708   0.46996   0.93123   0.00000  Uiso   1.00
O1110  O     0.41734   0.47689   0.57964   0.00000  Uiso   1.00
C1111  C     0.40464   0.43507   0.59706   0.00000  Uiso   1.00
H1112  H     0.42536   0.42610   0.62359   0.00000  Uiso   1.00
H1113  H     0.41416   0.41158   0.56343   0.00000  Uiso   1.00
C1114  C     0.35074   0.43248   0.63104   0.00000  Uiso   1.00
H1115  H     0.34117   0.45858   0.66054   0.00000  Uiso   1.00
H1116  H     0.66187   0.43578   0.60479   0.00000  Uiso   1.00
C1117  C     0.33818   0.39112   0.66183   0.00000  Uiso   1.00
H1118  H     0.34740   0.36452   0.63277   0.00000  Uiso   1.00
H1119  H     0.63219   0.39025   0.68564   0.00000  Uiso   1.00
H1120  H     0.35821   0.38780   0.69050   0.00000  Uiso   1.00
C1121  C     0.83362   0.58000   0.74890   0.00000  Uiso   1.00
C1122  C     0.80928   0.50305   0.99411   0.00000  Uiso   1.00
C1123  C     0.81638   0.51682   0.94060   0.00000  Uiso   1.00
C1124  C     0.84557   0.51291   0.51615   0.00000  Uiso   1.00
C1125  C     0.88111   0.54349   0.99093   0.00000  Uiso   1.00
C1126  C     0.88292   0.56129   0.94178   0.00000  Uiso   1.00
C1127  C     0.85166   0.54757   0.91635   0.00000  Uiso   1.00
C1128  C     0.84844   0.49249   0.56189   0.00000  Uiso   1.00
C1129  C     0.91103   0.53925   0.56592   0.00000  Uiso   1.00
C1130  C     0.78784   0.49997   0.91237   0.00000  Uiso   1.00
C1131  C     0.86158   0.64507   0.77303   0.00000  Uiso   1.00
C1132  C     0.80625   0.50061   0.85253   0.00000  Uiso   1.00
C1133  C     0.86182   0.35451   0.77325   0.00000  Uiso   1.00
C1134  C     0.83416   0.37598   0.74818   0.00000  Uiso   1.00
C1135  C     0.80742   0.35539   0.72133   0.00000  Uiso   1.00
C1136  C     0.80839   0.64570   0.71922   0.00000  Uiso   1.00
C1137  C     0.83429   0.62418   0.74701   0.00000  Uiso   1.00
C1138  C     0.96987   0.46677   0.77039   0.00000  Uiso   1.00
C1139  C     0.68469   0.46656   0.76967   0.00000  Uiso   1.00
C1140  C     0.69664   0.53333   0.73004   0.00000  Uiso   1.00
C1141  C     0.98213   0.53326   0.72983   0.00000  Uiso   1.00
C1142  C     0.83349   0.42003   0.74967   0.00000  Uiso   1.00
C1143  C     0.86026   0.50054   0.64774   0.00000  Uiso   1.00
C1144  C     0.91415   0.55596   0.51560   0.00000  Uiso   1.00
C1145  C     0.87691   0.50823   0.58959   0.00000  Uiso   1.00
C1146  C     0.74460   0.47876   0.94099   0.00000  Uiso   1.00
C1147  C     0.73420   0.47013   0.99644   0.00000  Uiso   1.00
C1148  C     0.76615   0.48076   0.52323   0.00000  Uiso   1.00
H1149  H     0.93316   0.55201   0.58748   0.00000  Uiso   1.00
H1150  H     0.88249   0.37076   0.79405   0.00000  Uiso   1.00
H1151  H     0.78658   0.37256   0.70136   0.00000  Uiso   1.00
H1152  H     0.94690   0.44015   0.78666   0.00000  Uiso   1.00
H1153  H     0.69808   0.43974   0.78524   0.00000  Uiso   1.00
H1154  H     0.71946   0.56003   0.71413   0.00000  Uiso   1.00
H1155  H     0.96903   0.55985   0.71348   0.00000  Uiso   1.00
H1156  H     0.90935   0.58507   0.92225   0.00000  Uiso   1.00
H1157  H     0.94076   0.57987   0.99725   0.00000  Uiso   1.00
H1158  H     0.82730   0.46523   0.57854   0.00000  Uiso   1.00
H1159  H     0.70125   0.45433   0.51915   0.00000  Uiso   1.00
H1160  H     0.85447   0.56220   0.87808   0.00000  Uiso   1.00
H1161  H     0.88189   0.62834   0.79401   0.00000  Uiso   1.00
N1162  N     0.71426   0.50001   0.75002   0.00000  Uiso   1.00
N1163  N     0.95239   0.49998   0.75001   0.00000  Uiso   1.00
O1164  O     0.79512   0.56108   0.75001   0.00000  Uiso   1.00
O1165  O     0.87157   0.56107   0.75001   0.00000  Uiso   1.00
O1166  O     0.77613   0.50000   0.82681   0.00000  Uiso   1.00
O1167  O     0.85258   0.49999   0.82681   0.00000  Uiso   1.00
O1168  O     0.79510   0.43893   0.75000   0.00000  Uiso   1.00
O1169  O     0.87154   0.43892   0.75000   0.00000  Uiso   1.00
O1170  O     0.81409   0.50001   0.67319   0.00000  Uiso   1.00
O1171  O     0.89053   0.50000   0.67319   0.00000  Uiso   1.00
Zn1172 Zn    0.78229   0.50001   0.75000   0.00000  Uiso   1.00
Zn1173 Zn    0.88438   0.49999   0.75000   0.00000  Uiso   1.00
O1174  O     0.78255   0.62478   0.69216   0.00000  Uiso   1.00
C1175  C     0.80983   0.62464   0.63584   0.00000  Uiso   1.00
H1176  H     0.81442   0.65700   0.61913   0.00000  Uiso   1.00
H1177  H     0.84603   0.61014   0.62778   0.00000  Uiso   1.00
C1178  C     0.78340   0.59924   0.60597   0.00000  Uiso   1.00
H1179  H     0.80355   0.60044   0.56141   0.00000  Uiso   1.00
H1180  H     0.78052   0.56616   0.61951   0.00000  Uiso   1.00
H1181  H     0.74659   0.61218   0.61432   0.00000  Uiso   1.00
O1182  O     0.71528   0.46452   0.91284   0.00000  Uiso   1.00
C1183  C     0.99880   0.46794   0.94422   0.00000  Uiso   1.00
H1184  H     0.99044   0.49720   0.96885   0.00000  Uiso   1.00
H1185  H     0.98702   0.44031   0.97138   0.00000  Uiso   1.00
C1186  C     0.96952   0.46856   0.90671   0.00000  Uiso   1.00
H1187  H     0.97922   0.49638   0.87973   0.00000  Uiso   1.00
H1188  H     0.97655   0.43963   0.88181   0.00000  Uiso   1.00
H1189  H     0.93041   0.46996   0.93123   0.00000  Uiso   1.00
O1190  O     0.75067   0.47689   0.57964   0.00000  Uiso   1.00
C1191  C     0.73797   0.43507   0.59706   0.00000  Uiso   1.00
H1192  H     0.75869   0.42610   0.62359   0.00000  Uiso   1.00
H1193  H     0.74750   0.41158   0.56343   0.00000  Uiso   1.00
C1194  C     0.68408   0.43248   0.63104   0.00000  Uiso   1.00
H1195  H     0.67450   0.45858   0.66054   0.00000  Uiso   1.00
H1196  H     0.99520   0.43578   0.60479   0.00000  Uiso   1.00
C1197  C     0.67151   0.39112   0.66183   0.00000  Uiso   1.00
H1198  H     0.68073   0.36452   0.63277   0.00000  Uiso   1.00
H1199  H     0.96552   0.39025   0.68564   0.00000  Uiso   1.00
H1200  H     0.69154   0.38780   0.69050   0.00000  Uiso   1.00
C1201  C     0.16696   0.91333   0.74890   0.00000  Uiso   1.00
C1202  C     0.14261   0.83638   0.99411   0.00000  Uiso   1.00
C1203  C     0.14972   0.85015   0.94060   0.00000  Uiso   1.00
C1204  C     0.17890   0.84624   0.51615   0.00000  Uiso   1.00
C1205  C     0.21444   0.87682   0.99093   0.00000  Uiso   1.00
C1206  C     0.21626   0.89462   0.94178   0.00000  Uiso   1.00
C1207  C     0.18499   0.88090   0.91635   0.00000  Uiso   1.00
C1208  C     0.18178   0.82582   0.56189   0.00000  Uiso   1.00
C1209  C     0.24436   0.87258   0.56592   0.00000  Uiso   1.00
C1210  C     0.12118   0.83330   0.91237   0.00000  Uiso   1.00
C1211  C     0.19492   0.97840   0.77303   0.00000  Uiso   1.00
C1212  C     0.13958   0.83394   0.85253   0.00000  Uiso   1.00
C1213  C     0.19515   0.68784   0.77325   0.00000  Uiso   1.00
C1214  C     0.16750   0.70931   0.74818   0.00000  Uiso   1.00
C1215  C     0.14076   0.68873   0.72133   0.00000  Uiso   1.00
C1216  C     0.14172   0.97904   0.71922   0.00000  Uiso   1.00
C1217  C     0.16762   0.95751   0.74701   0.00000  Uiso   1.00
C1218  C     0.30320   0.80011   0.77039   0.00000  Uiso   1.00
C1219  C     0.01802   0.79990   0.76967   0.00000  Uiso   1.00
C1220  C     0.02997   0.86666   0.73004   0.00000  Uiso   1.00
C1221  C     0.31547   0.86660   0.72983   0.00000  Uiso   1.00
C1222  C     0.16683   0.75337   0.74967   0.00000  Uiso   1.00
C1223  C     0.19360   0.83387   0.64774   0.00000  Uiso   1.00
C1224  C     0.24748   0.88930   0.51560   0.00000  Uiso   1.00
C1225  C     0.21024   0.84156   0.58959   0.00000  Uiso   1.00
C1226  C     0.07794   0.81210   0.94099   0.00000  Uiso   1.00
C1227  C     0.06754   0.80347   0.99644   0.00000  Uiso   1.00
C1228  C     0.09949   0.81409   0.52323   0.00000  Uiso   1.00
H1229  H     0.26649   0.88534   0.58748   0.00000  Uiso   1.00
H1230  H     0.21583   0.70410   0.79405   0.00000  Uiso   1.00
H1231  H     0.11991   0.70590   0.70136   0.00000  Uiso   1.00
H1232  H     0.28023   0.77348   0.78666   0.00000  Uiso   1.00
H1233  H     0.03141   0.77307   0.78524   0.00000  Uiso   1.00
H1234  H     0.05279   0.89337   0.71413   0.00000  Uiso   1.00
H1235  H     0.30237   0.89318   0.71348   0.00000  Uiso   1.00
H1236  H     0.24268   0.91840   0.92225   0.00000  Uiso   1.00
H1237  H     0.27409   0.91321   0.99725   0.00000  Uiso   1.00
H1238  H     0.16063   0.79856   0.57854   0.00000  Uiso   1.00
H1239  H     0.03458   0.78767   0.51915   0.00000  Uiso   1.00
H1240  H     0.18780   0.89553   0.87808   0.00000  Uiso   1.00
H1241  H     0.21523   0.96168   0.79401   0.00000  Uiso   1.00
N1242  N     0.04760   0.83334   0.75002   0.00000  Uiso   1.00
N1243  N     0.28573   0.83331   0.75001   0.00000  Uiso   1.00
O1244  O     0.12846   0.89442   0.75001   0.00000  Uiso   1.00
O1245  O     0.20490   0.89441   0.75001   0.00000  Uiso   1.00
O1246  O     0.10947   0.83333   0.82681   0.00000  Uiso   1.00
O1247  O     0.18591   0.83332   0.82681   0.00000  Uiso   1.00
O1248  O     0.12843   0.77226   0.75000   0.00000  Uiso   1.00
O1249  O     0.20488   0.77225   0.75000   0.00000  Uiso   1.00
O1250  O     0.14742   0.83335   0.67319   0.00000  Uiso   1.00
O1251  O     0.22387   0.83334   0.67319   0.00000  Uiso   1.00
Zn1252 Zn    0.11562   0.83334   0.75000   0.00000  Uiso   1.00
Zn1253 Zn    0.21771   0.83333   0.75000   0.00000  Uiso   1.00
O1254  O     0.11589   0.95812   0.69216   0.00000  Uiso   1.00
C1255  C     0.14316   0.95797   0.63584   0.00000  Uiso   1.00
H1256  H     0.14775   0.99033   0.61913   0.00000  Uiso   1.00
H1257  H     0.17936   0.94347   0.62778   0.00000  Uiso   1.00
C1258  C     0.11673   0.93257   0.60597   0.00000  Uiso   1.00
H1259  H     0.13689   0.93378   0.56141   0.00000  Uiso   1.00
H1260  H     0.11385   0.89949   0.61951   0.00000  Uiso   1.00
H1261  H     0.07992   0.94551   0.61432   0.00000  Uiso   1.00
O1262  O     0.04862   0.79786   0.91284   0.00000  Uiso   1.00
C1263  C     0.33213   0.80128   0.94422   0.00000  Uiso   1.00
H1264  H     0.32377   0.83053   0.96885   0.00000  Uiso   1.00
H1265  H     0.32036   0.77364   0.97138   0.00000  Uiso   1.00
C1266  C     0.30286   0.80189   0.90671   0.00000  Uiso   1.00
H1267  H     0.31255   0.82972   0.87973   0.00000  Uiso   1.00
H1268  H     0.30988   0.77296   0.88181   0.00000  Uiso   1.00
H1269  H     0.26374   0.80330   0.93123   0.00000  Uiso   1.00
O1270  O     0.08400   0.81022   0.57964   0.00000  Uiso   1.00
C1271  C     0.07130   0.76840   0.59706   0.00000  Uiso   1.00
H1272  H     0.09202   0.75943   0.62359   0.00000  Uiso   1.00
H1273  H     0.08083   0.74491   0.56343   0.00000  Uiso   1.00
C1274  C     0.01741   0.76581   0.63104   0.00000  Uiso   1.00
H1275  H     0.00783   0.79191   0.66054   0.00000  Uiso   1.00
H1276  H     0.32854   0.76911   0.60479   0.00000  Uiso   1.00
C1277  C     0.00484   0.72446   0.66183   0.00000  Uiso   1.00
H1278  H     0.01407   0.69785   0.63277   0.00000  Uiso   1.00
H1279  H     0.29886   0.72358   0.68564   0.00000  Uiso   1.00
H1280  H     0.02488   0.72113   0.69050   0.00000  Uiso   1.00
C1281  C     0.50029   0.91333   0.74890   0.00000  Uiso   1.00
C1282  C     0.47594   0.83638   0.99411   0.00000  Uiso   1.00
C1283  C     0.48305   0.85015   0.94060   0.00000  Uiso   1.00
C1284  C     0.51223   0.84624   0.51615   0.00000  Uiso   1.00
C1285  C     0.54777   0.87682   0.99093   0.00000  Uiso   1.00
C1286  C     0.54959   0.89462   0.94178   0.00000  Uiso   1.00
C1287  C     0.51833   0.88090   0.91635   0.00000  Uiso   1.00
C1288  C     0.51511   0.82582   0.56189   0.00000  Uiso   1.00
C1289  C     0.57770   0.87258   0.56592   0.00000  Uiso   1.00
C1290  C     0.45451   0.83330   0.91237   0.00000  Uiso   1.00
C1291  C     0.52825   0.97840   0.77303   0.00000  Uiso   1.00
C1292  C     0.47291   0.83394   0.85253   0.00000  Uiso   1.00
C1293  C     0.52849   0.68784   0.77325   0.00000  Uiso   1.00
C1294  C     0.50083   0.70931   0.74818   0.00000  Uiso   1.00
C1295  C     0.47409   0.68873   0.72133   0.00000  Uiso   1.00
C1296  C     0.47505   0.97904   0.71922   0.00000  Uiso   1.00
C1297  C     0.50095   0.95751   0.74701   0.00000  Uiso   1.00
C1298  C     0.63654   0.80011   0.77039   0.00000  Uiso   1.00
C1299  C     0.35136   0.79990   0.76967   0.00000  Uiso   1.00
C1300  C     0.36331   0.86666   0.73004   0.00000  Uiso   1.00
C1301  C     0.64880   0.86660   0.72983   0.00000  Uiso   1.00
C1302  C     0.50016   0.75337   0.74967   0.00000  Uiso   1.00
C1303  C     0.52693   0.83387   0.64774   0.00000  Uiso   1.00
C1304  C     0.58081   0.88930   0.51560   0.00000  Uiso   1.00
C1305  C     0.54358   0.84156   0.58959   0.00000  Uiso   1.00
C1306  C     0.41127   0.81210   0.94099   0.00000  Uiso   1.00
C1307  C     0.40087   0.80347   0.99644   0.00000  Uiso   1.00
C1308  C     0.43282   0.81409   0.52323   0.00000  Uiso   1.00
H1309  H     0.59983   0.88534   0.58748   0.00000  Uiso   1.00
H1310  H     0.54916   0.70410   0.79405   0.00000  Uiso   1.00
H1311  H     0.45324   0.70590   0.70136   0.00000  Uiso   1.00
H1312  H     0.61356   0.77348   0.78666   0.00000  Uiso   1.00
H1313  H     0.36474   0.77307   0.78524   0.00000  Uiso   1.00
H1314  H     0.38612   0.89337   0.71413   0.00000  Uiso   1.00
H1315  H     0.63570   0.89318   0.71348   0.00000  Uiso   1.00
H1316  H     0.57601   0.91840   0.92225   0.00000  Uiso   1.00
H1317  H     0.60743   0.91321   0.99725   0.00000  Uiso   1.00
H1318  H     0.49397   0.79856   0.57854   0.00000  Uiso   1.00
H1319  H     0.36792   0.78767   0.51915   0.00000  Uiso   1.00
H1320  H     0.52114   0.89553   0.87808   0.00000  Uiso   1.00
H1321  H     0.54856   0.96168   0.79401   0.00000  Uiso   1.00
N1322  N     0.38093   0.83334   0.75002   0.00000  Uiso   1.00
N1323  N     0.61906   0.83331   0.75001   0.00000  Uiso   1.00
O1324  O     0.46179   0.89442   0.75001   0.00000  Uiso   1.00
O1325  O     0.53823   0.89441   0.75001   0.00000  Uiso   1.00
O1326  O     0.44280   0.83333   0.82681   0.00000  Uiso   1.00
O1327  O     0.51924   0.83332   0.82681   0.00000  Uiso   1.00
O1328  O     0.46177   0.77226   0.75000   0.00000  Uiso   1.00
O1329  O     0.53821   0.77225   0.75000   0.00000  Uiso   1.00
O1330  O     0.48076   0.83335   0.67319   0.00000  Uiso   1.00
O1331  O     0.55720   0.83334   0.67319   0.00000  Uiso   1.00
Zn1332 Zn    0.44896   0.83334   0.75000   0.00000  Uiso   1.00
Zn1333 Zn    0.55104   0.83333   0.75000   0.00000  Uiso   1.00
O1334  O     0.44922   0.95812   0.69216   0.00000  Uiso   1.00
C1335  C     0.47649   0.95797   0.63584   0.00000  Uiso   1.00
H1336  H     0.48109   0.99033   0.61913   0.00000  Uiso   1.00
H1337  H     0.51269   0.94347   0.62778   0.00000  Uiso   1.00
C1338  C     0.45007   0.93257   0.60597   0.00000  Uiso   1.00
H1339  H     0.47022   0.93378   0.56141   0.00000  Uiso   1.00
H1340  H     0.44718   0.89949   0.61951   0.00000  Uiso   1.00
H1341  H     0.41325   0.94551   0.61432   0.00000  Uiso   1.00
O1342  O     0.38195   0.79786   0.91284   0.00000  Uiso   1.00
C1343  C     0.66547   0.80128   0.94422   0.00000  Uiso   1.00
H1344  H     0.65710   0.83053   0.96885   0.00000  Uiso   1.00
H1345  H     0.65369   0.77364   0.97138   0.00000  Uiso   1.00
C1346  C     0.63619   0.80189   0.90671   0.00000  Uiso   1.00
H1347  H     0.64588   0.82972   0.87973   0.00000  Uiso   1.00
H1348  H     0.64321   0.77296   0.88181   0.00000  Uiso   1.00
H1349  H     0.59708   0.80330   0.93123   0.00000  Uiso   1.00
O1350  O     0.41734   0.81022   0.57964   0.00000  Uiso   1.00
C1351  C     0.40464   0.76840   0.59706   0.00000  Uiso   1.00
H1352  H     0.42536   0.75943   0.62359   0.00000  Uiso   1.00
H1353  H     0.41416   0.74491   0.56343   0.00000  Uiso   1.00
C1354  C     0.35074   0.76581   0.63104   0.00000  Uiso   1.00
H1355  H     0.34117   0.79191   0.66054   0.00000  Uiso   1.00
H1356  H     0.66187   0.76911   0.60479   0.00000  Uiso   1.00
C1357  C     0.33818   0.72446   0.66183   0.00000  Uiso   1.00
H1358  H     0.34740   0.69785   0.63277   0.00000  Uiso   1.00
H1359  H     0.63219   0.72358   0.68564   0.00000  Uiso   1.00
H1360  H     0.35821   0.72113   0.69050   0.00000  Uiso   1.00
C1361  C     0.83362   0.91333   0.74890   0.00000  Uiso   1.00
C1362  C     0.80928   0.83638   0.99411   0.00000  Uiso   1.00
C1363  C     0.81638   0.85015   0.94060   0.00000  Uiso   1.00
C1364  C     0.84557   0.84624   0.51615   0.00000  Uiso   1.00
C1365  C     0.88111   0.87682   0.99093   0.00000  Uiso   1.00
C1366  C     0.88292   0.89462   0.94178   0.00000  Uiso   1.00
C1367  C     0.85166   0.88090   0.91635   0.00000  Uiso   1.00
C1368  C     0.84844   0.82582   0.56189   0.00000  Uiso   1.00
C1369  C     0.91103   0.87258   0.56592   0.00000  Uiso   1.00
C1370  C     0.78784   0.83330   0.91237   0.00000  Uiso   1.00
C1371  C     0.86158   0.97840   0.77303   0.00000  Uiso   1.00
C1372  C     0.80625   0.83394   0.85253   0.00000  Uiso   1.00
C1373  C     0.86182   0.68784   0.77325   0.00000  Uiso   1.00
C1374  C     0.83416   0.70931   0.74818   0.00000  Uiso   1.00
C1375  C     0.80742   0.68873   0.72133   0.00000  Uiso   1.00
C1376  C     0.80839   0.97904   0.71922   0.00000  Uiso   1.00
C1377  C     0.83429   0.95751   0.74701   0.00000  Uiso   1.00
C1378  C     0.96987   0.80011   0.77039   0.00000  Uiso   1.00
C1379  C     0.68469   0.79990   0.76967   0.00000  Uiso   1.00
C1380  C     0.69664   0.86666   0.73004   0.00000  Uiso   1.00
C1381  C     0.98213   0.86660   0.72983   0.00000  Uiso   1.00
C1382  C     0.83349   0.75337   0.74967   0.00000  Uiso   1.00
C1383  C     0.86026   0.83387   0.64774   0.00000  Uiso   1.00
C1384  C     0.91415   0.88930   0.51560   0.00000  Uiso   1.00
C1385  C     0.87691   0.84156   0.58959   0.00000  Uiso   1.00
C1386  C     0.74460   0.81210   0.94099   0.00000  Uiso   1.00
C1387  C     0.73420   0.80347   0.99644   0.00000  Uiso   1.00
C1388  C     0.76615   0.81409   0.52323   0.00000  Uiso   1.00
H1389  H     0.93316   0.88534   0.58748   0.00000  Uiso   1.00
H1390  H     0.88249   0.70410   0.79405   0.00000  Uiso   1.00
H1391  H     0.78658   0.70590   0.70136   0.00000  Uiso   1.00
H1392  H     0.94690   0.77348   0.78666   0.00000  Uiso   1.00
H1393  H     0.69808   0.77307   0.78524   0.00000  Uiso   1.00
H1394  H     0.71946   0.89337   0.71413   0.00000  Uiso   1.00
H1395  H     0.96903   0.89318   0.71348   0.00000  Uiso   1.00
H1396  H     0.90935   0.91840   0.92225   0.00000  Uiso   1.00
H1397  H     0.94076   0.91321   0.99725   0.00000  Uiso   1.00
H1398  H     0.82730   0.79856   0.57854   0.00000  Uiso   1.00
H1399  H     0.70125   0.78767   0.51915   0.00000  Uiso   1.00
H1400  H     0.85447   0.89553   0.87808   0.00000  Uiso   1.00
H1401  H     0.88189   0.96168   0.79401   0.00000  Uiso   1.00
N1402  N     0.71426   0.83334   0.75002   0.00000  Uiso   1.00
N1403  N     0.95239   0.83331   0.75001   0.00000  Uiso   1.00
O1404  O     0.79512   0.89442   0.75001   0.00000  Uiso   1.00
O1405  O     0.87157   0.89441   0.75001   0.00000  Uiso   1.00
O1406  O     0.77613   0.83333   0.82681   0.00000  Uiso   1.00
O1407  O     0.85258   0.83332   0.82681   0.00000  Uiso   1.00
O1408  O     0.79510   0.77226   0.75000   0.00000  Uiso   1.00
O1409  O     0.87154   0.77225   0.75000   0.00000  Uiso   1.00
O1410  O     0.81409   0.83335   0.67319   0.00000  Uiso   1.00
O1411  O     0.89053   0.83334   0.67319   0.00000  Uiso   1.00
Zn1412 Zn    0.78229   0.83334   0.75000   0.00000  Uiso   1.00
Zn1413 Zn    0.88438   0.83333   0.75000   0.00000  Uiso   1.00
O1414  O     0.78255   0.95812   0.69216   0.00000  Uiso   1.00
C1415  C     0.80983   0.95797   0.63584   0.00000  Uiso   1.00
H1416  H     0.81442   0.99033   0.61913   0.00000  Uiso   1.00
H1417  H     0.84603   0.94347   0.62778   0.00000  Uiso   1.00
C1418  C     0.78340   0.93257   0.60597   0.00000  Uiso   1.00
H1419  H     0.80355   0.93378   0.56141   0.00000  Uiso   1.00
H1420  H     0.78052   0.89949   0.61951   0.00000  Uiso   1.00
H1421  H     0.74659   0.94551   0.61432   0.00000  Uiso   1.00
O1422  O     0.71528   0.79786   0.91284   0.00000  Uiso   1.00
C1423  C     0.99880   0.80128   0.94422   0.00000  Uiso   1.00
H1424  H     0.99044   0.83053   0.96885   0.00000  Uiso   1.00
H1425  H     0.98702   0.77364   0.97138   0.00000  Uiso   1.00
C1426  C     0.96952   0.80189   0.90671   0.00000  Uiso   1.00
H1427  H     0.97922   0.82972   0.87973   0.00000  Uiso   1.00
H1428  H     0.97655   0.77296   0.88181   0.00000  Uiso   1.00
H1429  H     0.93041   0.80330   0.93123   0.00000  Uiso   1.00
O1430  O     0.75067   0.81022   0.57964   0.00000  Uiso   1.00
C1431  C     0.73797   0.76840   0.59706   0.00000  Uiso   1.00
H1432  H     0.75869   0.75943   0.62359   0.00000  Uiso   1.00
H1433  H     0.74750   0.74491   0.56343   0.00000  Uiso   1.00
C1434  C     0.68408   0.76581   0.63104   0.00000  Uiso   1.00
H1435  H     0.67450   0.79191   0.66054   0.00000  Uiso   1.00
H1436  H     0.99520   0.76911   0.60479   0.00000  Uiso   1.00
C1437  C     0.67151   0.72446   0.66183   0.00000  Uiso   1.00
H1438  H     0.68073   0.69785   0.63277   0.00000  Uiso   1.00
H1439  H     0.96552   0.72358   0.68564   0.00000  Uiso   1.00
H1440  H     0.69154   0.72113   0.69050   0.00000  Uiso   1.00
loop_
_geom_bond_atom_site_label_1
_geom_bond_atom_site_label_2
_geom_bond_distance
_geom_bond_site_symmetry_2
_ccdc_geom_bond_type
C1     O44     1.282   .     A
C1     C17     1.415   .     S
C1     O45     1.282   .     A
C2     C3      1.412   .     A
C2     C724    1.420   .     S
C2     C748    1.428   .     S
C3     C7      1.415   .     A
C3     C10     1.410   .     A
C4     C8      1.392   .     A
C4     C722    1.420   1_554 S
C4     C725    1.420   1_554 S
C5     C6      1.390   .     A
C5     C724    1.420   .     S
C5     C744    1.405   .     S
C6     C7      1.386   .     A
C6     H36     1.084   .     S
C7     H40     1.082   .     S
C8     C25     1.384   .     A
C8     H38     1.074   .     S
C9     C25     1.398   .     A
C9     H29     1.083   .     S
C9     C24     1.394   .     A
C10    C26     1.411   .     A
C10    C12     1.468   .     S
C11    C17     1.397   .     A
C11    H41     1.084   .     S
C11    C253    1.369   .     S
C12    O47     1.298   .     A
C12    O46     1.290   .     A
C13    C14     1.393   .     A
C13    H30     1.084   .     S
C13    C491    1.369   1_545 S
C14    C22     1.410   .     S
C14    C15     1.395   .     A
C15    H31     1.085   .     S
C15    C496    1.378   1_545 S
C16    C17     1.405   .     A
C16    O54     1.384   .     S
C16    C255    1.378   .     S
C18    H32     1.081   .     S
C18    N43     1.367   .     A
C18    C99     1.416   .     S
C19    N42     1.366   .     A
C19    H33     1.081   .     S
C19    C178    1.416   1_455 S
C20    H34     1.079   .     S
C20    N42     1.366   .     A
C20    C181    1.415   1_455 S
C21    N43     1.366   .     A
C21    H35     1.081   .     S
C21    C100    1.415   .     S
C22    O48     1.281   .     A
C22    O49     1.281   .     A
C23    O50     1.293   .     A
C23    O51     1.289   .     A
C23    C25     1.448   .     S
C24    C725    1.405   1_554 S
C24    H757    1.084   1_554 S
C26    C27     1.402   .     A
C26    O62     1.397   .     S
C27    C748    1.401   .     S
C27    H759    1.075   .     S
C28    O70     1.391   .     S
C28    C747    1.401   1_554 S
C28    C722    1.428   1_554 S
H37    C744    1.084   .     S
H39    C747    1.075   1_554 S
N42    Zn52    2.010   .     S
N43    Zn53    2.010   .     S
O44    Zn52    1.992   .     S
O45    Zn53    1.990   .     S
O46    Zn52    1.955   .     S
O47    Zn53    1.900   .     S
O48    Zn52    1.990   .     S
O49    Zn53    1.992   .     S
O50    Zn52    1.900   .     S
O51    Zn53    1.955   .     S
O54    C55     1.412   .     S
C55    H56     1.114   .     S
C55    H57     1.115   .     S
C55    C58     1.521   .     S
C58    H60     1.110   .     S
C58    H61     1.111   .     S
C58    H59     1.110   .     S
O62    C223    1.417   1_455 S
C63    H65     1.112   .     S
C63    C66     1.519   .     S
C63    H64     1.115   .     S
C63    O142    1.417   .     S
C66    H68     1.110   .     S
C66    H69     1.110   .     S
C66    H67     1.110   .     S
O70    C71     1.422   .     S
C71    H73     1.117   .     S
C71    C74     1.532   .     S
C71    H72     1.111   .     S
C74    C77     1.527   .     S
C74    H75     1.105   .     S
C74    H236    1.108   1_455 S
H76    C154    1.108   .     S
C77    H78     1.111   .     S
C77    H80     1.111   .     S
C77    H239    1.111   1_455 S
H79    C157    1.111   .     S
C81    O124    1.282   .     A
C81    C97     1.415   .     S
C81    O125    1.282   .     A
C82    C83     1.412   .     A
C82    C804    1.420   .     S
C82    C828    1.428   .     S
C83    C87     1.415   .     A
C83    C90     1.410   .     A
C84    C88     1.392   .     A
C84    C802    1.420   1_554 S
C84    C805    1.420   1_554 S
C85    C86     1.390   .     A
C85    C804    1.420   .     S
C85    C824    1.405   .     S
C86    C87     1.386   .     A
C86    H116    1.084   .     S
C87    H120    1.082   .     S
C88    C105    1.384   .     A
C88    H118    1.074   .     S
C89    C105    1.398   .     A
C89    H109    1.083   .     S
C89    C104    1.394   .     A
C90    C106    1.411   .     A
C90    C92     1.468   .     S
C91    C97     1.397   .     A
C91    H121    1.084   .     S
C91    C333    1.369   .     S
C92    O127    1.298   .     A
C92    O126    1.290   .     A
C93    C94     1.393   .     A
C93    H110    1.084   .     S
C93    C571    1.369   1_545 S
C94    C102    1.410   .     S
C94    C95     1.395   .     A
C95    H111    1.085   .     S
C95    C576    1.378   1_545 S
C96    C97     1.405   .     A
C96    O134    1.384   .     S
C96    C335    1.378   .     S
C98    H112    1.081   .     S
C98    N123    1.367   .     A
C98    C179    1.416   .     S
C99    N122    1.366   .     A
C99    H113    1.081   .     S
C100   H114    1.079   .     S
C100   N122    1.366   .     A
C101   N123    1.366   .     A
C101   H115    1.081   .     S
C101   C180    1.415   .     S
C102   O128    1.281   .     A
C102   O129    1.281   .     A
C103   O130    1.293   .     A
C103   O131    1.289   .     A
C103   C105    1.448   .     S
C104   C805    1.405   1_554 S
C104   H837    1.084   1_554 S
C106   C107    1.402   .     A
C106   O142    1.397   .     S
C107   C828    1.401   .     S
C107   H839    1.075   .     S
C108   O150    1.391   .     S
C108   C827    1.401   1_554 S
C108   C802    1.428   1_554 S
H117   C824    1.084   .     S
H119   C827    1.075   1_554 S
N122   Zn132   2.010   .     S
N123   Zn133   2.010   .     S
O124   Zn132   1.992   .     S
O125   Zn133   1.990   .     S
O126   Zn132   1.955   .     S
O127   Zn133   1.900   .     S
O128   Zn132   1.990   .     S
O129   Zn133   1.992   .     S
O130   Zn132   1.900   .     S
O131   Zn133   1.955   .     S
O134   C135    1.412   .     S
C135   H136    1.114   .     S
C135   H137    1.115   .     S
C135   C138    1.521   .     S
C138   H140    1.110   .     S
C138   H141    1.111   .     S
C138   H139    1.110   .     S
C143   H145    1.112   .     S
C143   C146    1.519   .     S
C143   H144    1.115   .     S
C143   O222    1.417   .     S
C146   H148    1.110   .     S
C146   H149    1.110   .     S
C146   H147    1.110   .     S
O150   C151    1.422   .     S
C151   H153    1.117   .     S
C151   C154    1.532   .     S
C151   H152    1.111   .     S
C154   C157    1.527   .     S
C154   H155    1.105   .     S
H156   C234    1.108   .     S
C157   H158    1.111   .     S
C157   H160    1.111   .     S
H159   C237    1.111   .     S
C161   O204    1.282   .     A
C161   C177    1.415   .     S
C161   O205    1.282   .     A
C162   C163    1.412   .     A
C162   C884    1.420   .     S
C162   C908    1.428   .     S
C163   C167    1.415   .     A
C163   C170    1.410   .     A
C164   C168    1.392   .     A
C164   C882    1.420   1_554 S
C164   C885    1.420   1_554 S
C165   C166    1.390   .     A
C165   C884    1.420   .     S
C165   C904    1.405   .     S
C166   C167    1.386   .     A
C166   H196    1.084   .     S
C167   H200    1.082   .     S
C168   C185    1.384   .     A
C168   H198    1.074   .     S
C169   C185    1.398   .     A
C169   H189    1.083   .     S
C169   C184    1.394   .     A
C170   C186    1.411   .     A
C170   C172    1.468   .     S
C171   C177    1.397   .     A
C171   H201    1.084   .     S
C171   C413    1.369   .     S
C172   O207    1.298   .     A
C172   O206    1.290   .     A
C173   C174    1.393   .     A
C173   H190    1.084   .     S
C173   C651    1.369   1_545 S
C174   C182    1.410   .     S
C174   C175    1.395   .     A
C175   H191    1.085   .     S
C175   C656    1.378   1_545 S
C176   C177    1.405   .     A
C176   O214    1.384   .     S
C176   C415    1.378   .     S
C178   H192    1.081   .     S
C178   N203    1.367   .     A
C178   C19     1.416   1_655 S
C179   N202    1.366   .     A
C179   H193    1.081   .     S
C180   H194    1.079   .     S
C180   N202    1.366   .     A
C181   N203    1.366   .     A
C181   H195    1.081   .     S
C181   C20     1.415   1_655 S
C182   O208    1.281   .     A
C182   O209    1.281   .     A
C183   O210    1.293   .     A
C183   O211    1.289   .     A
C183   C185    1.448   .     S
C184   C885    1.405   1_554 S
C184   H917    1.084   1_554 S
C186   C187    1.402   .     A
C186   O222    1.397   .     S
C187   C908    1.401   .     S
C187   H919    1.075   .     S
C188   O230    1.391   .     S
C188   C907    1.401   1_554 S
C188   C882    1.428   1_554 S
H197   C904    1.084   .     S
H199   C907    1.075   1_554 S
N202   Zn212   2.010   .     S
N203   Zn213   2.010   .     S
O204   Zn212   1.992   .     S
O205   Zn213   1.990   .     S
O206   Zn212   1.955   .     S
O207   Zn213   1.900   .     S
O208   Zn212   1.990   .     S
O209   Zn213   1.992   .     S
O210   Zn212   1.900   .     S
O211   Zn213   1.955   .     S
O214   C215    1.412   .     S
C215   H216    1.114   .     S
C215   H217    1.115   .     S
C215   C218    1.521   .     S
C218   H220    1.110   .     S
C218   H221    1.111   .     S
C218   H219    1.110   .     S
C223   H225    1.112   .     S
C223   C226    1.519   .     S
C223   H224    1.115   .     S
C223   O62     1.417   1_655 S
C226   H228    1.110   .     S
C226   H229    1.110   .     S
C226   H227    1.110   .     S
O230   C231    1.422   .     S
C231   H233    1.117   .     S
C231   C234    1.532   .     S
C231   H232    1.111   .     S
C234   C237    1.527   .     S
C234   H235    1.105   .     S
H236   C74     1.108   1_655 S
C237   H238    1.111   .     S
C237   H240    1.111   .     S
H239   C77     1.111   1_655 S
C241   O284    1.282   .     A
C241   C257    1.415   .     S
C241   O285    1.282   .     A
C242   C243    1.412   .     A
C242   C964    1.420   .     S
C242   C988    1.428   .     S
C243   C247    1.415   .     A
C243   C250    1.410   .     A
C244   C248    1.392   .     A
C244   C962    1.420   1_554 S
C244   C965    1.420   1_554 S
C245   C246    1.390   .     A
C245   C964    1.420   .     S
C245   C984    1.405   .     S
C246   C247    1.386   .     A
C246   H276    1.084   .     S
C247   H280    1.082   .     S
C248   C265    1.384   .     A
C248   H278    1.074   .     S
C249   C265    1.398   .     A
C249   H269    1.083   .     S
C249   C264    1.394   .     A
C250   C266    1.411   .     A
C250   C252    1.468   .     S
C251   C257    1.397   .     A
C251   H281    1.084   .     S
C251   C493    1.369   .     S
C252   O287    1.298   .     A
C252   O286    1.290   .     A
C253   C254    1.393   .     A
C253   H270    1.084   .     S
C254   C262    1.410   .     S
C254   C255    1.395   .     A
C255   H271    1.085   .     S
C256   C257    1.405   .     A
C256   O294    1.384   .     S
C256   C495    1.378   .     S
C258   H272    1.081   .     S
C258   N283    1.367   .     A
C258   C339    1.416   .     S
C259   N282    1.366   .     A
C259   H273    1.081   .     S
C259   C418    1.416   1_455 S
C260   H274    1.079   .     S
C260   N282    1.366   .     A
C260   C421    1.415   1_455 S
C261   N283    1.366   .     A
C261   H275    1.081   .     S
C261   C340    1.415   .     S
C262   O288    1.281   .     A
C262   O289    1.281   .     A
C263   O290    1.293   .     A
C263   O291    1.289   .     A
C263   C265    1.448   .     S
C264   C965    1.405   1_554 S
C264   H997    1.084   1_554 S
C266   C267    1.402   .     A
C266   O302    1.397   .     S
C267   C988    1.401   .     S
C267   H999    1.075   .     S
C268   O310    1.391   .     S
C268   C987    1.401   1_554 S
C268   C962    1.428   1_554 S
H277   C984    1.084   .     S
H279   C987    1.075   1_554 S
N282   Zn292   2.010   .     S
N283   Zn293   2.010   .     S
O284   Zn292   1.992   .     S
O285   Zn293   1.990   .     S
O286   Zn292   1.955   .     S
O287   Zn293   1.900   .     S
O288   Zn292   1.990   .     S
O289   Zn293   1.992   .     S
O290   Zn292   1.900   .     S
O291   Zn293   1.955   .     S
O294   C295    1.412   .     S
C295   H296    1.114   .     S
C295   H297    1.115   .     S
C295   C298    1.521   .     S
C298   H300    1.110   .     S
C298   H301    1.111   .     S
C298   H299    1.110   .     S
O302   C463    1.417   1_455 S
C303   H305    1.112   .     S
C303   C306    1.519   .     S
C303   H304    1.115   .     S
C303   O382    1.417   .     S
C306   H308    1.110   .     S
C306   H309    1.110   .     S
C306   H307    1.110   .     S
O310   C311    1.422   .     S
C311   H313    1.117   .     S
C311   C314    1.532   .     S
C311   H312    1.111   .     S
C314   C317    1.527   .     S
C314   H315    1.105   .     S
C314   H476    1.108   1_455 S
H316   C394    1.108   .     S
C317   H318    1.111   .     S
C317   H320    1.111   .     S
C317   H479    1.111   1_455 S
H319   C397    1.111   .     S
C321   O364    1.282   .     A
C321   C337    1.415   .     S
C321   O365    1.282   .     A
C322   C323    1.412   .     A
C322   C1044   1.420   .     S
C322   C1068   1.428   .     S
C323   C327    1.415   .     A
C323   C330    1.410   .     A
C324   C328    1.392   .     A
C324   C1042   1.420   1_554 S
C324   C1045   1.420   1_554 S
C325   C326    1.390   .     A
C325   C1044   1.420   .     S
C325   C1064   1.405   .     S
C326   C327    1.386   .     A
C326   H356    1.084   .     S
C327   H360    1.082   .     S
C328   C345    1.384   .     A
C328   H358    1.074   .     S
C329   C345    1.398   .     A
C329   H349    1.083   .     S
C329   C344    1.394   .     A
C330   C346    1.411   .     A
C330   C332    1.468   .     S
C331   C337    1.397   .     A
C331   H361    1.084   .     S
C331   C573    1.369   .     S
C332   O367    1.298   .     A
C332   O366    1.290   .     A
C333   C334    1.393   .     A
C333   H350    1.084   .     S
C334   C342    1.410   .     S
C334   C335    1.395   .     A
C335   H351    1.085   .     S
C336   C337    1.405   .     A
C336   O374    1.384   .     S
C336   C575    1.378   .     S
C338   H352    1.081   .     S
C338   N363    1.367   .     A
C338   C419    1.416   .     S
C339   N362    1.366   .     A
C339   H353    1.081   .     S
C340   H354    1.079   .     S
C340   N362    1.366   .     A
C341   N363    1.366   .     A
C341   H355    1.081   .     S
C341   C420    1.415   .     S
C342   O368    1.281   .     A
C342   O369    1.281   .     A
C343   O370    1.293   .     A
C343   O371    1.289   .     A
C343   C345    1.448   .     S
C344   C1045   1.405   1_554 S
C344   H1077   1.084   1_554 S
C346   C347    1.402   .     A
C346   O382    1.397   .     S
C347   C1068   1.401   .     S
C347   H1079   1.075   .     S
C348   O390    1.391   .     S
C348   C1067   1.401   1_554 S
C348   C1042   1.428   1_554 S
H357   C1064   1.084   .     S
H359   C1067   1.075   1_554 S
N362   Zn372   2.010   .     S
N363   Zn373   2.010   .     S
O364   Zn372   1.992   .     S
O365   Zn373   1.990   .     S
O366   Zn372   1.955   .     S
O367   Zn373   1.900   .     S
O368   Zn372   1.990   .     S
O369   Zn373   1.992   .     S
O370   Zn372   1.900   .     S
O371   Zn373   1.955   .     S
O374   C375    1.412   .     S
C375   H376    1.114   .     S
C375   H377    1.115   .     S
C375   C378    1.521   .     S
C378   H380    1.110   .     S
C378   H381    1.111   .     S
C378   H379    1.110   .     S
C383   H385    1.112   .     S
C383   C386    1.519   .     S
C383   H384    1.115   .     S
C383   O462    1.417   .     S
C386   H388    1.110   .     S
C386   H389    1.110   .     S
C386   H387    1.110   .     S
O390   C391    1.422   .     S
C391   H393    1.117   .     S
C391   C394    1.532   .     S
C391   H392    1.111   .     S
C394   C397    1.527   .     S
C394   H395    1.105   .     S
H396   C474    1.108   .     S
C397   H398    1.111   .     S
C397   H400    1.111   .     S
H399   C477    1.111   .     S
C401   O444    1.282   .     A
C401   C417    1.415   .     S
C401   O445    1.282   .     A
C402   C403    1.412   .     A
C402   C1124   1.420   .     S
C402   C1148   1.428   .     S
C403   C407    1.415   .     A
C403   C410    1.410   .     A
C404   C408    1.392   .     A
C404   C1122   1.420   1_554 S
C404   C1125   1.420   1_554 S
C405   C406    1.390   .     A
C405   C1124   1.420   .     S
C405   C1144   1.405   .     S
C406   C407    1.386   .     A
C406   H436    1.084   .     S
C407   H440    1.082   .     S
C408   C425    1.384   .     A
C408   H438    1.074   .     S
C409   C425    1.398   .     A
C409   H429    1.083   .     S
C409   C424    1.394   .     A
C410   C426    1.411   .     A
C410   C412    1.468   .     S
C411   C417    1.397   .     A
C411   H441    1.084   .     S
C411   C653    1.369   .     S
C412   O447    1.298   .     A
C412   O446    1.290   .     A
C413   C414    1.393   .     A
C413   H430    1.084   .     S
C414   C422    1.410   .     S
C414   C415    1.395   .     A
C415   H431    1.085   .     S
C416   C417    1.405   .     A
C416   O454    1.384   .     S
C416   C655    1.378   .     S
C418   H432    1.081   .     S
C418   N443    1.367   .     A
C418   C259    1.416   1_655 S
C419   N442    1.366   .     A
C419   H433    1.081   .     S
C420   H434    1.079   .     S
C420   N442    1.366   .     A
C421   N443    1.366   .     A
C421   H435    1.081   .     S
C421   C260    1.415   1_655 S
C422   O448    1.281   .     A
C422   O449    1.281   .     A
C423   O450    1.293   .     A
C423   O451    1.289   .     A
C423   C425    1.448   .     S
C424   C1125   1.405   1_554 S
C424   H1157   1.084   1_554 S
C426   C427    1.402   .     A
C426   O462    1.397   .     S
C427   C1148   1.401   .     S
C427   H1159   1.075   .     S
C428   O470    1.391   .     S
C428   C1147   1.401   1_554 S
C428   C1122   1.428   1_554 S
H437   C1144   1.084   .     S
H439   C1147   1.075   1_554 S
N442   Zn452   2.010   .     S
N443   Zn453   2.010   .     S
O444   Zn452   1.992   .     S
O445   Zn453   1.990   .     S
O446   Zn452   1.955   .     S
O447   Zn453   1.900   .     S
O448   Zn452   1.990   .     S
O449   Zn453   1.992   .     S
O450   Zn452   1.900   .     S
O451   Zn453   1.955   .     S
O454   C455    1.412   .     S
C455   H456    1.114   .     S
C455   H457    1.115   .     S
C455   C458    1.521   .     S
C458   H460    1.110   .     S
C458   H461    1.111   .     S
C458   H459    1.110   .     S
C463   H465    1.112   .     S
C463   C466    1.519   .     S
C463   H464    1.115   .     S
C463   O302    1.417   1_655 S
C466   H468    1.110   .     S
C466   H469    1.110   .     S
C466   H467    1.110   .     S
O470   C471    1.422   .     S
C471   H473    1.117   .     S
C471   C474    1.532   .     S
C471   H472    1.111   .     S
C474   C477    1.527   .     S
C474   H475    1.105   .     S
H476   C314    1.108   1_655 S
C477   H478    1.111   .     S
C477   H480    1.111   .     S
H479   C317    1.111   1_655 S
C481   O524    1.282   .     A
C481   C497    1.415   .     S
C481   O525    1.282   .     A
C482   C483    1.412   .     A
C482   C1204   1.420   .     S
C482   C1228   1.428   .     S
C483   C487    1.415   .     A
C483   C490    1.410   .     A
C484   C488    1.392   .     A
C484   C1202   1.420   1_554 S
C484   C1205   1.420   1_554 S
C485   C486    1.390   .     A
C485   C1204   1.420   .     S
C485   C1224   1.405   .     S
C486   C487    1.386   .     A
C486   H516    1.084   .     S
C487   H520    1.082   .     S
C488   C505    1.384   .     A
C488   H518    1.074   .     S
C489   C505    1.398   .     A
C489   H509    1.083   .     S
C489   C504    1.394   .     A
C490   C506    1.411   .     A
C490   C492    1.468   .     S
C491   C497    1.397   .     A
C491   H521    1.084   .     S
C491   C13     1.369   1_565 S
C492   O527    1.298   .     A
C492   O526    1.290   .     A
C493   C494    1.393   .     A
C493   H510    1.084   .     S
C494   C502    1.410   .     S
C494   C495    1.395   .     A
C495   H511    1.085   .     S
C496   C497    1.405   .     A
C496   O534    1.384   .     S
C496   C15     1.378   1_565 S
C498   H512    1.081   .     S
C498   N523    1.367   .     A
C498   C579    1.416   .     S
C499   N522    1.366   .     A
C499   H513    1.081   .     S
C499   C658    1.416   1_455 S
C500   H514    1.079   .     S
C500   N522    1.366   .     A
C500   C661    1.415   1_455 S
C501   N523    1.366   .     A
C501   H515    1.081   .     S
C501   C580    1.415   .     S
C502   O528    1.281   .     A
C502   O529    1.281   .     A
C503   O530    1.293   .     A
C503   O531    1.289   .     A
C503   C505    1.448   .     S
C504   C1205   1.405   1_554 S
C504   H1237   1.084   1_554 S
C506   C507    1.402   .     A
C506   O542    1.397   .     S
C507   C1228   1.401   .     S
C507   H1239   1.075   .     S
C508   O550    1.391   .     S
C508   C1227   1.401   1_554 S
C508   C1202   1.428   1_554 S
H517   C1224   1.084   .     S
H519   C1227   1.075   1_554 S
N522   Zn532   2.010   .     S
N523   Zn533   2.010   .     S
O524   Zn532   1.992   .     S
O525   Zn533   1.990   .     S
O526   Zn532   1.955   .     S
O527   Zn533   1.900   .     S
O528   Zn532   1.990   .     S
O529   Zn533   1.992   .     S
O530   Zn532   1.900   .     S
O531   Zn533   1.955   .     S
O534   C535    1.412   .     S
C535   H536    1.114   .     S
C535   H537    1.115   .     S
C535   C538    1.521   .     S
C538   H540    1.110   .     S
C538   H541    1.111   .     S
C538   H539    1.110   .     S
O542   C703    1.417   1_455 S
C543   H545    1.112   .     S
C543   C546    1.519   .     S
C543   H544    1.115   .     S
C543   O622    1.417   .     S
C546   H548    1.110   .     S
C546   H549    1.110   .     S
C546   H547    1.110   .     S
O550   C551    1.422   .     S
C551   H553    1.117   .     S
C551   C554    1.532   .     S
C551   H552    1.111   .     S
C554   C557    1.527   .     S
C554   H555    1.105   .     S
C554   H716    1.108   1_455 S
H556   C634    1.108   .     S
C557   H558    1.111   .     S
C557   H560    1.111   .     S
C557   H719    1.111   1_455 S
H559   C637    1.111   .     S
C561   O604    1.282   .     A
C561   C577    1.415   .     S
C561   O605    1.282   .     A
C562   C563    1.412   .     A
C562   C1284   1.420   .     S
C562   C1308   1.428   .     S
C563   C567    1.415   .     A
C563   C570    1.410   .     A
C564   C568    1.392   .     A
C564   C1282   1.420   1_554 S
C564   C1285   1.420   1_554 S
C565   C566    1.390   .     A
C565   C1284   1.420   .     S
C565   C1304   1.405   .     S
C566   C567    1.386   .     A
C566   H596    1.084   .     S
C567   H600    1.082   .     S
C568   C585    1.384   .     A
C568   H598    1.074   .     S
C569   C585    1.398   .     A
C569   H589    1.083   .     S
C569   C584    1.394   .     A
C570   C586    1.411   .     A
C570   C572    1.468   .     S
C571   C577    1.397   .     A
C571   H601    1.084   .     S
C571   C93     1.369   1_565 S
C572   O607    1.298   .     A
C572   O606    1.290   .     A
C573   C574    1.393   .     A
C573   H590    1.084   .     S
C574   C582    1.410   .     S
C574   C575    1.395   .     A
C575   H591    1.085   .     S
C576   C577    1.405   .     A
C576   O614    1.384   .     S
C576   C95     1.378   1_565 S
C578   H592    1.081   .     S
C578   N603    1.367   .     A
C578   C659    1.416   .     S
C579   N602    1.366   .     A
C579   H593    1.081   .     S
C580   H594    1.079   .     S
C580   N602    1.366   .     A
C581   N603    1.366   .     A
C581   H595    1.081   .     S
C581   C660    1.415   .     S
C582   O608    1.281   .     A
C582   O609    1.281   .     A
C583   O610    1.293   .     A
C583   O611    1.289   .     A
C583   C585    1.448   .     S
C584   C1285   1.405   1_554 S
C584   H1317   1.084   1_554 S
C586   C587    1.402   .     A
C586   O622    1.397   .     S
C587   C1308   1.401   .     S
C587   H1319   1.075   .     S
C588   O630    1.391   .     S
C588   C1307   1.401   1_554 S
C588   C1282   1.428   1_554 S
H597   C1304   1.084   .     S
H599   C1307   1.075   1_554 S
N602   Zn612   2.010   .     S
N603   Zn613   2.010   .     S
O604   Zn612   1.992   .     S
O605   Zn613   1.990   .     S
O606   Zn612   1.955   .     S
O607   Zn613   1.900   .     S
O608   Zn612   1.990   .     S
O609   Zn613   1.992   .     S
O610   Zn612   1.900   .     S
O611   Zn613   1.955   .     S
O614   C615    1.412   .     S
C615   H616    1.114   .     S
C615   H617    1.115   .     S
C615   C618    1.521   .     S
C618   H620    1.110   .     S
C618   H621    1.111   .     S
C618   H619    1.110   .     S
C623   H625    1.112   .     S
C623   C626    1.519   .     S
C623   H624    1.115   .     S
C623   O702    1.417   .     S
C626   H628    1.110   .     S
C626   H629    1.110   .     S
C626   H627    1.110   .     S
O630   C631    1.422   .     S
C631   H633    1.117   .     S
C631   C634    1.532   .     S
C631   H632    1.111   .     S
C634   C637    1.527   .     S
C634   H635    1.105   .     S
H636   C714    1.108   .     S
C637   H638    1.111   .     S
C637   H640    1.111   .     S
H639   C717    1.111   .     S
C641   O684    1.282   .     A
C641   C657    1.415   .     S
C641   O685    1.282   .     A
C642   C643    1.412   .     A
C642   C1364   1.420   .     S
C642   C1388   1.428   .     S
C643   C647    1.415   .     A
C643   C650    1.410   .     A
C644   C648    1.392   .     A
C644   C1362   1.420   1_554 S
C644   C1365   1.420   1_554 S
C645   C646    1.390   .     A
C645   C1364   1.420   .     S
C645   C1384   1.405   .     S
C646   C647    1.386   .     A
C646   H676    1.084   .     S
C647   H680    1.082   .     S
C648   C665    1.384   .     A
C648   H678    1.074   .     S
C649   C665    1.398   .     A
C649   H669    1.083   .     S
C649   C664    1.394   .     A
C650   C666    1.411   .     A
C650   C652    1.468   .     S
C651   C657    1.397   .     A
C651   H681    1.084   .     S
C651   C173    1.369   1_565 S
C652   O687    1.298   .     A
C652   O686    1.290   .     A
C653   C654    1.393   .     A
C653   H670    1.084   .     S
C654   C662    1.410   .     S
C654   C655    1.395   .     A
C655   H671    1.085   .     S
C656   C657    1.405   .     A
C656   O694    1.384   .     S
C656   C175    1.378   1_565 S
C658   H672    1.081   .     S
C658   N683    1.367   .     A
C658   C499    1.416   1_655 S
C659   N682    1.366   .     A
C659   H673    1.081   .     S
C660   H674    1.079   .     S
C660   N682    1.366   .     A
C661   N683    1.366   .     A
C661   H675    1.081   .     S
C661   C500    1.415   1_655 S
C662   O688    1.281   .     A
C662   O689    1.281   .     A
C663   O690    1.293   .     A
C663   O691    1.289   .     A
C663   C665    1.448   .     S
C664   C1365   1.405   1_554 S
C664   H1397   1.084   1_554 S
C666   C667    1.402   .     A
C666   O702    1.397   .     S
C667   C1388   1.401   .     S
C667   H1399   1.075   .     S
C668   O710    1.391   .     S
C668   C1387   1.401   1_554 S
C668   C1362   1.428   1_554 S
H677   C1384   1.084   .     S
H679   C1387   1.075   1_554 S
N682   Zn692   2.010   .     S
N683   Zn693   2.010   .     S
O684   Zn692   1.992   .     S
O685   Zn693   1.990   .     S
O686   Zn692   1.955   .     S
O687   Zn693   1.900   .     S
O688   Zn692   1.990   .     S
O689   Zn693   1.992   .     S
O690   Zn692   1.900   .     S
O691   Zn693   1.955   .     S
O694   C695    1.412   .     S
C695   H696    1.114   .     S
C695   H697    1.115   .     S
C695   C698    1.521   .     S
C698   H700    1.110   .     S
C698   H701    1.111   .     S
C698   H699    1.110   .     S
C703   H705    1.112   .     S
C703   C706    1.519   .     S
C703   H704    1.115   .     S
C703   O542    1.417   1_655 S
C706   H708    1.110   .     S
C706   H709    1.110   .     S
C706   H707    1.110   .     S
O710   C711    1.422   .     S
C711   H713    1.117   .     S
C711   C714    1.532   .     S
C711   H712    1.111   .     S
C714   C717    1.527   .     S
C714   H715    1.105   .     S
H716   C554    1.108   1_655 S
C717   H718    1.111   .     S
C717   H720    1.111   .     S
H719   C557    1.111   1_655 S
C721   O764    1.282   .     A
C721   C737    1.415   .     S
C721   O765    1.282   .     A
C722   C723    1.412   .     A
C722   C4      1.420   1_556 S
C722   C28     1.428   1_556 S
C723   C727    1.415   .     A
C723   C730    1.410   .     A
C724   C728    1.392   .     A
C725   C726    1.390   .     A
C725   C4      1.420   1_556 S
C725   C24     1.405   1_556 S
C726   C727    1.386   .     A
C726   H756    1.084   .     S
C727   H760    1.082   .     S
C728   C745    1.384   .     A
C728   H758    1.074   .     S
C729   C745    1.398   .     A
C729   H749    1.083   .     S
C729   C744    1.394   .     A
C730   C746    1.411   .     A
C730   C732    1.468   .     S
C731   C737    1.397   .     A
C731   H761    1.084   .     S
C731   C973    1.369   .     S
C732   O767    1.298   .     A
C732   O766    1.290   .     A
C733   C734    1.393   .     A
C733   H750    1.084   .     S
C733   C1211   1.369   1_545 S
C734   C742    1.410   .     S
C734   C735    1.395   .     A
C735   H751    1.085   .     S
C735   C1216   1.378   1_545 S
C736   C737    1.405   .     A
C736   O774    1.384   .     S
C736   C975    1.378   .     S
C738   H752    1.081   .     S
C738   N763    1.367   .     A
C738   C819    1.416   .     S
C739   N762    1.366   .     A
C739   H753    1.081   .     S
C739   C898    1.416   1_455 S
C740   H754    1.079   .     S
C740   N762    1.366   .     A
C740   C901    1.415   1_455 S
C741   N763    1.366   .     A
C741   H755    1.081   .     S
C741   C820    1.415   .     S
C742   O768    1.281   .     A
C742   O769    1.281   .     A
C743   O770    1.293   .     A
C743   O771    1.289   .     A
C743   C745    1.448   .     S
C746   C747    1.402   .     A
C746   O782    1.397   .     S
C747   C28     1.401   1_556 S
C747   H39     1.075   1_556 S
C748   O790    1.391   .     S
H757   C24     1.084   1_556 S
N762   Zn772   2.010   .     S
N763   Zn773   2.010   .     S
O764   Zn772   1.992   .     S
O765   Zn773   1.990   .     S
O766   Zn772   1.955   .     S
O767   Zn773   1.900   .     S
O768   Zn772   1.990   .     S
O769   Zn773   1.992   .     S
O770   Zn772   1.900   .     S
O771   Zn773   1.955   .     S
O774   C775    1.412   .     S
C775   H776    1.114   .     S
C775   H777    1.115   .     S
C775   C778    1.521   .     S
C778   H780    1.110   .     S
C778   H781    1.111   .     S
C778   H779    1.110   .     S
O782   C943    1.417   1_455 S
C783   H785    1.112   .     S
C783   C786    1.519   .     S
C783   H784    1.115   .     S
C783   O862    1.417   .     S
C786   H788    1.110   .     S
C786   H789    1.110   .     S
C786   H787    1.110   .     S
O790   C791    1.422   .     S
C791   H793    1.117   .     S
C791   C794    1.532   .     S
C791   H792    1.111   .     S
C794   C797    1.527   .     S
C794   H795    1.105   .     S
C794   H956    1.108   1_455 S
H796   C874    1.108   .     S
C797   H798    1.111   .     S
C797   H800    1.111   .     S
C797   H959    1.111   1_455 S
H799   C877    1.111   .     S
C801   O844    1.282   .     A
C801   C817    1.415   .     S
C801   O845    1.282   .     A
C802   C803    1.412   .     A
C802   C84     1.420   1_556 S
C802   C108    1.428   1_556 S
C803   C807    1.415   .     A
C803   C810    1.410   .     A
C804   C808    1.392   .     A
C805   C806    1.390   .     A
C805   C84     1.420   1_556 S
C805   C104    1.405   1_556 S
C806   C807    1.386   .     A
C806   H836    1.084   .     S
C807   H840    1.082   .     S
C808   C825    1.384   .     A
C808   H838    1.074   .     S
C809   C825    1.398   .     A
C809   H829    1.083   .     S
C809   C824    1.394   .     A
C810   C826    1.411   .     A
C810   C812    1.468   .     S
C811   C817    1.397   .     A
C811   H841    1.084   .     S
C811   C1053   1.369   .     S
C812   O847    1.298   .     A
C812   O846    1.290   .     A
C813   C814    1.393   .     A
C813   H830    1.084   .     S
C813   C1291   1.369   1_545 S
C814   C822    1.410   .     S
C814   C815    1.395   .     A
C815   H831    1.085   .     S
C815   C1296   1.378   1_545 S
C816   C817    1.405   .     A
C816   O854    1.384   .     S
C816   C1055   1.378   .     S
C818   H832    1.081   .     S
C818   N843    1.367   .     A
C818   C899    1.416   .     S
C819   N842    1.366   .     A
C819   H833    1.081   .     S
C820   H834    1.079   .     S
C820   N842    1.366   .     A
C821   N843    1.366   .     A
C821   H835    1.081   .     S
C821   C900    1.415   .     S
C822   O848    1.281   .     A
C822   O849    1.281   .     A
C823   O850    1.293   .     A
C823   O851    1.289   .     A
C823   C825    1.448   .     S
C826   C827    1.402   .     A
C826   O862    1.397   .     S
C827   C108    1.401   1_556 S
C827   H119    1.075   1_556 S
C828   O870    1.391   .     S
H837   C104    1.084   1_556 S
N842   Zn852   2.010   .     S
N843   Zn853   2.010   .     S
O844   Zn852   1.992   .     S
O845   Zn853   1.990   .     S
O846   Zn852   1.955   .     S
O847   Zn853   1.900   .     S
O848   Zn852   1.990   .     S
O849   Zn853   1.992   .     S
O850   Zn852   1.900   .     S
O851   Zn853   1.955   .     S
O854   C855    1.412   .     S
C855   H856    1.114   .     S
C855   H857    1.115   .     S
C855   C858    1.521   .     S
C858   H860    1.110   .     S
C858   H861    1.111   .     S
C858   H859    1.110   .     S
C863   H865    1.112   .     S
C863   C866    1.519   .     S
C863   H864    1.115   .     S
C863   O942    1.417   .     S
C866   H868    1.110   .     S
C866   H869    1.110   .     S
C866   H867    1.110   .     S
O870   C871    1.422   .     S
C871   H873    1.117   .     S
C871   C874    1.532   .     S
C871   H872    1.111   .     S
C874   C877    1.527   .     S
C874   H875    1.105   .     S
H876   C954    1.108   .     S
C877   H878    1.111   .     S
C877   H880    1.111   .     S
H879   C957    1.111   .     S
C881   O924    1.282   .     A
C881   C897    1.415   .     S
C881   O925    1.282   .     A
C882   C883    1.412   .     A
C882   C164    1.420   1_556 S
C882   C188    1.428   1_556 S
C883   C887    1.415   .     A
C883   C890    1.410   .     A
C884   C888    1.392   .     A
C885   C886    1.390   .     A
C885   C164    1.420   1_556 S
C885   C184    1.405   1_556 S
C886   C887    1.386   .     A
C886   H916    1.084   .     S
C887   H920    1.082   .     S
C888   C905    1.384   .     A
C888   H918    1.074   .     S
C889   C905    1.398   .     A
C889   H909    1.083   .     S
C889   C904    1.394   .     A
C890   C906    1.411   .     A
C890   C892    1.468   .     S
C891   C897    1.397   .     A
C891   H921    1.084   .     S
C891   C1133   1.369   .     S
C892   O927    1.298   .     A
C892   O926    1.290   .     A
C893   C894    1.393   .     A
C893   H910    1.084   .     S
C893   C1371   1.369   1_545 S
C894   C902    1.410   .     S
C894   C895    1.395   .     A
C895   H911    1.085   .     S
C895   C1376   1.378   1_545 S
C896   C897    1.405   .     A
C896   O934    1.384   .     S
C896   C1135   1.378   .     S
C898   H912    1.081   .     S
C898   N923    1.367   .     A
C898   C739    1.416   1_655 S
C899   N922    1.366   .     A
C899   H913    1.081   .     S
C900   H914    1.079   .     S
C900   N922    1.366   .     A
C901   N923    1.366   .     A
C901   H915    1.081   .     S
C901   C740    1.415   1_655 S
C902   O928    1.281   .     A
C902   O929    1.281   .     A
C903   O930    1.293   .     A
C903   O931    1.289   .     A
C903   C905    1.448   .     S
C906   C907    1.402   .     A
C906   O942    1.397   .     S
C907   C188    1.401   1_556 S
C907   H199    1.075   1_556 S
C908   O950    1.391   .     S
H917   C184    1.084   1_556 S
N922   Zn932   2.010   .     S
N923   Zn933   2.010   .     S
O924   Zn932   1.992   .     S
O925   Zn933   1.990   .     S
O926   Zn932   1.955   .     S
O927   Zn933   1.900   .     S
O928   Zn932   1.990   .     S
O929   Zn933   1.992   .     S
O930   Zn932   1.900   .     S
O931   Zn933   1.955   .     S
O934   C935    1.412   .     S
C935   H936    1.114   .     S
C935   H937    1.115   .     S
C935   C938    1.521   .     S
C938   H940    1.110   .     S
C938   H941    1.111   .     S
C938   H939    1.110   .     S
C943   H945    1.112   .     S
C943   C946    1.519   .     S
C943   H944    1.115   .     S
C943   O782    1.417   1_655 S
C946   H948    1.110   .     S
C946   H949    1.110   .     S
C946   H947    1.110   .     S
O950   C951    1.422   .     S
C951   H953    1.117   .     S
C951   C954    1.532   .     S
C951   H952    1.111   .     S
C954   C957    1.527   .     S
C954   H955    1.105   .     S
H956   C794    1.108   1_655 S
C957   H958    1.111   .     S
C957   H960    1.111   .     S
H959   C797    1.111   1_655 S
C961   O1004   1.282   .     A
C961   C977    1.415   .     S
C961   O1005   1.282   .     A
C962   C963    1.412   .     A
C962   C244    1.420   1_556 S
C962   C268    1.428   1_556 S
C963   C967    1.415   .     A
C963   C970    1.410   .     A
C964   C968    1.392   .     A
C965   C966    1.390   .     A
C965   C244    1.420   1_556 S
C965   C264    1.405   1_556 S
C966   C967    1.386   .     A
C966   H996    1.084   .     S
C967   H1000   1.082   .     S
C968   C985    1.384   .     A
C968   H998    1.074   .     S
C969   C985    1.398   .     A
C969   H989    1.083   .     S
C969   C984    1.394   .     A
C970   C986    1.411   .     A
C970   C972    1.468   .     S
C971   C977    1.397   .     A
C971   H1001   1.084   .     S
C971   C1213   1.369   .     S
C972   O1007   1.298   .     A
C972   O1006   1.290   .     A
C973   C974    1.393   .     A
C973   H990    1.084   .     S
C974   C982    1.410   .     S
C974   C975    1.395   .     A
C975   H991    1.085   .     S
C976   C977    1.405   .     A
C976   O1014   1.384   .     S
C976   C1215   1.378   .     S
C978   H992    1.081   .     S
C978   N1003   1.367   .     A
C978   C1059   1.416   .     S
C979   N1002   1.366   .     A
C979   H993    1.081   .     S
C979   C1138   1.416   1_455 S
C980   H994    1.079   .     S
C980   N1002   1.366   .     A
C980   C1141   1.415   1_455 S
C981   N1003   1.366   .     A
C981   H995    1.081   .     S
C981   C1060   1.415   .     S
C982   O1008   1.281   .     A
C982   O1009   1.281   .     A
C983   O1010   1.293   .     A
C983   O1011   1.289   .     A
C983   C985    1.448   .     S
C986   C987    1.402   .     A
C986   O1022   1.397   .     S
C987   C268    1.401   1_556 S
C987   H279    1.075   1_556 S
C988   O1030   1.391   .     S
H997   C264    1.084   1_556 S
N1002  Zn1012  2.010   .     S
N1003  Zn1013  2.010   .     S
O1004  Zn1012  1.992   .     S
O1005  Zn1013  1.990   .     S
O1006  Zn1012  1.955   .     S
O1007  Zn1013  1.900   .     S
O1008  Zn1012  1.990   .     S
O1009  Zn1013  1.992   .     S
O1010  Zn1012  1.900   .     S
O1011  Zn1013  1.955   .     S
O1014  C1015   1.412   .     S
C1015  H1016   1.114   .     S
C1015  H1017   1.115   .     S
C1015  C1018   1.521   .     S
C1018  H1020   1.110   .     S
C1018  H1021   1.111   .     S
C1018  H1019   1.110   .     S
O1022  C1183   1.417   1_455 S
C1023  H1025   1.112   .     S
C1023  C1026   1.519   .     S
C1023  H1024   1.115   .     S
C1023  O1102   1.417   .     S
C1026  H1028   1.110   .     S
C1026  H1029   1.110   .     S
C1026  H1027   1.110   .     S
O1030  C1031   1.422   .     S
C1031  H1033   1.117   .     S
C1031  C1034   1.532   .     S
C1031  H1032   1.111   .     S
C1034  C1037   1.527   .     S
C1034  H1035   1.105   .     S
C1034  H1196   1.108   1_455 S
H1036  C1114   1.108   .     S
C1037  H1038   1.111   .     S
C1037  H1040   1.111   .     S
C1037  H1199   1.111   1_455 S
H1039  C1117   1.111   .     S
C1041  O1084   1.282   .     A
C1041  C1057   1.415   .     S
C1041  O1085   1.282   .     A
C1042  C1043   1.412   .     A
C1042  C324    1.420   1_556 S
C1042  C348    1.428   1_556 S
C1043  C1047   1.415   .     A
C1043  C1050   1.410   .     A
C1044  C1048   1.392   .     A
C1045  C1046   1.390   .     A
C1045  C324    1.420   1_556 S
C1045  C344    1.405   1_556 S
C1046  C1047   1.386   .     A
C1046  H1076   1.084   .     S
C1047  H1080   1.082   .     S
C1048  C1065   1.384   .     A
C1048  H1078   1.074   .     S
C1049  C1065   1.398   .     A
C1049  H1069   1.083   .     S
C1049  C1064   1.394   .     A
C1050  C1066   1.411   .     A
C1050  C1052   1.468   .     S
C1051  C1057   1.397   .     A
C1051  H1081   1.084   .     S
C1051  C1293   1.369   .     S
C1052  O1087   1.298   .     A
C1052  O1086   1.290   .     A
C1053  C1054   1.393   .     A
C1053  H1070   1.084   .     S
C1054  C1062   1.410   .     S
C1054  C1055   1.395   .     A
C1055  H1071   1.085   .     S
C1056  C1057   1.405   .     A
C1056  O1094   1.384   .     S
C1056  C1295   1.378   .     S
C1058  H1072   1.081   .     S
C1058  N1083   1.367   .     A
C1058  C1139   1.416   .     S
C1059  N1082   1.366   .     A
C1059  H1073   1.081   .     S
C1060  H1074   1.079   .     S
C1060  N1082   1.366   .     A
C1061  N1083   1.366   .     A
C1061  H1075   1.081   .     S
C1061  C1140   1.415   .     S
C1062  O1088   1.281   .     A
C1062  O1089   1.281   .     A
C1063  O1090   1.293   .     A
C1063  O1091   1.289   .     A
C1063  C1065   1.448   .     S
C1066  C1067   1.402   .     A
C1066  O1102   1.397   .     S
C1067  C348    1.401   1_556 S
C1067  H359    1.075   1_556 S
C1068  O1110   1.391   .     S
H1077  C344    1.084   1_556 S
N1082  Zn1092  2.010   .     S
N1083  Zn1093  2.010   .     S
O1084  Zn1092  1.992   .     S
O1085  Zn1093  1.990   .     S
O1086  Zn1092  1.955   .     S
O1087  Zn1093  1.900   .     S
O1088  Zn1092  1.990   .     S
O1089  Zn1093  1.992   .     S
O1090  Zn1092  1.900   .     S
O1091  Zn1093  1.955   .     S
O1094  C1095   1.412   .     S
C1095  H1096   1.114   .     S
C1095  H1097   1.115   .     S
C1095  C1098   1.521   .     S
C1098  H1100   1.110   .     S
C1098  H1101   1.111   .     S
C1098  H1099   1.110   .     S
C1103  H1105   1.112   .     S
C1103  C1106   1.519   .     S
C1103  H1104   1.115   .     S
C1103  O1182   1.417   .     S
C1106  H1108   1.110   .     S
C1106  H1109   1.110   .     S
C1106  H1107   1.110   .     S
O1110  C1111   1.422   .     S
C1111  H1113   1.117   .     S
C1111  C1114   1.532   .     S
C1111  H1112   1.111   .     S
C1114  C1117   1.527   .     S
C1114  H1115   1.105   .     S
H1116  C1194   1.108   .     S
C1117  H1118   1.111   .     S
C1117  H1120   1.111   .     S
H1119  C1197   1.111   .     S
C1121  O1164   1.282   .     A
C1121  C1137   1.415   .     S
C1121  O1165   1.282   .     A
C1122  C1123   1.412   .     A
C1122  C404    1.420   1_556 S
C1122  C428    1.428   1_556 S
C1123  C1127   1.415   .     A
C1123  C1130   1.410   .     A
C1124  C1128   1.392   .     A
C1125  C1126   1.390   .     A
C1125  C404    1.420   1_556 S
C1125  C424    1.405   1_556 S
C1126  C1127   1.386   .     A
C1126  H1156   1.084   .     S
C1127  H1160   1.082   .     S
C1128  C1145   1.384   .     A
C1128  H1158   1.074   .     S
C1129  C1145   1.398   .     A
C1129  H1149   1.083   .     S
C1129  C1144   1.394   .     A
C1130  C1146   1.411   .     A
C1130  C1132   1.468   .     S
C1131  C1137   1.397   .     A
C1131  H1161   1.084   .     S
C1131  C1373   1.369   .     S
C1132  O1167   1.298   .     A
C1132  O1166   1.290   .     A
C1133  C1134   1.393   .     A
C1133  H1150   1.084   .     S
C1134  C1142   1.410   .     S
C1134  C1135   1.395   .     A
C1135  H1151   1.085   .     S
C1136  C1137   1.405   .     A
C1136  O1174   1.384   .     S
C1136  C1375   1.378   .     S
C1138  H1152   1.081   .     S
C1138  N1163   1.367   .     A
C1138  C979    1.416   1_655 S
C1139  N1162   1.366   .     A
C1139  H1153   1.081   .     S
C1140  H1154   1.079   .     S
C1140  N1162   1.366   .     A
C1141  N1163   1.366   .     A
C1141  H1155   1.081   .     S
C1141  C980    1.415   1_655 S
C1142  O1168   1.281   .     A
C1142  O1169   1.281   .     A
C1143  O1170   1.293   .     A
C1143  O1171   1.289   .     A
C1143  C1145   1.448   .     S
C1146  C1147   1.402   .     A
C1146  O1182   1.397   .     S
C1147  C428    1.401   1_556 S
C1147  H439    1.075   1_556 S
C1148  O1190   1.391   .     S
H1157  C424    1.084   1_556 S
N1162  Zn1172  2.010   .     S
N1163  Zn1173  2.010   .     S
O1164  Zn1172  1.992   .     S
O1165  Zn1173  1.990   .     S
O1166  Zn1172  1.955   .     S
O1167  Zn1173  1.900   .     S
O1168  Zn1172  1.990   .     S
O1169  Zn1173  1.992   .     S
O1170  Zn1172  1.900   .     S
O1171  Zn1173  1.955   .     S
O1174  C1175   1.412   .     S
C1175  H1176   1.114   .     S
C1175  H1177   1.115   .     S
C1175  C1178   1.521   .     S
C1178  H1180   1.110   .     S
C1178  H1181   1.111   .     S
C1178  H1179   1.110   .     S
C1183  H1185   1.112   .     S
C1183  C1186   1.519   .     S
C1183  H1184   1.115   .     S
C1183  O1022   1.417   1_655 S
C1186  H1188   1.110   .     S
C1186  H1189   1.110   .     S
C1186  H1187   1.110   .     S
O1190  C1191   1.422   .     S
C1191  H1193   1.117   .     S
C1191  C1194   1.532   .     S
C1191  H1192   1.111   .     S
C1194  C1197   1.527   .     S
C1194  H1195   1.105   .     S
H1196  C1034   1.108   1_655 S
C1197  H1198   1.111   .     S
C1197  H1200   1.111   .     S
H1199  C1037   1.111   1_655 S
C1201  O1244   1.282   .     A
C1201  C1217   1.415   .     S
C1201  O1245   1.282   .     A
C1202  C1203   1.412   .     A
C1202  C484    1.420   1_556 S
C1202  C508    1.428   1_556 S
C1203  C1207   1.415   .     A
C1203  C1210   1.410   .     A
C1204  C1208   1.392   .     A
C1205  C1206   1.390   .     A
C1205  C484    1.420   1_556 S
C1205  C504    1.405   1_556 S
C1206  C1207   1.386   .     A
C1206  H1236   1.084   .     S
C1207  H1240   1.082   .     S
C1208  C1225   1.384   .     A
C1208  H1238   1.074   .     S
C1209  C1225   1.398   .     A
C1209  H1229   1.083   .     S
C1209  C1224   1.394   .     A
C1210  C1226   1.411   .     A
C1210  C1212   1.468   .     S
C1211  C1217   1.397   .     A
C1211  H1241   1.084   .     S
C1211  C733    1.369   1_565 S
C1212  O1247   1.298   .     A
C1212  O1246   1.290   .     A
C1213  C1214   1.393   .     A
C1213  H1230   1.084   .     S
C1214  C1222   1.410   .     S
C1214  C1215   1.395   .     A
C1215  H1231   1.085   .     S
C1216  C1217   1.405   .     A
C1216  O1254   1.384   .     S
C1216  C735    1.378   1_565 S
C1218  H1232   1.081   .     S
C1218  N1243   1.367   .     A
C1218  C1299   1.416   .     S
C1219  N1242   1.366   .     A
C1219  H1233   1.081   .     S
C1219  C1378   1.416   1_455 S
C1220  H1234   1.079   .     S
C1220  N1242   1.366   .     A
C1220  C1381   1.415   1_455 S
C1221  N1243   1.366   .     A
C1221  H1235   1.081   .     S
C1221  C1300   1.415   .     S
C1222  O1248   1.281   .     A
C1222  O1249   1.281   .     A
C1223  O1250   1.293   .     A
C1223  O1251   1.289   .     A
C1223  C1225   1.448   .     S
C1226  C1227   1.402   .     A
C1226  O1262   1.397   .     S
C1227  C508    1.401   1_556 S
C1227  H519    1.075   1_556 S
C1228  O1270   1.391   .     S
H1237  C504    1.084   1_556 S
N1242  Zn1252  2.010   .     S
N1243  Zn1253  2.010   .     S
O1244  Zn1252  1.992   .     S
O1245  Zn1253  1.990   .     S
O1246  Zn1252  1.955   .     S
O1247  Zn1253  1.900   .     S
O1248  Zn1252  1.990   .     S
O1249  Zn1253  1.992   .     S
O1250  Zn1252  1.900   .     S
O1251  Zn1253  1.955   .     S
O1254  C1255   1.412   .     S
C1255  H1256   1.114   .     S
C1255  H1257   1.115   .     S
C1255  C1258   1.521   .     S
C1258  H1260   1.110   .     S
C1258  H1261   1.111   .     S
C1258  H1259   1.110   .     S
O1262  C1423   1.417   1_455 S
C1263  H1265   1.112   .     S
C1263  C1266   1.519   .     S
C1263  H1264   1.115   .     S
C1263  O1342   1.417   .     S
C1266  H1268   1.110   .     S
C1266  H1269   1.110   .     S
C1266  H1267   1.110   .     S
O1270  C1271   1.422   .     S
C1271  H1273   1.117   .     S
C1271  C1274   1.532   .     S
C1271  H1272   1.111   .     S
C1274  C1277   1.527   .     S
C1274  H1275   1.105   .     S
C1274  H1436   1.108   1_455 S
H1276  C1354   1.108   .     S
C1277  H1278   1.111   .     S
C1277  H1280   1.111   .     S
C1277  H1439   1.111   1_455 S
H1279  C1357   1.111   .     S
C1281  O1324   1.282   .     A
C1281  C1297   1.415   .     S
C1281  O1325   1.282   .     A
C1282  C1283   1.412   .     A
C1282  C564    1.420   1_556 S
C1282  C588    1.428   1_556 S
C1283  C1287   1.415   .     A
C1283  C1290   1.410   .     A
C1284  C1288   1.392   .     A
C1285  C1286   1.390   .     A
C1285  C564    1.420   1_556 S
C1285  C584    1.405   1_556 S
C1286  C1287   1.386   .     A
C1286  H1316   1.084   .     S
C1287  H1320   1.082   .     S
C1288  C1305   1.384   .     A
C1288  H1318   1.074   .     S
C1289  C1305   1.398   .     A
C1289  H1309   1.083   .     S
C1289  C1304   1.394   .     A
C1290  C1306   1.411   .     A
C1290  C1292   1.468   .     S
C1291  C1297   1.397   .     A
C1291  H1321   1.084   .     S
C1291  C813    1.369   1_565 S
C1292  O1327   1.298   .     A
C1292  O1326   1.290   .     A
C1293  C1294   1.393   .     A
C1293  H1310   1.084   .     S
C1294  C1302   1.410   .     S
C1294  C1295   1.395   .     A
C1295  H1311   1.085   .     S
C1296  C1297   1.405   .     A
C1296  O1334   1.384   .     S
C1296  C815    1.378   1_565 S
C1298  H1312   1.081   .     S
C1298  N1323   1.367   .     A
C1298  C1379   1.416   .     S
C1299  N1322   1.366   .     A
C1299  H1313   1.081   .     S
C1300  H1314   1.079   .     S
C1300  N1322   1.366   .     A
C1301  N1323   1.366   .     A
C1301  H1315   1.081   .     S
C1301  C1380   1.415   .     S
C1302  O1328   1.281   .     A
C1302  O1329   1.281   .     A
C1303  O1330   1.293   .     A
C1303  O1331   1.289   .     A
C1303  C1305   1.448   .     S
C1306  C1307   1.402   .     A
C1306  O1342   1.397   .     S
C1307  C588    1.401   1_556 S
C1307  H599    1.075   1_556 S
C1308  O1350   1.391   .     S
H1317  C584    1.084   1_556 S
N1322  Zn1332  2.010   .     S
N1323  Zn1333  2.010   .     S
O1324  Zn1332  1.992   .     S
O1325  Zn1333  1.990   .     S
O1326  Zn1332  1.955   .     S
O1327  Zn1333  1.900   .     S
O1328  Zn1332  1.990   .     S
O1329  Zn1333  1.992   .     S
O1330  Zn1332  1.900   .     S
O1331  Zn1333  1.955   .     S
O1334  C1335   1.412   .     S
C1335  H1336   1.114   .     S
C1335  H1337   1.115   .     S
C1335  C1338   1.521   .     S
C1338  H1340   1.110   .     S
C1338  H1341   1.111   .     S
C1338  H1339   1.110   .     S
C1343  H1345   1.112   .     S
C1343  C1346   1.519   .     S
C1343  H1344   1.115   .     S
C1343  O1422   1.417   .     S
C1346  H1348   1.110   .     S
C1346  H1349   1.110   .     S
C1346  H1347   1.110   .     S
O1350  C1351   1.422   .     S
C1351  H1353   1.117   .     S
C1351  C1354   1.532   .     S
C1351  H1352   1.111   .     S
C1354  C1357   1.527   .     S
C1354  H1355   1.105   .     S
H1356  C1434   1.108   .     S
C1357  H1358   1.111   .     S
C1357  H1360   1.111   .     S
H1359  C1437   1.111   .     S
C1361  O1404   1.282   .     A
C1361  C1377   1.415   .     S
C1361  O1405   1.282   .     A
C1362  C1363   1.412   .     A
C1362  C644    1.420   1_556 S
C1362  C668    1.428   1_556 S
C1363  C1367   1.415   .     A
C1363  C1370   1.410   .     A
C1364  C1368   1.392   .     A
C1365  C1366   1.390   .     A
C1365  C644    1.420   1_556 S
C1365  C664    1.405   1_556 S
C1366  C1367   1.386   .     A
C1366  H1396   1.084   .     S
C1367  H1400   1.082   .     S
C1368  C1385   1.384   .     A
C1368  H1398   1.074   .     S
C1369  C1385   1.398   .     A
C1369  H1389   1.083   .     S
C1369  C1384   1.394   .     A
C1370  C1386   1.411   .     A
C1370  C1372   1.468   .     S
C1371  C1377   1.397   .     A
C1371  H1401   1.084   .     S
C1371  C893    1.369   1_565 S
C1372  O1407   1.298   .     A
C1372  O1406   1.290   .     A
C1373  C1374   1.393   .     A
C1373  H1390   1.084   .     S
C1374  C1382   1.410   .     S
C1374  C1375   1.395   .     A
C1375  H1391   1.085   .     S
C1376  C1377   1.405   .     A
C1376  O1414   1.384   .     S
C1376  C895    1.378   1_565 S
C1378  H1392   1.081   .     S
C1378  N1403   1.367   .     A
C1378  C1219   1.416   1_655 S
C1379  N1402   1.366   .     A
C1379  H1393   1.081   .     S
C1380  H1394   1.079   .     S
C1380  N1402   1.366   .     A
C1381  N1403   1.366   .     A
C1381  H1395   1.081   .     S
C1381  C1220   1.415   1_655 S
C1382  O1408   1.281   .     A
C1382  O1409   1.281   .     A
C1383  O1410   1.293   .     A
C1383  O1411   1.289   .     A
C1383  C1385   1.448   .     S
C1386  C1387   1.402   .     A
C1386  O1422   1.397   .     S
C1387  C668    1.401   1_556 S
C1387  H679    1.075   1_556 S
C1388  O1430   1.391   .     S
H1397  C664    1.084   1_556 S
N1402  Zn1412  2.010   .     S
N1403  Zn1413  2.010   .     S
O1404  Zn1412  1.992   .     S
O1405  Zn1413  1.990   .     S
O1406  Zn1412  1.955   .     S
O1407  Zn1413  1.900   .     S
O1408  Zn1412  1.990   .     S
O1409  Zn1413  1.992   .     S
O1410  Zn1412  1.900   .     S
O1411  Zn1413  1.955   .     S
O1414  C1415   1.412   .     S
C1415  H1416   1.114   .     S
C1415  H1417   1.115   .     S
C1415  C1418   1.521   .     S
C1418  H1420   1.110   .     S
C1418  H1421   1.111   .     S
C1418  H1419   1.110   .     S
C1423  H1425   1.112   .     S
C1423  C1426   1.519   .     S
C1423  H1424   1.115   .     S
C1423  O1262   1.417   1_655 S
C1426  H1428   1.110   .     S
C1426  H1429   1.110   .     S
C1426  H1427   1.110   .     S
O1430  C1431   1.422   .     S
C1431  H1433   1.117   .     S
C1431  C1434   1.532   .     S
C1431  H1432   1.111   .     S
C1434  C1437   1.527   .     S
C1434  H1435   1.105   .     S
H1436  C1274   1.108   1_655 S
C1437  H1438   1.111   .     S
C1437  H1440   1.111   .     S
H1439  C1277   1.111   1_655 S
