data_str_m3_o10_o18_pcu_sym.69
_audit_creation_date              2020-01-03
_audit_creation_method            'Materials Studio'
_symmetry_space_group_name_H-M    'P1'
_symmetry_Int_Tables_number       1
_symmetry_cell_setting            triclinic
loop_
_symmetry_equiv_pos_as_xyz
  x,y,z
_cell_length_a                    23.9593
_cell_length_b                    25.6687
_cell_length_c                    27.2719
_cell_angle_alpha                 95.8928
_cell_angle_beta                  93.4619
_cell_angle_gamma                 93.0513
loop_
_atom_site_label
_atom_site_type_symbol
_atom_site_fract_x
_atom_site_fract_y
_atom_site_fract_z
_atom_site_U_iso_or_equiv
_atom_site_adp_type
_atom_site_occupancy
C1     C     0.01463   0.26463   0.24941   0.00000  Uiso   1.00
C2     C     0.31246   0.16293   0.15892   0.00000  Uiso   1.00
C3     C     0.03104   0.17563   0.39436   0.00000  Uiso   1.00
C4     C     0.30229   0.15771   0.10564   0.00000  Uiso   1.00
C5     C     0.02110   0.22347   0.47397   0.00000  Uiso   1.00
C6     C     0.31224   0.10986   0.02603   0.00000  Uiso   1.00
C7     C     0.00328   0.21211   0.42432   0.00000  Uiso   1.00
C8     C     0.33006   0.12123   0.07568   0.00000  Uiso   1.00
C9     C     0.07463   0.14903   0.41443   0.00000  Uiso   1.00
C10    C     0.25870   0.18431   0.08557   0.00000  Uiso   1.00
C11    C     0.10087   0.16940   0.46033   0.00000  Uiso   1.00
C12    C     0.31871   0.06870   0.25059   0.00000  Uiso   1.00
C13    C     0.23246   0.16394   0.03967   0.00000  Uiso   1.00
C14    C     0.07059   0.20327   0.49195   0.00000  Uiso   1.00
C15    C     0.26274   0.13006   0.00805   0.00000  Uiso   1.00
C16    C     0.15626   0.15851   0.47539   0.00000  Uiso   1.00
C17    C     0.17707   0.17483   0.02461   0.00000  Uiso   1.00
C18    C     0.16257   0.12165   0.19293   0.00000  Uiso   1.00
C19    C     0.12452   0.07242   0.17870   0.00000  Uiso   1.00
C20    C     0.17077   0.21168   0.30707   0.00000  Uiso   1.00
C21    C     0.20881   0.26091   0.32130   0.00000  Uiso   1.00
C22    C     0.14068   0.19849   0.05792   0.00000  Uiso   1.00
C23    C     0.19265   0.13484   0.44208   0.00000  Uiso   1.00
C24    C     0.08963   0.21545   0.04120   0.00000  Uiso   1.00
C25    C     0.24371   0.11789   0.45880   0.00000  Uiso   1.00
C26    C     0.02248   0.31929   0.25118   0.00000  Uiso   1.00
C27    C     0.31086   0.01404   0.24882   0.00000  Uiso   1.00
C28    C     0.02087   0.17040   0.34108   0.00000  Uiso   1.00
H29    H     0.06457   0.23727   0.06701   0.00000  Uiso   1.00
H30    H     0.26818   0.33033   0.24436   0.00000  Uiso   1.00
H31    H     0.12447   0.04783   0.20978   0.00000  Uiso   1.00
H32    H     0.08156   0.08167   0.16732   0.00000  Uiso   1.00
H33    H     0.14097   0.04916   0.14666   0.00000  Uiso   1.00
H34    H     0.16214   0.14635   0.16182   0.00000  Uiso   1.00
H35    H     0.20364   0.10606   0.19863   0.00000  Uiso   1.00
H36    H     0.25178   0.25167   0.33267   0.00000  Uiso   1.00
H37    H     0.20885   0.28550   0.29021   0.00000  Uiso   1.00
H38    H     0.19237   0.28417   0.35334   0.00000  Uiso   1.00
H39    H     0.12970   0.22727   0.30137   0.00000  Uiso   1.00
H40    H     0.26876   0.09607   0.43299   0.00000  Uiso   1.00
H41    H     0.17120   0.18699   0.33818   0.00000  Uiso   1.00
H42    H     0.03170   0.10149   0.09061   0.00000  Uiso   1.00
H43    H     0.30163   0.23185   0.40939   0.00000  Uiso   1.00
H44    H     0.33141   0.25005   0.49751   0.00000  Uiso   1.00
H45    H     0.00192   0.08328   0.00249   0.00000  Uiso   1.00
H46    H     0.15120   0.20445   0.09713   0.00000  Uiso   1.00
H47    H     0.18214   0.12888   0.40287   0.00000  Uiso   1.00
H48    H     0.06515   0.00300   0.25564   0.00000  Uiso   1.00
I49    I     0.25088   0.26390   0.11672   0.00000  Uiso   1.00
I50    I     0.08245   0.06943   0.38329   0.00000  Uiso   1.00
N51    N     0.14695   0.15216   0.23740   0.00000  Uiso   1.00
N52    N     0.18638   0.18117   0.26261   0.00000  Uiso   1.00
O53    O     0.29719   0.24631   0.25310   0.00000  Uiso   1.00
O54    O     0.03614   0.08702   0.24691   0.00000  Uiso   1.00
O55    O     0.05822   0.23702   0.24502   0.00000  Uiso   1.00
O56    O     0.27512   0.09632   0.25499   0.00000  Uiso   1.00
O57    O     0.30328   0.17397   0.32247   0.00000  Uiso   1.00
O58    O     0.03005   0.15937   0.17753   0.00000  Uiso   1.00
O59    O     0.06431   0.16467   0.31439   0.00000  Uiso   1.00
O60    O     0.26902   0.16866   0.18561   0.00000  Uiso   1.00
Zn61   Zn    0.27033   0.17287   0.25540   0.00000  Uiso   1.00
Zn62   Zn    0.06300   0.16046   0.24461   0.00000  Uiso   1.00
C63    C     0.34796   0.26463   0.24941   0.00000  Uiso   1.00
C64    C     0.64580   0.16293   0.15892   0.00000  Uiso   1.00
C65    C     0.36438   0.17563   0.39436   0.00000  Uiso   1.00
C66    C     0.63562   0.15771   0.10564   0.00000  Uiso   1.00
C67    C     0.35443   0.22347   0.47397   0.00000  Uiso   1.00
C68    C     0.64557   0.10986   0.02603   0.00000  Uiso   1.00
C69    C     0.33661   0.21211   0.42432   0.00000  Uiso   1.00
C70    C     0.66339   0.12123   0.07568   0.00000  Uiso   1.00
C71    C     0.40796   0.14903   0.41443   0.00000  Uiso   1.00
C72    C     0.59204   0.18431   0.08557   0.00000  Uiso   1.00
C73    C     0.43420   0.16940   0.46033   0.00000  Uiso   1.00
C74    C     0.65204   0.06870   0.25059   0.00000  Uiso   1.00
C75    C     0.56580   0.16394   0.03967   0.00000  Uiso   1.00
C76    C     0.40392   0.20327   0.49195   0.00000  Uiso   1.00
C77    C     0.59608   0.13006   0.00805   0.00000  Uiso   1.00
C78    C     0.48959   0.15851   0.47539   0.00000  Uiso   1.00
C79    C     0.51041   0.17483   0.02461   0.00000  Uiso   1.00
C80    C     0.49590   0.12165   0.19293   0.00000  Uiso   1.00
C81    C     0.45785   0.07242   0.17870   0.00000  Uiso   1.00
C82    C     0.50410   0.21168   0.30707   0.00000  Uiso   1.00
C83    C     0.54215   0.26091   0.32130   0.00000  Uiso   1.00
C84    C     0.47402   0.19849   0.05792   0.00000  Uiso   1.00
C85    C     0.52599   0.13484   0.44208   0.00000  Uiso   1.00
C86    C     0.42296   0.21545   0.04120   0.00000  Uiso   1.00
C87    C     0.57704   0.11789   0.45880   0.00000  Uiso   1.00
C88    C     0.35581   0.31929   0.25118   0.00000  Uiso   1.00
C89    C     0.64419   0.01404   0.24882   0.00000  Uiso   1.00
C90    C     0.35420   0.17040   0.34108   0.00000  Uiso   1.00
H91    H     0.39790   0.23727   0.06701   0.00000  Uiso   1.00
H92    H     0.60152   0.33033   0.24436   0.00000  Uiso   1.00
H93    H     0.45781   0.04783   0.20978   0.00000  Uiso   1.00
H94    H     0.41489   0.08167   0.16732   0.00000  Uiso   1.00
H95    H     0.47430   0.04916   0.14666   0.00000  Uiso   1.00
H96    H     0.49547   0.14635   0.16182   0.00000  Uiso   1.00
H97    H     0.53697   0.10606   0.19863   0.00000  Uiso   1.00
H98    H     0.58511   0.25167   0.33267   0.00000  Uiso   1.00
H99    H     0.54218   0.28550   0.29021   0.00000  Uiso   1.00
H100   H     0.52570   0.28417   0.35334   0.00000  Uiso   1.00
H101   H     0.46303   0.22727   0.30137   0.00000  Uiso   1.00
H102   H     0.60210   0.09607   0.43299   0.00000  Uiso   1.00
H103   H     0.50453   0.18699   0.33818   0.00000  Uiso   1.00
H104   H     0.36504   0.10149   0.09061   0.00000  Uiso   1.00
H105   H     0.63496   0.23185   0.40939   0.00000  Uiso   1.00
H106   H     0.66475   0.25005   0.49751   0.00000  Uiso   1.00
H107   H     0.33526   0.08328   0.00249   0.00000  Uiso   1.00
H108   H     0.48453   0.20445   0.09713   0.00000  Uiso   1.00
H109   H     0.51547   0.12888   0.40287   0.00000  Uiso   1.00
H110   H     0.39848   0.00300   0.25564   0.00000  Uiso   1.00
I111   I     0.58422   0.26390   0.11672   0.00000  Uiso   1.00
I112   I     0.41578   0.06943   0.38329   0.00000  Uiso   1.00
N113   N     0.48029   0.15216   0.23740   0.00000  Uiso   1.00
N114   N     0.51971   0.18117   0.26261   0.00000  Uiso   1.00
O115   O     0.63052   0.24631   0.25310   0.00000  Uiso   1.00
O116   O     0.36948   0.08702   0.24691   0.00000  Uiso   1.00
O117   O     0.39155   0.23702   0.24502   0.00000  Uiso   1.00
O118   O     0.60845   0.09632   0.25499   0.00000  Uiso   1.00
O119   O     0.63662   0.17397   0.32247   0.00000  Uiso   1.00
O120   O     0.36338   0.15937   0.17753   0.00000  Uiso   1.00
O121   O     0.39764   0.16467   0.31439   0.00000  Uiso   1.00
O122   O     0.60236   0.16866   0.18561   0.00000  Uiso   1.00
Zn123  Zn    0.60366   0.17287   0.25540   0.00000  Uiso   1.00
Zn124  Zn    0.39634   0.16046   0.24461   0.00000  Uiso   1.00
C125   C     0.68130   0.26463   0.24941   0.00000  Uiso   1.00
C126   C     0.97913   0.16293   0.15892   0.00000  Uiso   1.00
C127   C     0.69771   0.17563   0.39436   0.00000  Uiso   1.00
C128   C     0.96896   0.15771   0.10564   0.00000  Uiso   1.00
C129   C     0.68776   0.22347   0.47397   0.00000  Uiso   1.00
C130   C     0.97891   0.10986   0.02603   0.00000  Uiso   1.00
C131   C     0.66994   0.21211   0.42432   0.00000  Uiso   1.00
C132   C     0.99672   0.12123   0.07568   0.00000  Uiso   1.00
C133   C     0.74130   0.14903   0.41443   0.00000  Uiso   1.00
C134   C     0.92537   0.18431   0.08557   0.00000  Uiso   1.00
C135   C     0.76754   0.16940   0.46033   0.00000  Uiso   1.00
C136   C     0.98537   0.06870   0.25059   0.00000  Uiso   1.00
C137   C     0.89913   0.16394   0.03967   0.00000  Uiso   1.00
C138   C     0.73726   0.20327   0.49195   0.00000  Uiso   1.00
C139   C     0.92941   0.13006   0.00805   0.00000  Uiso   1.00
C140   C     0.82293   0.15851   0.47539   0.00000  Uiso   1.00
C141   C     0.84374   0.17483   0.02461   0.00000  Uiso   1.00
C142   C     0.82924   0.12165   0.19293   0.00000  Uiso   1.00
C143   C     0.79118   0.07242   0.17870   0.00000  Uiso   1.00
C144   C     0.83743   0.21168   0.30707   0.00000  Uiso   1.00
C145   C     0.87548   0.26091   0.32130   0.00000  Uiso   1.00
C146   C     0.80735   0.19849   0.05792   0.00000  Uiso   1.00
C147   C     0.85932   0.13484   0.44208   0.00000  Uiso   1.00
C148   C     0.75629   0.21545   0.04120   0.00000  Uiso   1.00
C149   C     0.91038   0.11789   0.45880   0.00000  Uiso   1.00
C150   C     0.68915   0.31929   0.25118   0.00000  Uiso   1.00
C151   C     0.97752   0.01404   0.24882   0.00000  Uiso   1.00
C152   C     0.68754   0.17040   0.34108   0.00000  Uiso   1.00
H153   H     0.73124   0.23727   0.06701   0.00000  Uiso   1.00
H154   H     0.93485   0.33033   0.24436   0.00000  Uiso   1.00
H155   H     0.79114   0.04783   0.20978   0.00000  Uiso   1.00
H156   H     0.74823   0.08167   0.16732   0.00000  Uiso   1.00
H157   H     0.80763   0.04916   0.14666   0.00000  Uiso   1.00
H158   H     0.82881   0.14635   0.16182   0.00000  Uiso   1.00
H159   H     0.87030   0.10606   0.19863   0.00000  Uiso   1.00
H160   H     0.91844   0.25167   0.33267   0.00000  Uiso   1.00
H161   H     0.87552   0.28550   0.29021   0.00000  Uiso   1.00
H162   H     0.85903   0.28417   0.35334   0.00000  Uiso   1.00
H163   H     0.79636   0.22727   0.30137   0.00000  Uiso   1.00
H164   H     0.93543   0.09607   0.43299   0.00000  Uiso   1.00
H165   H     0.83787   0.18699   0.33818   0.00000  Uiso   1.00
H166   H     0.69837   0.10149   0.09061   0.00000  Uiso   1.00
H167   H     0.96830   0.23185   0.40939   0.00000  Uiso   1.00
H168   H     0.99808   0.25005   0.49751   0.00000  Uiso   1.00
H169   H     0.66859   0.08328   0.00249   0.00000  Uiso   1.00
H170   H     0.81786   0.20445   0.09713   0.00000  Uiso   1.00
H171   H     0.84880   0.12888   0.40287   0.00000  Uiso   1.00
H172   H     0.73182   0.00300   0.25564   0.00000  Uiso   1.00
I173   I     0.91755   0.26390   0.11672   0.00000  Uiso   1.00
I174   I     0.74912   0.06943   0.38329   0.00000  Uiso   1.00
N175   N     0.81362   0.15216   0.23740   0.00000  Uiso   1.00
N176   N     0.85305   0.18117   0.26261   0.00000  Uiso   1.00
O177   O     0.96386   0.24631   0.25310   0.00000  Uiso   1.00
O178   O     0.70281   0.08702   0.24691   0.00000  Uiso   1.00
O179   O     0.72488   0.23702   0.24502   0.00000  Uiso   1.00
O180   O     0.94178   0.09632   0.25499   0.00000  Uiso   1.00
O181   O     0.96995   0.17397   0.32247   0.00000  Uiso   1.00
O182   O     0.69672   0.15937   0.17753   0.00000  Uiso   1.00
O183   O     0.73098   0.16467   0.31439   0.00000  Uiso   1.00
O184   O     0.93569   0.16866   0.18561   0.00000  Uiso   1.00
Zn185  Zn    0.93700   0.17287   0.25540   0.00000  Uiso   1.00
Zn186  Zn    0.72967   0.16046   0.24461   0.00000  Uiso   1.00
C187   C     0.01463   0.59797   0.24941   0.00000  Uiso   1.00
C188   C     0.31246   0.49627   0.15892   0.00000  Uiso   1.00
C189   C     0.03104   0.50896   0.39436   0.00000  Uiso   1.00
C190   C     0.30229   0.49104   0.10564   0.00000  Uiso   1.00
C191   C     0.02110   0.55681   0.47397   0.00000  Uiso   1.00
C192   C     0.31224   0.44319   0.02603   0.00000  Uiso   1.00
C193   C     0.00328   0.54544   0.42432   0.00000  Uiso   1.00
C194   C     0.33006   0.45456   0.07568   0.00000  Uiso   1.00
C195   C     0.07463   0.48236   0.41443   0.00000  Uiso   1.00
C196   C     0.25870   0.51764   0.08557   0.00000  Uiso   1.00
C197   C     0.10087   0.50273   0.46033   0.00000  Uiso   1.00
C198   C     0.31871   0.40203   0.25059   0.00000  Uiso   1.00
C199   C     0.23246   0.49727   0.03967   0.00000  Uiso   1.00
C200   C     0.07059   0.53661   0.49195   0.00000  Uiso   1.00
C201   C     0.26274   0.46340   0.00805   0.00000  Uiso   1.00
C202   C     0.15626   0.49184   0.47539   0.00000  Uiso   1.00
C203   C     0.17707   0.50816   0.02461   0.00000  Uiso   1.00
C204   C     0.16257   0.45499   0.19293   0.00000  Uiso   1.00
C205   C     0.12452   0.40575   0.17870   0.00000  Uiso   1.00
C206   C     0.17077   0.54501   0.30707   0.00000  Uiso   1.00
C207   C     0.20881   0.59425   0.32130   0.00000  Uiso   1.00
C208   C     0.14068   0.53183   0.05792   0.00000  Uiso   1.00
C209   C     0.19265   0.46818   0.44208   0.00000  Uiso   1.00
C210   C     0.08963   0.54878   0.04120   0.00000  Uiso   1.00
C211   C     0.24371   0.45122   0.45880   0.00000  Uiso   1.00
C212   C     0.02248   0.65263   0.25118   0.00000  Uiso   1.00
C213   C     0.31086   0.34737   0.24882   0.00000  Uiso   1.00
C214   C     0.02087   0.50373   0.34108   0.00000  Uiso   1.00
H215   H     0.06457   0.57060   0.06701   0.00000  Uiso   1.00
H216   H     0.26818   0.66367   0.24436   0.00000  Uiso   1.00
H217   H     0.12447   0.38117   0.20978   0.00000  Uiso   1.00
H218   H     0.08156   0.41501   0.16732   0.00000  Uiso   1.00
H219   H     0.14097   0.38249   0.14666   0.00000  Uiso   1.00
H220   H     0.16214   0.47968   0.16182   0.00000  Uiso   1.00
H221   H     0.20364   0.43939   0.19863   0.00000  Uiso   1.00
H222   H     0.25178   0.58500   0.33267   0.00000  Uiso   1.00
H223   H     0.20885   0.61884   0.29021   0.00000  Uiso   1.00
H224   H     0.19237   0.61751   0.35334   0.00000  Uiso   1.00
H225   H     0.12970   0.56061   0.30137   0.00000  Uiso   1.00
H226   H     0.26876   0.42940   0.43299   0.00000  Uiso   1.00
H227   H     0.17120   0.52032   0.33818   0.00000  Uiso   1.00
H228   H     0.03170   0.43482   0.09061   0.00000  Uiso   1.00
H229   H     0.30163   0.56518   0.40939   0.00000  Uiso   1.00
H230   H     0.33141   0.58339   0.49751   0.00000  Uiso   1.00
H231   H     0.00192   0.41662   0.00249   0.00000  Uiso   1.00
H232   H     0.15120   0.53779   0.09713   0.00000  Uiso   1.00
H233   H     0.18214   0.46222   0.40287   0.00000  Uiso   1.00
H234   H     0.06515   0.33633   0.25564   0.00000  Uiso   1.00
I235   I     0.25088   0.59724   0.11672   0.00000  Uiso   1.00
I236   I     0.08245   0.40276   0.38329   0.00000  Uiso   1.00
N237   N     0.14695   0.48550   0.23740   0.00000  Uiso   1.00
N238   N     0.18638   0.51450   0.26261   0.00000  Uiso   1.00
O239   O     0.29719   0.57964   0.25310   0.00000  Uiso   1.00
O240   O     0.03614   0.42036   0.24691   0.00000  Uiso   1.00
O241   O     0.05822   0.57035   0.24502   0.00000  Uiso   1.00
O242   O     0.27512   0.42965   0.25499   0.00000  Uiso   1.00
O243   O     0.30328   0.50730   0.32247   0.00000  Uiso   1.00
O244   O     0.03005   0.49270   0.17753   0.00000  Uiso   1.00
O245   O     0.06431   0.49801   0.31439   0.00000  Uiso   1.00
O246   O     0.26902   0.50199   0.18561   0.00000  Uiso   1.00
Zn247  Zn    0.27033   0.50621   0.25540   0.00000  Uiso   1.00
Zn248  Zn    0.06300   0.49379   0.24461   0.00000  Uiso   1.00
C249   C     0.34796   0.59797   0.24941   0.00000  Uiso   1.00
C250   C     0.64580   0.49627   0.15892   0.00000  Uiso   1.00
C251   C     0.36438   0.50896   0.39436   0.00000  Uiso   1.00
C252   C     0.63562   0.49104   0.10564   0.00000  Uiso   1.00
C253   C     0.35443   0.55681   0.47397   0.00000  Uiso   1.00
C254   C     0.64557   0.44319   0.02603   0.00000  Uiso   1.00
C255   C     0.33661   0.54544   0.42432   0.00000  Uiso   1.00
C256   C     0.66339   0.45456   0.07568   0.00000  Uiso   1.00
C257   C     0.40796   0.48236   0.41443   0.00000  Uiso   1.00
C258   C     0.59204   0.51764   0.08557   0.00000  Uiso   1.00
C259   C     0.43420   0.50273   0.46033   0.00000  Uiso   1.00
C260   C     0.65204   0.40203   0.25059   0.00000  Uiso   1.00
C261   C     0.56580   0.49727   0.03967   0.00000  Uiso   1.00
C262   C     0.40392   0.53661   0.49195   0.00000  Uiso   1.00
C263   C     0.59608   0.46340   0.00805   0.00000  Uiso   1.00
C264   C     0.48959   0.49184   0.47539   0.00000  Uiso   1.00
C265   C     0.51041   0.50816   0.02461   0.00000  Uiso   1.00
C266   C     0.49590   0.45499   0.19293   0.00000  Uiso   1.00
C267   C     0.45785   0.40575   0.17870   0.00000  Uiso   1.00
C268   C     0.50410   0.54501   0.30707   0.00000  Uiso   1.00
C269   C     0.54215   0.59425   0.32130   0.00000  Uiso   1.00
C270   C     0.47402   0.53183   0.05792   0.00000  Uiso   1.00
C271   C     0.52599   0.46818   0.44208   0.00000  Uiso   1.00
C272   C     0.42296   0.54878   0.04120   0.00000  Uiso   1.00
C273   C     0.57704   0.45122   0.45880   0.00000  Uiso   1.00
C274   C     0.35581   0.65263   0.25118   0.00000  Uiso   1.00
C275   C     0.64419   0.34737   0.24882   0.00000  Uiso   1.00
C276   C     0.35420   0.50373   0.34108   0.00000  Uiso   1.00
H277   H     0.39790   0.57060   0.06701   0.00000  Uiso   1.00
H278   H     0.60152   0.66367   0.24436   0.00000  Uiso   1.00
H279   H     0.45781   0.38117   0.20978   0.00000  Uiso   1.00
H280   H     0.41489   0.41501   0.16732   0.00000  Uiso   1.00
H281   H     0.47430   0.38249   0.14666   0.00000  Uiso   1.00
H282   H     0.49547   0.47968   0.16182   0.00000  Uiso   1.00
H283   H     0.53697   0.43939   0.19863   0.00000  Uiso   1.00
H284   H     0.58511   0.58500   0.33267   0.00000  Uiso   1.00
H285   H     0.54218   0.61884   0.29021   0.00000  Uiso   1.00
H286   H     0.52570   0.61751   0.35334   0.00000  Uiso   1.00
H287   H     0.46303   0.56061   0.30137   0.00000  Uiso   1.00
H288   H     0.60210   0.42940   0.43299   0.00000  Uiso   1.00
H289   H     0.50453   0.52032   0.33818   0.00000  Uiso   1.00
H290   H     0.36504   0.43482   0.09061   0.00000  Uiso   1.00
H291   H     0.63496   0.56518   0.40939   0.00000  Uiso   1.00
H292   H     0.66475   0.58339   0.49751   0.00000  Uiso   1.00
H293   H     0.33526   0.41662   0.00249   0.00000  Uiso   1.00
H294   H     0.48453   0.53779   0.09713   0.00000  Uiso   1.00
H295   H     0.51547   0.46222   0.40287   0.00000  Uiso   1.00
H296   H     0.39848   0.33633   0.25564   0.00000  Uiso   1.00
I297   I     0.58422   0.59724   0.11672   0.00000  Uiso   1.00
I298   I     0.41578   0.40276   0.38329   0.00000  Uiso   1.00
N299   N     0.48029   0.48550   0.23740   0.00000  Uiso   1.00
N300   N     0.51971   0.51450   0.26261   0.00000  Uiso   1.00
O301   O     0.63052   0.57964   0.25310   0.00000  Uiso   1.00
O302   O     0.36948   0.42036   0.24691   0.00000  Uiso   1.00
O303   O     0.39155   0.57035   0.24502   0.00000  Uiso   1.00
O304   O     0.60845   0.42965   0.25499   0.00000  Uiso   1.00
O305   O     0.63662   0.50730   0.32247   0.00000  Uiso   1.00
O306   O     0.36338   0.49270   0.17753   0.00000  Uiso   1.00
O307   O     0.39764   0.49801   0.31439   0.00000  Uiso   1.00
O308   O     0.60236   0.50199   0.18561   0.00000  Uiso   1.00
Zn309  Zn    0.60366   0.50621   0.25540   0.00000  Uiso   1.00
Zn310  Zn    0.39634   0.49379   0.24461   0.00000  Uiso   1.00
C311   C     0.68130   0.59797   0.24941   0.00000  Uiso   1.00
C312   C     0.97913   0.49627   0.15892   0.00000  Uiso   1.00
C313   C     0.69771   0.50896   0.39436   0.00000  Uiso   1.00
C314   C     0.96896   0.49104   0.10564   0.00000  Uiso   1.00
C315   C     0.68776   0.55681   0.47397   0.00000  Uiso   1.00
C316   C     0.97891   0.44319   0.02603   0.00000  Uiso   1.00
C317   C     0.66994   0.54544   0.42432   0.00000  Uiso   1.00
C318   C     0.99672   0.45456   0.07568   0.00000  Uiso   1.00
C319   C     0.74130   0.48236   0.41443   0.00000  Uiso   1.00
C320   C     0.92537   0.51764   0.08557   0.00000  Uiso   1.00
C321   C     0.76754   0.50273   0.46033   0.00000  Uiso   1.00
C322   C     0.98537   0.40203   0.25059   0.00000  Uiso   1.00
C323   C     0.89913   0.49727   0.03967   0.00000  Uiso   1.00
C324   C     0.73726   0.53661   0.49195   0.00000  Uiso   1.00
C325   C     0.92941   0.46340   0.00805   0.00000  Uiso   1.00
C326   C     0.82293   0.49184   0.47539   0.00000  Uiso   1.00
C327   C     0.84374   0.50816   0.02461   0.00000  Uiso   1.00
C328   C     0.82924   0.45499   0.19293   0.00000  Uiso   1.00
C329   C     0.79118   0.40575   0.17870   0.00000  Uiso   1.00
C330   C     0.83743   0.54501   0.30707   0.00000  Uiso   1.00
C331   C     0.87548   0.59425   0.32130   0.00000  Uiso   1.00
C332   C     0.80735   0.53183   0.05792   0.00000  Uiso   1.00
C333   C     0.85932   0.46818   0.44208   0.00000  Uiso   1.00
C334   C     0.75629   0.54878   0.04120   0.00000  Uiso   1.00
C335   C     0.91038   0.45122   0.45880   0.00000  Uiso   1.00
C336   C     0.68915   0.65263   0.25118   0.00000  Uiso   1.00
C337   C     0.97752   0.34737   0.24882   0.00000  Uiso   1.00
C338   C     0.68754   0.50373   0.34108   0.00000  Uiso   1.00
H339   H     0.73124   0.57060   0.06701   0.00000  Uiso   1.00
H340   H     0.93485   0.66367   0.24436   0.00000  Uiso   1.00
H341   H     0.79114   0.38117   0.20978   0.00000  Uiso   1.00
H342   H     0.74823   0.41501   0.16732   0.00000  Uiso   1.00
H343   H     0.80763   0.38249   0.14666   0.00000  Uiso   1.00
H344   H     0.82881   0.47968   0.16182   0.00000  Uiso   1.00
H345   H     0.87030   0.43939   0.19863   0.00000  Uiso   1.00
H346   H     0.91844   0.58500   0.33267   0.00000  Uiso   1.00
H347   H     0.87552   0.61884   0.29021   0.00000  Uiso   1.00
H348   H     0.85903   0.61751   0.35334   0.00000  Uiso   1.00
H349   H     0.79636   0.56061   0.30137   0.00000  Uiso   1.00
H350   H     0.93543   0.42940   0.43299   0.00000  Uiso   1.00
H351   H     0.83787   0.52032   0.33818   0.00000  Uiso   1.00
H352   H     0.69837   0.43482   0.09061   0.00000  Uiso   1.00
H353   H     0.96830   0.56518   0.40939   0.00000  Uiso   1.00
H354   H     0.99808   0.58339   0.49751   0.00000  Uiso   1.00
H355   H     0.66859   0.41662   0.00249   0.00000  Uiso   1.00
H356   H     0.81786   0.53779   0.09713   0.00000  Uiso   1.00
H357   H     0.84880   0.46222   0.40287   0.00000  Uiso   1.00
H358   H     0.73182   0.33633   0.25564   0.00000  Uiso   1.00
I359   I     0.91755   0.59724   0.11672   0.00000  Uiso   1.00
I360   I     0.74912   0.40276   0.38329   0.00000  Uiso   1.00
N361   N     0.81362   0.48550   0.23740   0.00000  Uiso   1.00
N362   N     0.85305   0.51450   0.26261   0.00000  Uiso   1.00
O363   O     0.96386   0.57964   0.25310   0.00000  Uiso   1.00
O364   O     0.70281   0.42036   0.24691   0.00000  Uiso   1.00
O365   O     0.72488   0.57035   0.24502   0.00000  Uiso   1.00
O366   O     0.94178   0.42965   0.25499   0.00000  Uiso   1.00
O367   O     0.96995   0.50730   0.32247   0.00000  Uiso   1.00
O368   O     0.69672   0.49270   0.17753   0.00000  Uiso   1.00
O369   O     0.73098   0.49801   0.31439   0.00000  Uiso   1.00
O370   O     0.93569   0.50199   0.18561   0.00000  Uiso   1.00
Zn371  Zn    0.93700   0.50621   0.25540   0.00000  Uiso   1.00
Zn372  Zn    0.72967   0.49379   0.24461   0.00000  Uiso   1.00
C373   C     0.01463   0.93130   0.24941   0.00000  Uiso   1.00
C374   C     0.31246   0.82960   0.15892   0.00000  Uiso   1.00
C375   C     0.03104   0.84230   0.39436   0.00000  Uiso   1.00
C376   C     0.30229   0.82437   0.10564   0.00000  Uiso   1.00
C377   C     0.02110   0.89014   0.47397   0.00000  Uiso   1.00
C378   C     0.31224   0.77653   0.02603   0.00000  Uiso   1.00
C379   C     0.00328   0.87877   0.42432   0.00000  Uiso   1.00
C380   C     0.33006   0.78789   0.07568   0.00000  Uiso   1.00
C381   C     0.07463   0.81569   0.41443   0.00000  Uiso   1.00
C382   C     0.25870   0.85097   0.08557   0.00000  Uiso   1.00
C383   C     0.10087   0.83607   0.46033   0.00000  Uiso   1.00
C384   C     0.31871   0.73536   0.25059   0.00000  Uiso   1.00
C385   C     0.23246   0.83060   0.03967   0.00000  Uiso   1.00
C386   C     0.07059   0.86994   0.49195   0.00000  Uiso   1.00
C387   C     0.26274   0.79673   0.00805   0.00000  Uiso   1.00
C388   C     0.15626   0.82518   0.47539   0.00000  Uiso   1.00
C389   C     0.17707   0.84149   0.02461   0.00000  Uiso   1.00
C390   C     0.16257   0.78832   0.19293   0.00000  Uiso   1.00
C391   C     0.12452   0.73909   0.17870   0.00000  Uiso   1.00
C392   C     0.17077   0.87835   0.30707   0.00000  Uiso   1.00
C393   C     0.20881   0.92758   0.32130   0.00000  Uiso   1.00
C394   C     0.14068   0.86516   0.05792   0.00000  Uiso   1.00
C395   C     0.19265   0.80151   0.44208   0.00000  Uiso   1.00
C396   C     0.08963   0.88212   0.04120   0.00000  Uiso   1.00
C397   C     0.24371   0.78455   0.45880   0.00000  Uiso   1.00
C398   C     0.02248   0.98596   0.25118   0.00000  Uiso   1.00
C399   C     0.31086   0.68071   0.24882   0.00000  Uiso   1.00
C400   C     0.02087   0.83707   0.34108   0.00000  Uiso   1.00
H401   H     0.06457   0.90393   0.06701   0.00000  Uiso   1.00
H402   H     0.26818   0.99700   0.24436   0.00000  Uiso   1.00
H403   H     0.12447   0.71450   0.20978   0.00000  Uiso   1.00
H404   H     0.08156   0.74834   0.16732   0.00000  Uiso   1.00
H405   H     0.14097   0.71583   0.14666   0.00000  Uiso   1.00
H406   H     0.16214   0.81301   0.16182   0.00000  Uiso   1.00
H407   H     0.20364   0.77273   0.19863   0.00000  Uiso   1.00
H408   H     0.25178   0.91833   0.33267   0.00000  Uiso   1.00
H409   H     0.20885   0.95217   0.29021   0.00000  Uiso   1.00
H410   H     0.19237   0.95084   0.35334   0.00000  Uiso   1.00
H411   H     0.12970   0.89394   0.30137   0.00000  Uiso   1.00
H412   H     0.26876   0.76274   0.43299   0.00000  Uiso   1.00
H413   H     0.17120   0.85366   0.33818   0.00000  Uiso   1.00
H414   H     0.03170   0.76815   0.09061   0.00000  Uiso   1.00
H415   H     0.30163   0.89852   0.40939   0.00000  Uiso   1.00
H416   H     0.33141   0.91672   0.49751   0.00000  Uiso   1.00
H417   H     0.00192   0.74995   0.00249   0.00000  Uiso   1.00
H418   H     0.15120   0.87112   0.09713   0.00000  Uiso   1.00
H419   H     0.18214   0.79555   0.40287   0.00000  Uiso   1.00
H420   H     0.06515   0.66967   0.25564   0.00000  Uiso   1.00
I421   I     0.25088   0.93057   0.11672   0.00000  Uiso   1.00
I422   I     0.08245   0.73610   0.38329   0.00000  Uiso   1.00
N423   N     0.14695   0.81883   0.23740   0.00000  Uiso   1.00
N424   N     0.18638   0.84784   0.26261   0.00000  Uiso   1.00
O425   O     0.29719   0.91298   0.25310   0.00000  Uiso   1.00
O426   O     0.03614   0.75369   0.24691   0.00000  Uiso   1.00
O427   O     0.05822   0.90368   0.24502   0.00000  Uiso   1.00
O428   O     0.27512   0.76298   0.25499   0.00000  Uiso   1.00
O429   O     0.30328   0.84063   0.32247   0.00000  Uiso   1.00
O430   O     0.03005   0.82603   0.17753   0.00000  Uiso   1.00
O431   O     0.06431   0.83134   0.31439   0.00000  Uiso   1.00
O432   O     0.26902   0.83533   0.18561   0.00000  Uiso   1.00
Zn433  Zn    0.27033   0.83954   0.25540   0.00000  Uiso   1.00
Zn434  Zn    0.06300   0.82713   0.24461   0.00000  Uiso   1.00
C435   C     0.34796   0.93130   0.24941   0.00000  Uiso   1.00
C436   C     0.64580   0.82960   0.15892   0.00000  Uiso   1.00
C437   C     0.36438   0.84230   0.39436   0.00000  Uiso   1.00
C438   C     0.63562   0.82437   0.10564   0.00000  Uiso   1.00
C439   C     0.35443   0.89014   0.47397   0.00000  Uiso   1.00
C440   C     0.64557   0.77653   0.02603   0.00000  Uiso   1.00
C441   C     0.33661   0.87877   0.42432   0.00000  Uiso   1.00
C442   C     0.66339   0.78789   0.07568   0.00000  Uiso   1.00
C443   C     0.40796   0.81569   0.41443   0.00000  Uiso   1.00
C444   C     0.59204   0.85097   0.08557   0.00000  Uiso   1.00
C445   C     0.43420   0.83607   0.46033   0.00000  Uiso   1.00
C446   C     0.65204   0.73536   0.25059   0.00000  Uiso   1.00
C447   C     0.56580   0.83060   0.03967   0.00000  Uiso   1.00
C448   C     0.40392   0.86994   0.49195   0.00000  Uiso   1.00
C449   C     0.59608   0.79673   0.00805   0.00000  Uiso   1.00
C450   C     0.48959   0.82518   0.47539   0.00000  Uiso   1.00
C451   C     0.51041   0.84149   0.02461   0.00000  Uiso   1.00
C452   C     0.49590   0.78832   0.19293   0.00000  Uiso   1.00
C453   C     0.45785   0.73909   0.17870   0.00000  Uiso   1.00
C454   C     0.50410   0.87835   0.30707   0.00000  Uiso   1.00
C455   C     0.54215   0.92758   0.32130   0.00000  Uiso   1.00
C456   C     0.47402   0.86516   0.05792   0.00000  Uiso   1.00
C457   C     0.52599   0.80151   0.44208   0.00000  Uiso   1.00
C458   C     0.42296   0.88212   0.04120   0.00000  Uiso   1.00
C459   C     0.57704   0.78455   0.45880   0.00000  Uiso   1.00
C460   C     0.35581   0.98596   0.25118   0.00000  Uiso   1.00
C461   C     0.64419   0.68071   0.24882   0.00000  Uiso   1.00
C462   C     0.35420   0.83707   0.34108   0.00000  Uiso   1.00
H463   H     0.39790   0.90393   0.06701   0.00000  Uiso   1.00
H464   H     0.60152   0.99700   0.24436   0.00000  Uiso   1.00
H465   H     0.45781   0.71450   0.20978   0.00000  Uiso   1.00
H466   H     0.41489   0.74834   0.16732   0.00000  Uiso   1.00
H467   H     0.47430   0.71583   0.14666   0.00000  Uiso   1.00
H468   H     0.49547   0.81301   0.16182   0.00000  Uiso   1.00
H469   H     0.53697   0.77273   0.19863   0.00000  Uiso   1.00
H470   H     0.58511   0.91833   0.33267   0.00000  Uiso   1.00
H471   H     0.54218   0.95217   0.29021   0.00000  Uiso   1.00
H472   H     0.52570   0.95084   0.35334   0.00000  Uiso   1.00
H473   H     0.46303   0.89394   0.30137   0.00000  Uiso   1.00
H474   H     0.60210   0.76274   0.43299   0.00000  Uiso   1.00
H475   H     0.50453   0.85366   0.33818   0.00000  Uiso   1.00
H476   H     0.36504   0.76815   0.09061   0.00000  Uiso   1.00
H477   H     0.63496   0.89852   0.40939   0.00000  Uiso   1.00
H478   H     0.66475   0.91672   0.49751   0.00000  Uiso   1.00
H479   H     0.33526   0.74995   0.00249   0.00000  Uiso   1.00
H480   H     0.48453   0.87112   0.09713   0.00000  Uiso   1.00
H481   H     0.51547   0.79555   0.40287   0.00000  Uiso   1.00
H482   H     0.39848   0.66967   0.25564   0.00000  Uiso   1.00
I483   I     0.58422   0.93057   0.11672   0.00000  Uiso   1.00
I484   I     0.41578   0.73610   0.38329   0.00000  Uiso   1.00
N485   N     0.48029   0.81883   0.23740   0.00000  Uiso   1.00
N486   N     0.51971   0.84784   0.26261   0.00000  Uiso   1.00
O487   O     0.63052   0.91298   0.25310   0.00000  Uiso   1.00
O488   O     0.36948   0.75369   0.24691   0.00000  Uiso   1.00
O489   O     0.39155   0.90368   0.24502   0.00000  Uiso   1.00
O490   O     0.60845   0.76298   0.25499   0.00000  Uiso   1.00
O491   O     0.63662   0.84063   0.32247   0.00000  Uiso   1.00
O492   O     0.36338   0.82603   0.17753   0.00000  Uiso   1.00
O493   O     0.39764   0.83134   0.31439   0.00000  Uiso   1.00
O494   O     0.60236   0.83533   0.18561   0.00000  Uiso   1.00
Zn495  Zn    0.60366   0.83954   0.25540   0.00000  Uiso   1.00
Zn496  Zn    0.39634   0.82713   0.24461   0.00000  Uiso   1.00
C497   C     0.68130   0.93130   0.24941   0.00000  Uiso   1.00
C498   C     0.97913   0.82960   0.15892   0.00000  Uiso   1.00
C499   C     0.69771   0.84230   0.39436   0.00000  Uiso   1.00
C500   C     0.96896   0.82437   0.10564   0.00000  Uiso   1.00
C501   C     0.68776   0.89014   0.47397   0.00000  Uiso   1.00
C502   C     0.97891   0.77653   0.02603   0.00000  Uiso   1.00
C503   C     0.66994   0.87877   0.42432   0.00000  Uiso   1.00
C504   C     0.99672   0.78789   0.07568   0.00000  Uiso   1.00
C505   C     0.74130   0.81569   0.41443   0.00000  Uiso   1.00
C506   C     0.92537   0.85097   0.08557   0.00000  Uiso   1.00
C507   C     0.76754   0.83607   0.46033   0.00000  Uiso   1.00
C508   C     0.98537   0.73536   0.25059   0.00000  Uiso   1.00
C509   C     0.89913   0.83060   0.03967   0.00000  Uiso   1.00
C510   C     0.73726   0.86994   0.49195   0.00000  Uiso   1.00
C511   C     0.92941   0.79673   0.00805   0.00000  Uiso   1.00
C512   C     0.82293   0.82518   0.47539   0.00000  Uiso   1.00
C513   C     0.84374   0.84149   0.02461   0.00000  Uiso   1.00
C514   C     0.82924   0.78832   0.19293   0.00000  Uiso   1.00
C515   C     0.79118   0.73909   0.17870   0.00000  Uiso   1.00
C516   C     0.83743   0.87835   0.30707   0.00000  Uiso   1.00
C517   C     0.87548   0.92758   0.32130   0.00000  Uiso   1.00
C518   C     0.80735   0.86516   0.05792   0.00000  Uiso   1.00
C519   C     0.85932   0.80151   0.44208   0.00000  Uiso   1.00
C520   C     0.75629   0.88212   0.04120   0.00000  Uiso   1.00
C521   C     0.91038   0.78455   0.45880   0.00000  Uiso   1.00
C522   C     0.68915   0.98596   0.25118   0.00000  Uiso   1.00
C523   C     0.97752   0.68071   0.24882   0.00000  Uiso   1.00
C524   C     0.68754   0.83707   0.34108   0.00000  Uiso   1.00
H525   H     0.73124   0.90393   0.06701   0.00000  Uiso   1.00
H526   H     0.93485   0.99700   0.24436   0.00000  Uiso   1.00
H527   H     0.79114   0.71450   0.20978   0.00000  Uiso   1.00
H528   H     0.74823   0.74834   0.16732   0.00000  Uiso   1.00
H529   H     0.80763   0.71583   0.14666   0.00000  Uiso   1.00
H530   H     0.82881   0.81301   0.16182   0.00000  Uiso   1.00
H531   H     0.87030   0.77273   0.19863   0.00000  Uiso   1.00
H532   H     0.91844   0.91833   0.33267   0.00000  Uiso   1.00
H533   H     0.87552   0.95217   0.29021   0.00000  Uiso   1.00
H534   H     0.85903   0.95084   0.35334   0.00000  Uiso   1.00
H535   H     0.79636   0.89394   0.30137   0.00000  Uiso   1.00
H536   H     0.93543   0.76274   0.43299   0.00000  Uiso   1.00
H537   H     0.83787   0.85366   0.33818   0.00000  Uiso   1.00
H538   H     0.69837   0.76815   0.09061   0.00000  Uiso   1.00
H539   H     0.96830   0.89852   0.40939   0.00000  Uiso   1.00
H540   H     0.99808   0.91672   0.49751   0.00000  Uiso   1.00
H541   H     0.66859   0.74995   0.00249   0.00000  Uiso   1.00
H542   H     0.81786   0.87112   0.09713   0.00000  Uiso   1.00
H543   H     0.84880   0.79555   0.40287   0.00000  Uiso   1.00
H544   H     0.73182   0.66967   0.25564   0.00000  Uiso   1.00
I545   I     0.91755   0.93057   0.11672   0.00000  Uiso   1.00
I546   I     0.74912   0.73610   0.38329   0.00000  Uiso   1.00
N547   N     0.81362   0.81883   0.23740   0.00000  Uiso   1.00
N548   N     0.85305   0.84784   0.26261   0.00000  Uiso   1.00
O549   O     0.96386   0.91298   0.25310   0.00000  Uiso   1.00
O550   O     0.70281   0.75369   0.24691   0.00000  Uiso   1.00
O551   O     0.72488   0.90368   0.24502   0.00000  Uiso   1.00
O552   O     0.94178   0.76298   0.25499   0.00000  Uiso   1.00
O553   O     0.96995   0.84063   0.32247   0.00000  Uiso   1.00
O554   O     0.69672   0.82603   0.17753   0.00000  Uiso   1.00
O555   O     0.73098   0.83134   0.31439   0.00000  Uiso   1.00
O556   O     0.93569   0.83533   0.18561   0.00000  Uiso   1.00
Zn557  Zn    0.93700   0.83954   0.25540   0.00000  Uiso   1.00
Zn558  Zn    0.72967   0.82713   0.24461   0.00000  Uiso   1.00
C559   C     0.01463   0.26463   0.74941   0.00000  Uiso   1.00
C560   C     0.31246   0.16293   0.65892   0.00000  Uiso   1.00
C561   C     0.03104   0.17563   0.89436   0.00000  Uiso   1.00
C562   C     0.30229   0.15771   0.60564   0.00000  Uiso   1.00
C563   C     0.02110   0.22347   0.97397   0.00000  Uiso   1.00
C564   C     0.31224   0.10986   0.52603   0.00000  Uiso   1.00
C565   C     0.00328   0.21211   0.92432   0.00000  Uiso   1.00
C566   C     0.33006   0.12123   0.57568   0.00000  Uiso   1.00
C567   C     0.07463   0.14903   0.91443   0.00000  Uiso   1.00
C568   C     0.25870   0.18431   0.58557   0.00000  Uiso   1.00
C569   C     0.10087   0.16940   0.96033   0.00000  Uiso   1.00
C570   C     0.31871   0.06870   0.75059   0.00000  Uiso   1.00
C571   C     0.23246   0.16394   0.53967   0.00000  Uiso   1.00
C572   C     0.07059   0.20327   0.99195   0.00000  Uiso   1.00
C573   C     0.26274   0.13006   0.50805   0.00000  Uiso   1.00
C574   C     0.15626   0.15851   0.97539   0.00000  Uiso   1.00
C575   C     0.17707   0.17483   0.52461   0.00000  Uiso   1.00
C576   C     0.16257   0.12165   0.69293   0.00000  Uiso   1.00
C577   C     0.12452   0.07242   0.67870   0.00000  Uiso   1.00
C578   C     0.17077   0.21168   0.80707   0.00000  Uiso   1.00
C579   C     0.20881   0.26091   0.82130   0.00000  Uiso   1.00
C580   C     0.14068   0.19849   0.55792   0.00000  Uiso   1.00
C581   C     0.19265   0.13484   0.94208   0.00000  Uiso   1.00
C582   C     0.08963   0.21545   0.54120   0.00000  Uiso   1.00
C583   C     0.24371   0.11789   0.95880   0.00000  Uiso   1.00
C584   C     0.02248   0.31929   0.75118   0.00000  Uiso   1.00
C585   C     0.31086   0.01404   0.74882   0.00000  Uiso   1.00
C586   C     0.02087   0.17040   0.84108   0.00000  Uiso   1.00
H587   H     0.06457   0.23727   0.56701   0.00000  Uiso   1.00
H588   H     0.26818   0.33033   0.74436   0.00000  Uiso   1.00
H589   H     0.12447   0.04783   0.70978   0.00000  Uiso   1.00
H590   H     0.08156   0.08167   0.66732   0.00000  Uiso   1.00
H591   H     0.14097   0.04916   0.64666   0.00000  Uiso   1.00
H592   H     0.16214   0.14635   0.66182   0.00000  Uiso   1.00
H593   H     0.20364   0.10606   0.69863   0.00000  Uiso   1.00
H594   H     0.25178   0.25167   0.83267   0.00000  Uiso   1.00
H595   H     0.20885   0.28550   0.79021   0.00000  Uiso   1.00
H596   H     0.19237   0.28417   0.85334   0.00000  Uiso   1.00
H597   H     0.12970   0.22727   0.80137   0.00000  Uiso   1.00
H598   H     0.26876   0.09607   0.93299   0.00000  Uiso   1.00
H599   H     0.17120   0.18699   0.83818   0.00000  Uiso   1.00
H600   H     0.03170   0.10149   0.59061   0.00000  Uiso   1.00
H601   H     0.30163   0.23185   0.90939   0.00000  Uiso   1.00
H602   H     0.33141   0.25005   0.99751   0.00000  Uiso   1.00
H603   H     0.00192   0.08328   0.50249   0.00000  Uiso   1.00
H604   H     0.15120   0.20445   0.59713   0.00000  Uiso   1.00
H605   H     0.18214   0.12888   0.90287   0.00000  Uiso   1.00
H606   H     0.06515   0.00300   0.75564   0.00000  Uiso   1.00
I607   I     0.25088   0.26390   0.61672   0.00000  Uiso   1.00
I608   I     0.08245   0.06943   0.88329   0.00000  Uiso   1.00
N609   N     0.14695   0.15216   0.73740   0.00000  Uiso   1.00
N610   N     0.18638   0.18117   0.76261   0.00000  Uiso   1.00
O611   O     0.29719   0.24631   0.75310   0.00000  Uiso   1.00
O612   O     0.03614   0.08702   0.74691   0.00000  Uiso   1.00
O613   O     0.05822   0.23702   0.74502   0.00000  Uiso   1.00
O614   O     0.27512   0.09632   0.75499   0.00000  Uiso   1.00
O615   O     0.30328   0.17397   0.82247   0.00000  Uiso   1.00
O616   O     0.03005   0.15937   0.67753   0.00000  Uiso   1.00
O617   O     0.06431   0.16467   0.81439   0.00000  Uiso   1.00
O618   O     0.26902   0.16866   0.68561   0.00000  Uiso   1.00
Zn619  Zn    0.27033   0.17287   0.75540   0.00000  Uiso   1.00
Zn620  Zn    0.06300   0.16046   0.74461   0.00000  Uiso   1.00
C621   C     0.34796   0.26463   0.74941   0.00000  Uiso   1.00
C622   C     0.64580   0.16293   0.65892   0.00000  Uiso   1.00
C623   C     0.36438   0.17563   0.89436   0.00000  Uiso   1.00
C624   C     0.63562   0.15771   0.60564   0.00000  Uiso   1.00
C625   C     0.35443   0.22347   0.97397   0.00000  Uiso   1.00
C626   C     0.64557   0.10986   0.52603   0.00000  Uiso   1.00
C627   C     0.33661   0.21211   0.92432   0.00000  Uiso   1.00
C628   C     0.66339   0.12123   0.57568   0.00000  Uiso   1.00
C629   C     0.40796   0.14903   0.91443   0.00000  Uiso   1.00
C630   C     0.59204   0.18431   0.58557   0.00000  Uiso   1.00
C631   C     0.43420   0.16940   0.96033   0.00000  Uiso   1.00
C632   C     0.65204   0.06870   0.75059   0.00000  Uiso   1.00
C633   C     0.56580   0.16394   0.53967   0.00000  Uiso   1.00
C634   C     0.40392   0.20327   0.99195   0.00000  Uiso   1.00
C635   C     0.59608   0.13006   0.50805   0.00000  Uiso   1.00
C636   C     0.48959   0.15851   0.97539   0.00000  Uiso   1.00
C637   C     0.51041   0.17483   0.52461   0.00000  Uiso   1.00
C638   C     0.49590   0.12165   0.69293   0.00000  Uiso   1.00
C639   C     0.45785   0.07242   0.67870   0.00000  Uiso   1.00
C640   C     0.50410   0.21168   0.80707   0.00000  Uiso   1.00
C641   C     0.54215   0.26091   0.82130   0.00000  Uiso   1.00
C642   C     0.47402   0.19849   0.55792   0.00000  Uiso   1.00
C643   C     0.52599   0.13484   0.94208   0.00000  Uiso   1.00
C644   C     0.42296   0.21545   0.54120   0.00000  Uiso   1.00
C645   C     0.57704   0.11789   0.95880   0.00000  Uiso   1.00
C646   C     0.35581   0.31929   0.75118   0.00000  Uiso   1.00
C647   C     0.64419   0.01404   0.74882   0.00000  Uiso   1.00
C648   C     0.35420   0.17040   0.84108   0.00000  Uiso   1.00
H649   H     0.39790   0.23727   0.56701   0.00000  Uiso   1.00
H650   H     0.60152   0.33033   0.74436   0.00000  Uiso   1.00
H651   H     0.45781   0.04783   0.70978   0.00000  Uiso   1.00
H652   H     0.41489   0.08167   0.66732   0.00000  Uiso   1.00
H653   H     0.47430   0.04916   0.64666   0.00000  Uiso   1.00
H654   H     0.49547   0.14635   0.66182   0.00000  Uiso   1.00
H655   H     0.53697   0.10606   0.69863   0.00000  Uiso   1.00
H656   H     0.58511   0.25167   0.83267   0.00000  Uiso   1.00
H657   H     0.54218   0.28550   0.79021   0.00000  Uiso   1.00
H658   H     0.52570   0.28417   0.85334   0.00000  Uiso   1.00
H659   H     0.46303   0.22727   0.80137   0.00000  Uiso   1.00
H660   H     0.60210   0.09607   0.93299   0.00000  Uiso   1.00
H661   H     0.50453   0.18699   0.83818   0.00000  Uiso   1.00
H662   H     0.36504   0.10149   0.59061   0.00000  Uiso   1.00
H663   H     0.63496   0.23185   0.90939   0.00000  Uiso   1.00
H664   H     0.66475   0.25005   0.99751   0.00000  Uiso   1.00
H665   H     0.33526   0.08328   0.50249   0.00000  Uiso   1.00
H666   H     0.48453   0.20445   0.59713   0.00000  Uiso   1.00
H667   H     0.51547   0.12888   0.90287   0.00000  Uiso   1.00
H668   H     0.39848   0.00300   0.75564   0.00000  Uiso   1.00
I669   I     0.58422   0.26390   0.61672   0.00000  Uiso   1.00
I670   I     0.41578   0.06943   0.88329   0.00000  Uiso   1.00
N671   N     0.48029   0.15216   0.73740   0.00000  Uiso   1.00
N672   N     0.51971   0.18117   0.76261   0.00000  Uiso   1.00
O673   O     0.63052   0.24631   0.75310   0.00000  Uiso   1.00
O674   O     0.36948   0.08702   0.74691   0.00000  Uiso   1.00
O675   O     0.39155   0.23702   0.74502   0.00000  Uiso   1.00
O676   O     0.60845   0.09632   0.75499   0.00000  Uiso   1.00
O677   O     0.63662   0.17397   0.82247   0.00000  Uiso   1.00
O678   O     0.36338   0.15937   0.67753   0.00000  Uiso   1.00
O679   O     0.39764   0.16467   0.81439   0.00000  Uiso   1.00
O680   O     0.60236   0.16866   0.68561   0.00000  Uiso   1.00
Zn681  Zn    0.60366   0.17287   0.75540   0.00000  Uiso   1.00
Zn682  Zn    0.39634   0.16046   0.74461   0.00000  Uiso   1.00
C683   C     0.68130   0.26463   0.74941   0.00000  Uiso   1.00
C684   C     0.97913   0.16293   0.65892   0.00000  Uiso   1.00
C685   C     0.69771   0.17563   0.89436   0.00000  Uiso   1.00
C686   C     0.96896   0.15771   0.60564   0.00000  Uiso   1.00
C687   C     0.68776   0.22347   0.97397   0.00000  Uiso   1.00
C688   C     0.97891   0.10986   0.52603   0.00000  Uiso   1.00
C689   C     0.66994   0.21211   0.92432   0.00000  Uiso   1.00
C690   C     0.99672   0.12123   0.57568   0.00000  Uiso   1.00
C691   C     0.74130   0.14903   0.91443   0.00000  Uiso   1.00
C692   C     0.92537   0.18431   0.58557   0.00000  Uiso   1.00
C693   C     0.76754   0.16940   0.96033   0.00000  Uiso   1.00
C694   C     0.98537   0.06870   0.75059   0.00000  Uiso   1.00
C695   C     0.89913   0.16394   0.53967   0.00000  Uiso   1.00
C696   C     0.73726   0.20327   0.99195   0.00000  Uiso   1.00
C697   C     0.92941   0.13006   0.50805   0.00000  Uiso   1.00
C698   C     0.82293   0.15851   0.97539   0.00000  Uiso   1.00
C699   C     0.84374   0.17483   0.52461   0.00000  Uiso   1.00
C700   C     0.82924   0.12165   0.69293   0.00000  Uiso   1.00
C701   C     0.79118   0.07242   0.67870   0.00000  Uiso   1.00
C702   C     0.83743   0.21168   0.80707   0.00000  Uiso   1.00
C703   C     0.87548   0.26091   0.82130   0.00000  Uiso   1.00
C704   C     0.80735   0.19849   0.55792   0.00000  Uiso   1.00
C705   C     0.85932   0.13484   0.94208   0.00000  Uiso   1.00
C706   C     0.75629   0.21545   0.54120   0.00000  Uiso   1.00
C707   C     0.91038   0.11789   0.95880   0.00000  Uiso   1.00
C708   C     0.68915   0.31929   0.75118   0.00000  Uiso   1.00
C709   C     0.97752   0.01404   0.74882   0.00000  Uiso   1.00
C710   C     0.68754   0.17040   0.84108   0.00000  Uiso   1.00
H711   H     0.73124   0.23727   0.56701   0.00000  Uiso   1.00
H712   H     0.93485   0.33033   0.74436   0.00000  Uiso   1.00
H713   H     0.79114   0.04783   0.70978   0.00000  Uiso   1.00
H714   H     0.74823   0.08167   0.66732   0.00000  Uiso   1.00
H715   H     0.80763   0.04916   0.64666   0.00000  Uiso   1.00
H716   H     0.82881   0.14635   0.66182   0.00000  Uiso   1.00
H717   H     0.87030   0.10606   0.69863   0.00000  Uiso   1.00
H718   H     0.91844   0.25167   0.83267   0.00000  Uiso   1.00
H719   H     0.87552   0.28550   0.79021   0.00000  Uiso   1.00
H720   H     0.85903   0.28417   0.85334   0.00000  Uiso   1.00
H721   H     0.79636   0.22727   0.80137   0.00000  Uiso   1.00
H722   H     0.93543   0.09607   0.93299   0.00000  Uiso   1.00
H723   H     0.83787   0.18699   0.83818   0.00000  Uiso   1.00
H724   H     0.69837   0.10149   0.59061   0.00000  Uiso   1.00
H725   H     0.96830   0.23185   0.90939   0.00000  Uiso   1.00
H726   H     0.99808   0.25005   0.99751   0.00000  Uiso   1.00
H727   H     0.66859   0.08328   0.50249   0.00000  Uiso   1.00
H728   H     0.81786   0.20445   0.59713   0.00000  Uiso   1.00
H729   H     0.84880   0.12888   0.90287   0.00000  Uiso   1.00
H730   H     0.73182   0.00300   0.75564   0.00000  Uiso   1.00
I731   I     0.91755   0.26390   0.61672   0.00000  Uiso   1.00
I732   I     0.74912   0.06943   0.88329   0.00000  Uiso   1.00
N733   N     0.81362   0.15216   0.73740   0.00000  Uiso   1.00
N734   N     0.85305   0.18117   0.76261   0.00000  Uiso   1.00
O735   O     0.96386   0.24631   0.75310   0.00000  Uiso   1.00
O736   O     0.70281   0.08702   0.74691   0.00000  Uiso   1.00
O737   O     0.72488   0.23702   0.74502   0.00000  Uiso   1.00
O738   O     0.94178   0.09632   0.75499   0.00000  Uiso   1.00
O739   O     0.96995   0.17397   0.82247   0.00000  Uiso   1.00
O740   O     0.69672   0.15937   0.67753   0.00000  Uiso   1.00
O741   O     0.73098   0.16467   0.81439   0.00000  Uiso   1.00
O742   O     0.93569   0.16866   0.68561   0.00000  Uiso   1.00
Zn743  Zn    0.93700   0.17287   0.75540   0.00000  Uiso   1.00
Zn744  Zn    0.72967   0.16046   0.74461   0.00000  Uiso   1.00
C745   C     0.01463   0.59797   0.74941   0.00000  Uiso   1.00
C746   C     0.31246   0.49627   0.65892   0.00000  Uiso   1.00
C747   C     0.03104   0.50896   0.89436   0.00000  Uiso   1.00
C748   C     0.30229   0.49104   0.60564   0.00000  Uiso   1.00
C749   C     0.02110   0.55681   0.97397   0.00000  Uiso   1.00
C750   C     0.31224   0.44319   0.52603   0.00000  Uiso   1.00
C751   C     0.00328   0.54544   0.92432   0.00000  Uiso   1.00
C752   C     0.33006   0.45456   0.57568   0.00000  Uiso   1.00
C753   C     0.07463   0.48236   0.91443   0.00000  Uiso   1.00
C754   C     0.25870   0.51764   0.58557   0.00000  Uiso   1.00
C755   C     0.10087   0.50273   0.96033   0.00000  Uiso   1.00
C756   C     0.31871   0.40203   0.75059   0.00000  Uiso   1.00
C757   C     0.23246   0.49727   0.53967   0.00000  Uiso   1.00
C758   C     0.07059   0.53661   0.99195   0.00000  Uiso   1.00
C759   C     0.26274   0.46340   0.50805   0.00000  Uiso   1.00
C760   C     0.15626   0.49184   0.97539   0.00000  Uiso   1.00
C761   C     0.17707   0.50816   0.52461   0.00000  Uiso   1.00
C762   C     0.16257   0.45499   0.69293   0.00000  Uiso   1.00
C763   C     0.12452   0.40575   0.67870   0.00000  Uiso   1.00
C764   C     0.17077   0.54501   0.80707   0.00000  Uiso   1.00
C765   C     0.20881   0.59425   0.82130   0.00000  Uiso   1.00
C766   C     0.14068   0.53183   0.55792   0.00000  Uiso   1.00
C767   C     0.19265   0.46818   0.94208   0.00000  Uiso   1.00
C768   C     0.08963   0.54878   0.54120   0.00000  Uiso   1.00
C769   C     0.24371   0.45122   0.95880   0.00000  Uiso   1.00
C770   C     0.02248   0.65263   0.75118   0.00000  Uiso   1.00
C771   C     0.31086   0.34737   0.74882   0.00000  Uiso   1.00
C772   C     0.02087   0.50373   0.84108   0.00000  Uiso   1.00
H773   H     0.06457   0.57060   0.56701   0.00000  Uiso   1.00
H774   H     0.26818   0.66367   0.74436   0.00000  Uiso   1.00
H775   H     0.12447   0.38117   0.70978   0.00000  Uiso   1.00
H776   H     0.08156   0.41501   0.66732   0.00000  Uiso   1.00
H777   H     0.14097   0.38249   0.64666   0.00000  Uiso   1.00
H778   H     0.16214   0.47968   0.66182   0.00000  Uiso   1.00
H779   H     0.20364   0.43939   0.69863   0.00000  Uiso   1.00
H780   H     0.25178   0.58500   0.83267   0.00000  Uiso   1.00
H781   H     0.20885   0.61884   0.79021   0.00000  Uiso   1.00
H782   H     0.19237   0.61751   0.85334   0.00000  Uiso   1.00
H783   H     0.12970   0.56061   0.80137   0.00000  Uiso   1.00
H784   H     0.26876   0.42940   0.93299   0.00000  Uiso   1.00
H785   H     0.17120   0.52032   0.83818   0.00000  Uiso   1.00
H786   H     0.03170   0.43482   0.59061   0.00000  Uiso   1.00
H787   H     0.30163   0.56518   0.90939   0.00000  Uiso   1.00
H788   H     0.33141   0.58339   0.99751   0.00000  Uiso   1.00
H789   H     0.00192   0.41662   0.50249   0.00000  Uiso   1.00
H790   H     0.15120   0.53779   0.59713   0.00000  Uiso   1.00
H791   H     0.18214   0.46222   0.90287   0.00000  Uiso   1.00
H792   H     0.06515   0.33633   0.75564   0.00000  Uiso   1.00
I793   I     0.25088   0.59724   0.61672   0.00000  Uiso   1.00
I794   I     0.08245   0.40276   0.88329   0.00000  Uiso   1.00
N795   N     0.14695   0.48550   0.73740   0.00000  Uiso   1.00
N796   N     0.18638   0.51450   0.76261   0.00000  Uiso   1.00
O797   O     0.29719   0.57964   0.75310   0.00000  Uiso   1.00
O798   O     0.03614   0.42036   0.74691   0.00000  Uiso   1.00
O799   O     0.05822   0.57035   0.74502   0.00000  Uiso   1.00
O800   O     0.27512   0.42965   0.75499   0.00000  Uiso   1.00
O801   O     0.30328   0.50730   0.82247   0.00000  Uiso   1.00
O802   O     0.03005   0.49270   0.67753   0.00000  Uiso   1.00
O803   O     0.06431   0.49801   0.81439   0.00000  Uiso   1.00
O804   O     0.26902   0.50199   0.68561   0.00000  Uiso   1.00
Zn805  Zn    0.27033   0.50621   0.75540   0.00000  Uiso   1.00
Zn806  Zn    0.06300   0.49379   0.74461   0.00000  Uiso   1.00
C807   C     0.34796   0.59797   0.74941   0.00000  Uiso   1.00
C808   C     0.64580   0.49627   0.65892   0.00000  Uiso   1.00
C809   C     0.36438   0.50896   0.89436   0.00000  Uiso   1.00
C810   C     0.63562   0.49104   0.60564   0.00000  Uiso   1.00
C811   C     0.35443   0.55681   0.97397   0.00000  Uiso   1.00
C812   C     0.64557   0.44319   0.52603   0.00000  Uiso   1.00
C813   C     0.33661   0.54544   0.92432   0.00000  Uiso   1.00
C814   C     0.66339   0.45456   0.57568   0.00000  Uiso   1.00
C815   C     0.40796   0.48236   0.91443   0.00000  Uiso   1.00
C816   C     0.59204   0.51764   0.58557   0.00000  Uiso   1.00
C817   C     0.43420   0.50273   0.96033   0.00000  Uiso   1.00
C818   C     0.65204   0.40203   0.75059   0.00000  Uiso   1.00
C819   C     0.56580   0.49727   0.53967   0.00000  Uiso   1.00
C820   C     0.40392   0.53661   0.99195   0.00000  Uiso   1.00
C821   C     0.59608   0.46340   0.50805   0.00000  Uiso   1.00
C822   C     0.48959   0.49184   0.97539   0.00000  Uiso   1.00
C823   C     0.51041   0.50816   0.52461   0.00000  Uiso   1.00
C824   C     0.49590   0.45499   0.69293   0.00000  Uiso   1.00
C825   C     0.45785   0.40575   0.67870   0.00000  Uiso   1.00
C826   C     0.50410   0.54501   0.80707   0.00000  Uiso   1.00
C827   C     0.54215   0.59425   0.82130   0.00000  Uiso   1.00
C828   C     0.47402   0.53183   0.55792   0.00000  Uiso   1.00
C829   C     0.52599   0.46818   0.94208   0.00000  Uiso   1.00
C830   C     0.42296   0.54878   0.54120   0.00000  Uiso   1.00
C831   C     0.57704   0.45122   0.95880   0.00000  Uiso   1.00
C832   C     0.35581   0.65263   0.75118   0.00000  Uiso   1.00
C833   C     0.64419   0.34737   0.74882   0.00000  Uiso   1.00
C834   C     0.35420   0.50373   0.84108   0.00000  Uiso   1.00
H835   H     0.39790   0.57060   0.56701   0.00000  Uiso   1.00
H836   H     0.60152   0.66367   0.74436   0.00000  Uiso   1.00
H837   H     0.45781   0.38117   0.70978   0.00000  Uiso   1.00
H838   H     0.41489   0.41501   0.66732   0.00000  Uiso   1.00
H839   H     0.47430   0.38249   0.64666   0.00000  Uiso   1.00
H840   H     0.49547   0.47968   0.66182   0.00000  Uiso   1.00
H841   H     0.53697   0.43939   0.69863   0.00000  Uiso   1.00
H842   H     0.58511   0.58500   0.83267   0.00000  Uiso   1.00
H843   H     0.54218   0.61884   0.79021   0.00000  Uiso   1.00
H844   H     0.52570   0.61751   0.85334   0.00000  Uiso   1.00
H845   H     0.46303   0.56061   0.80137   0.00000  Uiso   1.00
H846   H     0.60210   0.42940   0.93299   0.00000  Uiso   1.00
H847   H     0.50453   0.52032   0.83818   0.00000  Uiso   1.00
H848   H     0.36504   0.43482   0.59061   0.00000  Uiso   1.00
H849   H     0.63496   0.56518   0.90939   0.00000  Uiso   1.00
H850   H     0.66475   0.58339   0.99751   0.00000  Uiso   1.00
H851   H     0.33526   0.41662   0.50249   0.00000  Uiso   1.00
H852   H     0.48453   0.53779   0.59713   0.00000  Uiso   1.00
H853   H     0.51547   0.46222   0.90287   0.00000  Uiso   1.00
H854   H     0.39848   0.33633   0.75564   0.00000  Uiso   1.00
I855   I     0.58422   0.59724   0.61672   0.00000  Uiso   1.00
I856   I     0.41578   0.40276   0.88329   0.00000  Uiso   1.00
N857   N     0.48029   0.48550   0.73740   0.00000  Uiso   1.00
N858   N     0.51971   0.51450   0.76261   0.00000  Uiso   1.00
O859   O     0.63052   0.57964   0.75310   0.00000  Uiso   1.00
O860   O     0.36948   0.42036   0.74691   0.00000  Uiso   1.00
O861   O     0.39155   0.57035   0.74502   0.00000  Uiso   1.00
O862   O     0.60845   0.42965   0.75499   0.00000  Uiso   1.00
O863   O     0.63662   0.50730   0.82247   0.00000  Uiso   1.00
O864   O     0.36338   0.49270   0.67753   0.00000  Uiso   1.00
O865   O     0.39764   0.49801   0.81439   0.00000  Uiso   1.00
O866   O     0.60236   0.50199   0.68561   0.00000  Uiso   1.00
Zn867  Zn    0.60366   0.50621   0.75540   0.00000  Uiso   1.00
Zn868  Zn    0.39634   0.49379   0.74461   0.00000  Uiso   1.00
C869   C     0.68130   0.59797   0.74941   0.00000  Uiso   1.00
C870   C     0.97913   0.49627   0.65892   0.00000  Uiso   1.00
C871   C     0.69771   0.50896   0.89436   0.00000  Uiso   1.00
C872   C     0.96896   0.49104   0.60564   0.00000  Uiso   1.00
C873   C     0.68776   0.55681   0.97397   0.00000  Uiso   1.00
C874   C     0.97891   0.44319   0.52603   0.00000  Uiso   1.00
C875   C     0.66994   0.54544   0.92432   0.00000  Uiso   1.00
C876   C     0.99672   0.45456   0.57568   0.00000  Uiso   1.00
C877   C     0.74130   0.48236   0.91443   0.00000  Uiso   1.00
C878   C     0.92537   0.51764   0.58557   0.00000  Uiso   1.00
C879   C     0.76754   0.50273   0.96033   0.00000  Uiso   1.00
C880   C     0.98537   0.40203   0.75059   0.00000  Uiso   1.00
C881   C     0.89913   0.49727   0.53967   0.00000  Uiso   1.00
C882   C     0.73726   0.53661   0.99195   0.00000  Uiso   1.00
C883   C     0.92941   0.46340   0.50805   0.00000  Uiso   1.00
C884   C     0.82293   0.49184   0.97539   0.00000  Uiso   1.00
C885   C     0.84374   0.50816   0.52461   0.00000  Uiso   1.00
C886   C     0.82924   0.45499   0.69293   0.00000  Uiso   1.00
C887   C     0.79118   0.40575   0.67870   0.00000  Uiso   1.00
C888   C     0.83743   0.54501   0.80707   0.00000  Uiso   1.00
C889   C     0.87548   0.59425   0.82130   0.00000  Uiso   1.00
C890   C     0.80735   0.53183   0.55792   0.00000  Uiso   1.00
C891   C     0.85932   0.46818   0.94208   0.00000  Uiso   1.00
C892   C     0.75629   0.54878   0.54120   0.00000  Uiso   1.00
C893   C     0.91038   0.45122   0.95880   0.00000  Uiso   1.00
C894   C     0.68915   0.65263   0.75118   0.00000  Uiso   1.00
C895   C     0.97752   0.34737   0.74882   0.00000  Uiso   1.00
C896   C     0.68754   0.50373   0.84108   0.00000  Uiso   1.00
H897   H     0.73124   0.57060   0.56701   0.00000  Uiso   1.00
H898   H     0.93485   0.66367   0.74436   0.00000  Uiso   1.00
H899   H     0.79114   0.38117   0.70978   0.00000  Uiso   1.00
H900   H     0.74823   0.41501   0.66732   0.00000  Uiso   1.00
H901   H     0.80763   0.38249   0.64666   0.00000  Uiso   1.00
H902   H     0.82881   0.47968   0.66182   0.00000  Uiso   1.00
H903   H     0.87030   0.43939   0.69863   0.00000  Uiso   1.00
H904   H     0.91844   0.58500   0.83267   0.00000  Uiso   1.00
H905   H     0.87552   0.61884   0.79021   0.00000  Uiso   1.00
H906   H     0.85903   0.61751   0.85334   0.00000  Uiso   1.00
H907   H     0.79636   0.56061   0.80137   0.00000  Uiso   1.00
H908   H     0.93543   0.42940   0.93299   0.00000  Uiso   1.00
H909   H     0.83787   0.52032   0.83818   0.00000  Uiso   1.00
H910   H     0.69837   0.43482   0.59061   0.00000  Uiso   1.00
H911   H     0.96830   0.56518   0.90939   0.00000  Uiso   1.00
H912   H     0.99808   0.58339   0.99751   0.00000  Uiso   1.00
H913   H     0.66859   0.41662   0.50249   0.00000  Uiso   1.00
H914   H     0.81786   0.53779   0.59713   0.00000  Uiso   1.00
H915   H     0.84880   0.46222   0.90287   0.00000  Uiso   1.00
H916   H     0.73182   0.33633   0.75564   0.00000  Uiso   1.00
I917   I     0.91755   0.59724   0.61672   0.00000  Uiso   1.00
I918   I     0.74912   0.40276   0.88329   0.00000  Uiso   1.00
N919   N     0.81362   0.48550   0.73740   0.00000  Uiso   1.00
N920   N     0.85305   0.51450   0.76261   0.00000  Uiso   1.00
O921   O     0.96386   0.57964   0.75310   0.00000  Uiso   1.00
O922   O     0.70281   0.42036   0.74691   0.00000  Uiso   1.00
O923   O     0.72488   0.57035   0.74502   0.00000  Uiso   1.00
O924   O     0.94178   0.42965   0.75499   0.00000  Uiso   1.00
O925   O     0.96995   0.50730   0.82247   0.00000  Uiso   1.00
O926   O     0.69672   0.49270   0.67753   0.00000  Uiso   1.00
O927   O     0.73098   0.49801   0.81439   0.00000  Uiso   1.00
O928   O     0.93569   0.50199   0.68561   0.00000  Uiso   1.00
Zn929  Zn    0.93700   0.50621   0.75540   0.00000  Uiso   1.00
Zn930  Zn    0.72967   0.49379   0.74461   0.00000  Uiso   1.00
C931   C     0.01463   0.93130   0.74941   0.00000  Uiso   1.00
C932   C     0.31246   0.82960   0.65892   0.00000  Uiso   1.00
C933   C     0.03104   0.84230   0.89436   0.00000  Uiso   1.00
C934   C     0.30229   0.82437   0.60564   0.00000  Uiso   1.00
C935   C     0.02110   0.89014   0.97397   0.00000  Uiso   1.00
C936   C     0.31224   0.77653   0.52603   0.00000  Uiso   1.00
C937   C     0.00328   0.87877   0.92432   0.00000  Uiso   1.00
C938   C     0.33006   0.78789   0.57568   0.00000  Uiso   1.00
C939   C     0.07463   0.81569   0.91443   0.00000  Uiso   1.00
C940   C     0.25870   0.85097   0.58557   0.00000  Uiso   1.00
C941   C     0.10087   0.83607   0.96033   0.00000  Uiso   1.00
C942   C     0.31871   0.73536   0.75059   0.00000  Uiso   1.00
C943   C     0.23246   0.83060   0.53967   0.00000  Uiso   1.00
C944   C     0.07059   0.86994   0.99195   0.00000  Uiso   1.00
C945   C     0.26274   0.79673   0.50805   0.00000  Uiso   1.00
C946   C     0.15626   0.82518   0.97539   0.00000  Uiso   1.00
C947   C     0.17707   0.84149   0.52461   0.00000  Uiso   1.00
C948   C     0.16257   0.78832   0.69293   0.00000  Uiso   1.00
C949   C     0.12452   0.73909   0.67870   0.00000  Uiso   1.00
C950   C     0.17077   0.87835   0.80707   0.00000  Uiso   1.00
C951   C     0.20881   0.92758   0.82130   0.00000  Uiso   1.00
C952   C     0.14068   0.86516   0.55792   0.00000  Uiso   1.00
C953   C     0.19265   0.80151   0.94208   0.00000  Uiso   1.00
C954   C     0.08963   0.88212   0.54120   0.00000  Uiso   1.00
C955   C     0.24371   0.78455   0.95880   0.00000  Uiso   1.00
C956   C     0.02248   0.98596   0.75118   0.00000  Uiso   1.00
C957   C     0.31086   0.68071   0.74882   0.00000  Uiso   1.00
C958   C     0.02087   0.83707   0.84108   0.00000  Uiso   1.00
H959   H     0.06457   0.90393   0.56701   0.00000  Uiso   1.00
H960   H     0.26818   0.99700   0.74436   0.00000  Uiso   1.00
H961   H     0.12447   0.71450   0.70978   0.00000  Uiso   1.00
H962   H     0.08156   0.74834   0.66732   0.00000  Uiso   1.00
H963   H     0.14097   0.71583   0.64666   0.00000  Uiso   1.00
H964   H     0.16214   0.81301   0.66182   0.00000  Uiso   1.00
H965   H     0.20364   0.77273   0.69863   0.00000  Uiso   1.00
H966   H     0.25178   0.91833   0.83267   0.00000  Uiso   1.00
H967   H     0.20885   0.95217   0.79021   0.00000  Uiso   1.00
H968   H     0.19237   0.95084   0.85334   0.00000  Uiso   1.00
H969   H     0.12970   0.89394   0.80137   0.00000  Uiso   1.00
H970   H     0.26876   0.76274   0.93299   0.00000  Uiso   1.00
H971   H     0.17120   0.85366   0.83818   0.00000  Uiso   1.00
H972   H     0.03170   0.76815   0.59061   0.00000  Uiso   1.00
H973   H     0.30163   0.89852   0.90939   0.00000  Uiso   1.00
H974   H     0.33141   0.91672   0.99751   0.00000  Uiso   1.00
H975   H     0.00192   0.74995   0.50249   0.00000  Uiso   1.00
H976   H     0.15120   0.87112   0.59713   0.00000  Uiso   1.00
H977   H     0.18214   0.79555   0.90287   0.00000  Uiso   1.00
H978   H     0.06515   0.66967   0.75564   0.00000  Uiso   1.00
I979   I     0.25088   0.93057   0.61672   0.00000  Uiso   1.00
I980   I     0.08245   0.73610   0.88329   0.00000  Uiso   1.00
N981   N     0.14695   0.81883   0.73740   0.00000  Uiso   1.00
N982   N     0.18638   0.84784   0.76261   0.00000  Uiso   1.00
O983   O     0.29719   0.91298   0.75310   0.00000  Uiso   1.00
O984   O     0.03614   0.75369   0.74691   0.00000  Uiso   1.00
O985   O     0.05822   0.90368   0.74502   0.00000  Uiso   1.00
O986   O     0.27512   0.76298   0.75499   0.00000  Uiso   1.00
O987   O     0.30328   0.84063   0.82247   0.00000  Uiso   1.00
O988   O     0.03005   0.82603   0.67753   0.00000  Uiso   1.00
O989   O     0.06431   0.83134   0.81439   0.00000  Uiso   1.00
O990   O     0.26902   0.83533   0.68561   0.00000  Uiso   1.00
Zn991  Zn    0.27033   0.83954   0.75540   0.00000  Uiso   1.00
Zn992  Zn    0.06300   0.82713   0.74461   0.00000  Uiso   1.00
C993   C     0.34796   0.93130   0.74941   0.00000  Uiso   1.00
C994   C     0.64580   0.82960   0.65892   0.00000  Uiso   1.00
C995   C     0.36438   0.84230   0.89436   0.00000  Uiso   1.00
C996   C     0.63562   0.82437   0.60564   0.00000  Uiso   1.00
C997   C     0.35443   0.89014   0.97397   0.00000  Uiso   1.00
C998   C     0.64557   0.77653   0.52603   0.00000  Uiso   1.00
C999   C     0.33661   0.87877   0.92432   0.00000  Uiso   1.00
C1000  C     0.66339   0.78789   0.57568   0.00000  Uiso   1.00
C1001  C     0.40796   0.81569   0.91443   0.00000  Uiso   1.00
C1002  C     0.59204   0.85097   0.58557   0.00000  Uiso   1.00
C1003  C     0.43420   0.83607   0.96033   0.00000  Uiso   1.00
C1004  C     0.65204   0.73536   0.75059   0.00000  Uiso   1.00
C1005  C     0.56580   0.83060   0.53967   0.00000  Uiso   1.00
C1006  C     0.40392   0.86994   0.99195   0.00000  Uiso   1.00
C1007  C     0.59608   0.79673   0.50805   0.00000  Uiso   1.00
C1008  C     0.48959   0.82518   0.97539   0.00000  Uiso   1.00
C1009  C     0.51041   0.84149   0.52461   0.00000  Uiso   1.00
C1010  C     0.49590   0.78832   0.69293   0.00000  Uiso   1.00
C1011  C     0.45785   0.73909   0.67870   0.00000  Uiso   1.00
C1012  C     0.50410   0.87835   0.80707   0.00000  Uiso   1.00
C1013  C     0.54215   0.92758   0.82130   0.00000  Uiso   1.00
C1014  C     0.47402   0.86516   0.55792   0.00000  Uiso   1.00
C1015  C     0.52599   0.80151   0.94208   0.00000  Uiso   1.00
C1016  C     0.42296   0.88212   0.54120   0.00000  Uiso   1.00
C1017  C     0.57704   0.78455   0.95880   0.00000  Uiso   1.00
C1018  C     0.35581   0.98596   0.75118   0.00000  Uiso   1.00
C1019  C     0.64419   0.68071   0.74882   0.00000  Uiso   1.00
C1020  C     0.35420   0.83707   0.84108   0.00000  Uiso   1.00
H1021  H     0.39790   0.90393   0.56701   0.00000  Uiso   1.00
H1022  H     0.60152   0.99700   0.74436   0.00000  Uiso   1.00
H1023  H     0.45781   0.71450   0.70978   0.00000  Uiso   1.00
H1024  H     0.41489   0.74834   0.66732   0.00000  Uiso   1.00
H1025  H     0.47430   0.71583   0.64666   0.00000  Uiso   1.00
H1026  H     0.49547   0.81301   0.66182   0.00000  Uiso   1.00
H1027  H     0.53697   0.77273   0.69863   0.00000  Uiso   1.00
H1028  H     0.58511   0.91833   0.83267   0.00000  Uiso   1.00
H1029  H     0.54218   0.95217   0.79021   0.00000  Uiso   1.00
H1030  H     0.52570   0.95084   0.85334   0.00000  Uiso   1.00
H1031  H     0.46303   0.89394   0.80137   0.00000  Uiso   1.00
H1032  H     0.60210   0.76274   0.93299   0.00000  Uiso   1.00
H1033  H     0.50453   0.85366   0.83818   0.00000  Uiso   1.00
H1034  H     0.36504   0.76815   0.59061   0.00000  Uiso   1.00
H1035  H     0.63496   0.89852   0.90939   0.00000  Uiso   1.00
H1036  H     0.66475   0.91672   0.99751   0.00000  Uiso   1.00
H1037  H     0.33526   0.74995   0.50249   0.00000  Uiso   1.00
H1038  H     0.48453   0.87112   0.59713   0.00000  Uiso   1.00
H1039  H     0.51547   0.79555   0.90287   0.00000  Uiso   1.00
H1040  H     0.39848   0.66967   0.75564   0.00000  Uiso   1.00
I1041  I     0.58422   0.93057   0.61672   0.00000  Uiso   1.00
I1042  I     0.41578   0.73610   0.88329   0.00000  Uiso   1.00
N1043  N     0.48029   0.81883   0.73740   0.00000  Uiso   1.00
N1044  N     0.51971   0.84784   0.76261   0.00000  Uiso   1.00
O1045  O     0.63052   0.91298   0.75310   0.00000  Uiso   1.00
O1046  O     0.36948   0.75369   0.74691   0.00000  Uiso   1.00
O1047  O     0.39155   0.90368   0.74502   0.00000  Uiso   1.00
O1048  O     0.60845   0.76298   0.75499   0.00000  Uiso   1.00
O1049  O     0.63662   0.84063   0.82247   0.00000  Uiso   1.00
O1050  O     0.36338   0.82603   0.67753   0.00000  Uiso   1.00
O1051  O     0.39764   0.83134   0.81439   0.00000  Uiso   1.00
O1052  O     0.60236   0.83533   0.68561   0.00000  Uiso   1.00
Zn1053 Zn    0.60366   0.83954   0.75540   0.00000  Uiso   1.00
Zn1054 Zn    0.39634   0.82713   0.74461   0.00000  Uiso   1.00
C1055  C     0.68130   0.93130   0.74941   0.00000  Uiso   1.00
C1056  C     0.97913   0.82960   0.65892   0.00000  Uiso   1.00
C1057  C     0.69771   0.84230   0.89436   0.00000  Uiso   1.00
C1058  C     0.96896   0.82437   0.60564   0.00000  Uiso   1.00
C1059  C     0.68776   0.89014   0.97397   0.00000  Uiso   1.00
C1060  C     0.97891   0.77653   0.52603   0.00000  Uiso   1.00
C1061  C     0.66994   0.87877   0.92432   0.00000  Uiso   1.00
C1062  C     0.99672   0.78789   0.57568   0.00000  Uiso   1.00
C1063  C     0.74130   0.81569   0.91443   0.00000  Uiso   1.00
C1064  C     0.92537   0.85097   0.58557   0.00000  Uiso   1.00
C1065  C     0.76754   0.83607   0.96033   0.00000  Uiso   1.00
C1066  C     0.98537   0.73536   0.75059   0.00000  Uiso   1.00
C1067  C     0.89913   0.83060   0.53967   0.00000  Uiso   1.00
C1068  C     0.73726   0.86994   0.99195   0.00000  Uiso   1.00
C1069  C     0.92941   0.79673   0.50805   0.00000  Uiso   1.00
C1070  C     0.82293   0.82518   0.97539   0.00000  Uiso   1.00
C1071  C     0.84374   0.84149   0.52461   0.00000  Uiso   1.00
C1072  C     0.82924   0.78832   0.69293   0.00000  Uiso   1.00
C1073  C     0.79118   0.73909   0.67870   0.00000  Uiso   1.00
C1074  C     0.83743   0.87835   0.80707   0.00000  Uiso   1.00
C1075  C     0.87548   0.92758   0.82130   0.00000  Uiso   1.00
C1076  C     0.80735   0.86516   0.55792   0.00000  Uiso   1.00
C1077  C     0.85932   0.80151   0.94208   0.00000  Uiso   1.00
C1078  C     0.75629   0.88212   0.54120   0.00000  Uiso   1.00
C1079  C     0.91038   0.78455   0.95880   0.00000  Uiso   1.00
C1080  C     0.68915   0.98596   0.75118   0.00000  Uiso   1.00
C1081  C     0.97752   0.68071   0.74882   0.00000  Uiso   1.00
C1082  C     0.68754   0.83707   0.84108   0.00000  Uiso   1.00
H1083  H     0.73124   0.90393   0.56701   0.00000  Uiso   1.00
H1084  H     0.93485   0.99700   0.74436   0.00000  Uiso   1.00
H1085  H     0.79114   0.71450   0.70978   0.00000  Uiso   1.00
H1086  H     0.74823   0.74834   0.66732   0.00000  Uiso   1.00
H1087  H     0.80763   0.71583   0.64666   0.00000  Uiso   1.00
H1088  H     0.82881   0.81301   0.66182   0.00000  Uiso   1.00
H1089  H     0.87030   0.77273   0.69863   0.00000  Uiso   1.00
H1090  H     0.91844   0.91833   0.83267   0.00000  Uiso   1.00
H1091  H     0.87552   0.95217   0.79021   0.00000  Uiso   1.00
H1092  H     0.85903   0.95084   0.85334   0.00000  Uiso   1.00
H1093  H     0.79636   0.89394   0.80137   0.00000  Uiso   1.00
H1094  H     0.93543   0.76274   0.93299   0.00000  Uiso   1.00
H1095  H     0.83787   0.85366   0.83818   0.00000  Uiso   1.00
H1096  H     0.69837   0.76815   0.59061   0.00000  Uiso   1.00
H1097  H     0.96830   0.89852   0.90939   0.00000  Uiso   1.00
H1098  H     0.99808   0.91672   0.99751   0.00000  Uiso   1.00
H1099  H     0.66859   0.74995   0.50249   0.00000  Uiso   1.00
H1100  H     0.81786   0.87112   0.59713   0.00000  Uiso   1.00
H1101  H     0.84880   0.79555   0.90287   0.00000  Uiso   1.00
H1102  H     0.73182   0.66967   0.75564   0.00000  Uiso   1.00
I1103  I     0.91755   0.93057   0.61672   0.00000  Uiso   1.00
I1104  I     0.74912   0.73610   0.88329   0.00000  Uiso   1.00
N1105  N     0.81362   0.81883   0.73740   0.00000  Uiso   1.00
N1106  N     0.85305   0.84784   0.76261   0.00000  Uiso   1.00
O1107  O     0.96386   0.91298   0.75310   0.00000  Uiso   1.00
O1108  O     0.70281   0.75369   0.74691   0.00000  Uiso   1.00
O1109  O     0.72488   0.90368   0.74502   0.00000  Uiso   1.00
O1110  O     0.94178   0.76298   0.75499   0.00000  Uiso   1.00
O1111  O     0.96995   0.84063   0.82247   0.00000  Uiso   1.00
O1112  O     0.69672   0.82603   0.67753   0.00000  Uiso   1.00
O1113  O     0.73098   0.83134   0.81439   0.00000  Uiso   1.00
O1114  O     0.93569   0.83533   0.68561   0.00000  Uiso   1.00
Zn1115 Zn    0.93700   0.83954   0.75540   0.00000  Uiso   1.00
Zn1116 Zn    0.72967   0.82713   0.74461   0.00000  Uiso   1.00
loop_
_geom_bond_atom_site_label_1
_geom_bond_atom_site_label_2
_geom_bond_distance
_geom_bond_site_symmetry_2
_ccdc_geom_bond_type
C1     O55     1.298   .     A
C1     C26     1.401   .     S
C1     O177    1.294   1_455 S
C2     C4      1.450   .     S
C2     O60     1.312   .     A
C2     O120    1.304   .     S
C3     C9      1.393   .     A
C3     C28     1.450   .     S
C3     C7      1.401   .     A
C4     C8      1.401   .     A
C4     C10     1.393   .     A
C5     C14     1.401   .     A
C5     C7      1.391   .     A
C5     H168    1.084   1_455 S
C6     C8      1.391   .     A
C6     C15     1.401   .     A
C6     H107    1.084   .     S
C7     H167    1.082   1_455 S
C8     H104    1.082   .     S
C9     C11     1.404   .     A
C9     I50     2.153   .     S
C10    I49     2.153   .     S
C10    C13     1.404   .     A
C11    C16     1.416   .     A
C11    C14     1.419   .     A
C12    O56     1.298   .     A
C12    C27     1.401   .     S
C12    O116    1.294   .     S
C13    C17     1.416   .     A
C13    C15     1.419   .     A
C14    C582    1.391   .     S
C15    C583    1.391   1_554 S
C16    C23     1.412   .     A
C16    C575    1.417   .     S
C17    C22     1.412   .     A
C17    C574    1.417   1_554 S
C18    H34     1.110   .     S
C18    N51     1.454   .     S
C18    C19     1.521   .     S
C18    H35     1.090   .     S
C19    H31     1.108   .     S
C19    H32     1.102   .     S
C19    H33     1.111   .     S
C20    H41     1.110   .     S
C20    N52     1.454   .     S
C20    C21     1.521   .     S
C20    H39     1.090   .     S
C21    H36     1.102   .     S
C21    H38     1.111   .     S
C21    H37     1.108   .     S
C22    H46     1.077   .     S
C22    C24     1.387   .     A
C23    C25     1.387   .     A
C23    H47     1.077   .     S
C24    H29     1.084   .     S
C24    C572    1.391   1_554 S
C25    H40     1.084   .     S
C25    C573    1.391   .     S
C26    C337    1.329   1_455 S
C26    H234    1.085   .     S
C27    C460    1.329   1_545 S
C27    H402    1.085   1_545 S
C28    O59     1.312   .     A
C28    O181    1.304   1_455 S
H30    C213    1.085   .     S
H42    C132    1.082   1_455 S
H43    C69     1.082   .     S
H44    C67     1.084   .     S
H45    C130    1.084   1_455 S
H48    C398    1.085   1_545 S
N51    Zn62    2.053   .     S
N51    N52     1.289   .     D
N52    Zn61    2.053   .     S
O53    Zn61    1.968   .     S
O53    C63     1.294   .     S
O54    Zn62    1.968   .     S
O54    C136    1.294   1_455 S
O55    Zn62    1.973   .     S
O56    Zn61    1.973   .     S
O57    Zn61    1.945   .     S
O57    C90     1.304   .     S
O58    Zn62    1.945   .     S
O58    C126    1.304   1_455 S
O59    Zn62    1.893   .     S
O60    Zn61    1.893   .     S
C63    O117    1.298   .     A
C63    C88     1.401   .     S
C64    C66     1.450   .     S
C64    O122    1.312   .     A
C64    O182    1.304   .     S
C65    C71     1.393   .     A
C65    C90     1.450   .     S
C65    C69     1.401   .     A
C66    C70     1.401   .     A
C66    C72     1.393   .     A
C67    C76     1.401   .     A
C67    C69     1.391   .     A
C68    C70     1.391   .     A
C68    C77     1.401   .     A
C68    H169    1.084   .     S
C70    H166    1.082   .     S
C71    C73     1.404   .     A
C71    I112    2.153   .     S
C72    I111    2.153   .     S
C72    C75     1.404   .     A
C73    C78     1.416   .     A
C73    C76     1.419   .     A
C74    O118    1.298   .     A
C74    C89     1.401   .     S
C74    O178    1.294   .     S
C75    C79     1.416   .     A
C75    C77     1.419   .     A
C76    C644    1.391   .     S
C77    C645    1.391   1_554 S
C78    C85     1.412   .     A
C78    C637    1.417   .     S
C79    C84     1.412   .     A
C79    C636    1.417   1_554 S
C80    H96     1.110   .     S
C80    N113    1.454   .     S
C80    C81     1.521   .     S
C80    H97     1.090   .     S
C81    H93     1.108   .     S
C81    H94     1.102   .     S
C81    H95     1.111   .     S
C82    H103    1.110   .     S
C82    N114    1.454   .     S
C82    C83     1.521   .     S
C82    H101    1.090   .     S
C83    H98     1.102   .     S
C83    H100    1.111   .     S
C83    H99     1.108   .     S
C84    H108    1.077   .     S
C84    C86     1.387   .     A
C85    C87     1.387   .     A
C85    H109    1.077   .     S
C86    H91     1.084   .     S
C86    C634    1.391   1_554 S
C87    H102    1.084   .     S
C87    C635    1.391   .     S
C88    C213    1.329   .     S
C88    H296    1.085   .     S
C89    C522    1.329   1_545 S
C89    H464    1.085   1_545 S
C90    O121    1.312   .     A
H92    C275    1.085   .     S
H105   C131    1.082   .     S
H106   C129    1.084   .     S
H110   C460    1.085   1_545 S
N113   Zn124   2.053   .     S
N113   N114    1.289   .     D
N114   Zn123   2.053   .     S
O115   Zn123   1.968   .     S
O115   C125    1.294   .     S
O116   Zn124   1.968   .     S
O117   Zn124   1.973   .     S
O118   Zn123   1.973   .     S
O119   Zn123   1.945   .     S
O119   C152    1.304   .     S
O120   Zn124   1.945   .     S
O121   Zn124   1.893   .     S
O122   Zn123   1.893   .     S
C125   O179    1.298   .     A
C125   C150    1.401   .     S
C126   C128    1.450   .     S
C126   O184    1.312   .     A
C126   O58     1.304   1_655 S
C127   C133    1.393   .     A
C127   C152    1.450   .     S
C127   C131    1.401   .     A
C128   C132    1.401   .     A
C128   C134    1.393   .     A
C129   C138    1.401   .     A
C129   C131    1.391   .     A
C130   C132    1.391   .     A
C130   C139    1.401   .     A
C130   H45     1.084   1_655 S
C132   H42     1.082   1_655 S
C133   C135    1.404   .     A
C133   I174    2.153   .     S
C134   I173    2.153   .     S
C134   C137    1.404   .     A
C135   C140    1.416   .     A
C135   C138    1.419   .     A
C136   O180    1.298   .     A
C136   C151    1.401   .     S
C136   O54     1.294   1_655 S
C137   C141    1.416   .     A
C137   C139    1.419   .     A
C138   C706    1.391   .     S
C139   C707    1.391   1_554 S
C140   C147    1.412   .     A
C140   C699    1.417   .     S
C141   C146    1.412   .     A
C141   C698    1.417   1_554 S
C142   H158    1.110   .     S
C142   N175    1.454   .     S
C142   C143    1.521   .     S
C142   H159    1.090   .     S
C143   H155    1.108   .     S
C143   H156    1.102   .     S
C143   H157    1.111   .     S
C144   H165    1.110   .     S
C144   N176    1.454   .     S
C144   C145    1.521   .     S
C144   H163    1.090   .     S
C145   H160    1.102   .     S
C145   H162    1.111   .     S
C145   H161    1.108   .     S
C146   H170    1.077   .     S
C146   C148    1.387   .     A
C147   C149    1.387   .     A
C147   H171    1.077   .     S
C148   H153    1.084   .     S
C148   C696    1.391   1_554 S
C149   H164    1.084   .     S
C149   C697    1.391   .     S
C150   C275    1.329   .     S
C150   H358    1.085   .     S
C151   C398    1.329   1_645 S
C151   H526    1.085   1_545 S
C152   O183    1.312   .     A
H154   C337    1.085   .     S
H167   C7      1.082   1_655 S
H168   C5      1.084   1_655 S
H172   C522    1.085   1_545 S
N175   Zn186   2.053   .     S
N175   N176    1.289   .     D
N176   Zn185   2.053   .     S
O177   Zn185   1.968   .     S
O177   C1      1.294   1_655 S
O178   Zn186   1.968   .     S
O179   Zn186   1.973   .     S
O180   Zn185   1.973   .     S
O181   Zn185   1.945   .     S
O181   C28     1.304   1_655 S
O182   Zn186   1.945   .     S
O183   Zn186   1.893   .     S
O184   Zn185   1.893   .     S
C187   O241    1.298   .     A
C187   C212    1.401   .     S
C187   O363    1.294   1_455 S
C188   C190    1.450   .     S
C188   O246    1.312   .     A
C188   O306    1.304   .     S
C189   C195    1.393   .     A
C189   C214    1.450   .     S
C189   C193    1.401   .     A
C190   C194    1.401   .     A
C190   C196    1.393   .     A
C191   C200    1.401   .     A
C191   C193    1.391   .     A
C191   H354    1.084   1_455 S
C192   C194    1.391   .     A
C192   C201    1.401   .     A
C192   H293    1.084   .     S
C193   H353    1.082   1_455 S
C194   H290    1.082   .     S
C195   C197    1.404   .     A
C195   I236    2.153   .     S
C196   I235    2.153   .     S
C196   C199    1.404   .     A
C197   C202    1.416   .     A
C197   C200    1.419   .     A
C198   O242    1.298   .     A
C198   C213    1.401   .     S
C198   O302    1.294   .     S
C199   C203    1.416   .     A
C199   C201    1.419   .     A
C200   C768    1.391   .     S
C201   C769    1.391   1_554 S
C202   C209    1.412   .     A
C202   C761    1.417   .     S
C203   C208    1.412   .     A
C203   C760    1.417   1_554 S
C204   H220    1.110   .     S
C204   N237    1.454   .     S
C204   C205    1.521   .     S
C204   H221    1.090   .     S
C205   H217    1.108   .     S
C205   H218    1.102   .     S
C205   H219    1.111   .     S
C206   H227    1.110   .     S
C206   N238    1.454   .     S
C206   C207    1.521   .     S
C206   H225    1.090   .     S
C207   H222    1.102   .     S
C207   H224    1.111   .     S
C207   H223    1.108   .     S
C208   H232    1.077   .     S
C208   C210    1.387   .     A
C209   C211    1.387   .     A
C209   H233    1.077   .     S
C210   H215    1.084   .     S
C210   C758    1.391   1_554 S
C211   H226    1.084   .     S
C211   C759    1.391   .     S
C212   C523    1.329   1_455 S
C212   H420    1.085   .     S
C214   O245    1.312   .     A
C214   O367    1.304   1_455 S
H216   C399    1.085   .     S
H228   C318    1.082   1_455 S
H229   C255    1.082   .     S
H230   C253    1.084   .     S
H231   C316    1.084   1_455 S
N237   Zn248   2.053   .     S
N237   N238    1.289   .     D
N238   Zn247   2.053   .     S
O239   Zn247   1.968   .     S
O239   C249    1.294   .     S
O240   Zn248   1.968   .     S
O240   C322    1.294   1_455 S
O241   Zn248   1.973   .     S
O242   Zn247   1.973   .     S
O243   Zn247   1.945   .     S
O243   C276    1.304   .     S
O244   Zn248   1.945   .     S
O244   C312    1.304   1_455 S
O245   Zn248   1.893   .     S
O246   Zn247   1.893   .     S
C249   O303    1.298   .     A
C249   C274    1.401   .     S
C250   C252    1.450   .     S
C250   O308    1.312   .     A
C250   O368    1.304   .     S
C251   C257    1.393   .     A
C251   C276    1.450   .     S
C251   C255    1.401   .     A
C252   C256    1.401   .     A
C252   C258    1.393   .     A
C253   C262    1.401   .     A
C253   C255    1.391   .     A
C254   C256    1.391   .     A
C254   C263    1.401   .     A
C254   H355    1.084   .     S
C256   H352    1.082   .     S
C257   C259    1.404   .     A
C257   I298    2.153   .     S
C258   I297    2.153   .     S
C258   C261    1.404   .     A
C259   C264    1.416   .     A
C259   C262    1.419   .     A
C260   O304    1.298   .     A
C260   C275    1.401   .     S
C260   O364    1.294   .     S
C261   C265    1.416   .     A
C261   C263    1.419   .     A
C262   C830    1.391   .     S
C263   C831    1.391   1_554 S
C264   C271    1.412   .     A
C264   C823    1.417   .     S
C265   C270    1.412   .     A
C265   C822    1.417   1_554 S
C266   H282    1.110   .     S
C266   N299    1.454   .     S
C266   C267    1.521   .     S
C266   H283    1.090   .     S
C267   H279    1.108   .     S
C267   H280    1.102   .     S
C267   H281    1.111   .     S
C268   H289    1.110   .     S
C268   N300    1.454   .     S
C268   C269    1.521   .     S
C268   H287    1.090   .     S
C269   H284    1.102   .     S
C269   H286    1.111   .     S
C269   H285    1.108   .     S
C270   H294    1.077   .     S
C270   C272    1.387   .     A
C271   C273    1.387   .     A
C271   H295    1.077   .     S
C272   H277    1.084   .     S
C272   C820    1.391   1_554 S
C273   H288    1.084   .     S
C273   C821    1.391   .     S
C274   C399    1.329   .     S
C274   H482    1.085   .     S
C276   O307    1.312   .     A
H278   C461    1.085   .     S
H291   C317    1.082   .     S
H292   C315    1.084   .     S
N299   Zn310   2.053   .     S
N299   N300    1.289   .     D
N300   Zn309   2.053   .     S
O301   Zn309   1.968   .     S
O301   C311    1.294   .     S
O302   Zn310   1.968   .     S
O303   Zn310   1.973   .     S
O304   Zn309   1.973   .     S
O305   Zn309   1.945   .     S
O305   C338    1.304   .     S
O306   Zn310   1.945   .     S
O307   Zn310   1.893   .     S
O308   Zn309   1.893   .     S
C311   O365    1.298   .     A
C311   C336    1.401   .     S
C312   C314    1.450   .     S
C312   O370    1.312   .     A
C312   O244    1.304   1_655 S
C313   C319    1.393   .     A
C313   C338    1.450   .     S
C313   C317    1.401   .     A
C314   C318    1.401   .     A
C314   C320    1.393   .     A
C315   C324    1.401   .     A
C315   C317    1.391   .     A
C316   C318    1.391   .     A
C316   C325    1.401   .     A
C316   H231    1.084   1_655 S
C318   H228    1.082   1_655 S
C319   C321    1.404   .     A
C319   I360    2.153   .     S
C320   I359    2.153   .     S
C320   C323    1.404   .     A
C321   C326    1.416   .     A
C321   C324    1.419   .     A
C322   O366    1.298   .     A
C322   C337    1.401   .     S
C322   O240    1.294   1_655 S
C323   C327    1.416   .     A
C323   C325    1.419   .     A
C324   C892    1.391   .     S
C325   C893    1.391   1_554 S
C326   C333    1.412   .     A
C326   C885    1.417   .     S
C327   C332    1.412   .     A
C327   C884    1.417   1_554 S
C328   H344    1.110   .     S
C328   N361    1.454   .     S
C328   C329    1.521   .     S
C328   H345    1.090   .     S
C329   H341    1.108   .     S
C329   H342    1.102   .     S
C329   H343    1.111   .     S
C330   H351    1.110   .     S
C330   N362    1.454   .     S
C330   C331    1.521   .     S
C330   H349    1.090   .     S
C331   H346    1.102   .     S
C331   H348    1.111   .     S
C331   H347    1.108   .     S
C332   H356    1.077   .     S
C332   C334    1.387   .     A
C333   C335    1.387   .     A
C333   H357    1.077   .     S
C334   H339    1.084   .     S
C334   C882    1.391   1_554 S
C335   H350    1.084   .     S
C335   C883    1.391   .     S
C336   C461    1.329   .     S
C336   H544    1.085   .     S
C337   C26     1.329   1_655 S
C338   O369    1.312   .     A
H340   C523    1.085   .     S
H353   C193    1.082   1_655 S
H354   C191    1.084   1_655 S
N361   Zn372   2.053   .     S
N361   N362    1.289   .     D
N362   Zn371   2.053   .     S
O363   Zn371   1.968   .     S
O363   C187    1.294   1_655 S
O364   Zn372   1.968   .     S
O365   Zn372   1.973   .     S
O366   Zn371   1.973   .     S
O367   Zn371   1.945   .     S
O367   C214    1.304   1_655 S
O368   Zn372   1.945   .     S
O369   Zn372   1.893   .     S
O370   Zn371   1.893   .     S
C373   O427    1.298   .     A
C373   C398    1.401   .     S
C373   O549    1.294   1_455 S
C374   C376    1.450   .     S
C374   O432    1.312   .     A
C374   O492    1.304   .     S
C375   C381    1.393   .     A
C375   C400    1.450   .     S
C375   C379    1.401   .     A
C376   C380    1.401   .     A
C376   C382    1.393   .     A
C377   C386    1.401   .     A
C377   C379    1.391   .     A
C377   H540    1.084   1_455 S
C378   C380    1.391   .     A
C378   C387    1.401   .     A
C378   H479    1.084   .     S
C379   H539    1.082   1_455 S
C380   H476    1.082   .     S
C381   C383    1.404   .     A
C381   I422    2.153   .     S
C382   I421    2.153   .     S
C382   C385    1.404   .     A
C383   C388    1.416   .     A
C383   C386    1.419   .     A
C384   O428    1.298   .     A
C384   C399    1.401   .     S
C384   O488    1.294   .     S
C385   C389    1.416   .     A
C385   C387    1.419   .     A
C386   C954    1.391   .     S
C387   C955    1.391   1_554 S
C388   C395    1.412   .     A
C388   C947    1.417   .     S
C389   C394    1.412   .     A
C389   C946    1.417   1_554 S
C390   H406    1.110   .     S
C390   N423    1.454   .     S
C390   C391    1.521   .     S
C390   H407    1.090   .     S
C391   H403    1.108   .     S
C391   H404    1.102   .     S
C391   H405    1.111   .     S
C392   H413    1.110   .     S
C392   N424    1.454   .     S
C392   C393    1.521   .     S
C392   H411    1.090   .     S
C393   H408    1.102   .     S
C393   H410    1.111   .     S
C393   H409    1.108   .     S
C394   H418    1.077   .     S
C394   C396    1.387   .     A
C395   C397    1.387   .     A
C395   H419    1.077   .     S
C396   H401    1.084   .     S
C396   C944    1.391   1_554 S
C397   H412    1.084   .     S
C397   C945    1.391   .     S
C398   C151    1.329   1_465 S
C398   H48     1.085   1_565 S
C400   O431    1.312   .     A
C400   O553    1.304   1_455 S
H402   C27     1.085   1_565 S
H414   C504    1.082   1_455 S
H415   C441    1.082   .     S
H416   C439    1.084   .     S
H417   C502    1.084   1_455 S
N423   Zn434   2.053   .     S
N423   N424    1.289   .     D
N424   Zn433   2.053   .     S
O425   Zn433   1.968   .     S
O425   C435    1.294   .     S
O426   Zn434   1.968   .     S
O426   C508    1.294   1_455 S
O427   Zn434   1.973   .     S
O428   Zn433   1.973   .     S
O429   Zn433   1.945   .     S
O429   C462    1.304   .     S
O430   Zn434   1.945   .     S
O430   C498    1.304   1_455 S
O431   Zn434   1.893   .     S
O432   Zn433   1.893   .     S
C435   O489    1.298   .     A
C435   C460    1.401   .     S
C436   C438    1.450   .     S
C436   O494    1.312   .     A
C436   O554    1.304   .     S
C437   C443    1.393   .     A
C437   C462    1.450   .     S
C437   C441    1.401   .     A
C438   C442    1.401   .     A
C438   C444    1.393   .     A
C439   C448    1.401   .     A
C439   C441    1.391   .     A
C440   C442    1.391   .     A
C440   C449    1.401   .     A
C440   H541    1.084   .     S
C442   H538    1.082   .     S
C443   C445    1.404   .     A
C443   I484    2.153   .     S
C444   I483    2.153   .     S
C444   C447    1.404   .     A
C445   C450    1.416   .     A
C445   C448    1.419   .     A
C446   O490    1.298   .     A
C446   C461    1.401   .     S
C446   O550    1.294   .     S
C447   C451    1.416   .     A
C447   C449    1.419   .     A
C448   C1016   1.391   .     S
C449   C1017   1.391   1_554 S
C450   C457    1.412   .     A
C450   C1009   1.417   .     S
C451   C456    1.412   .     A
C451   C1008   1.417   1_554 S
C452   H468    1.110   .     S
C452   N485    1.454   .     S
C452   C453    1.521   .     S
C452   H469    1.090   .     S
C453   H465    1.108   .     S
C453   H466    1.102   .     S
C453   H467    1.111   .     S
C454   H475    1.110   .     S
C454   N486    1.454   .     S
C454   C455    1.521   .     S
C454   H473    1.090   .     S
C455   H470    1.102   .     S
C455   H472    1.111   .     S
C455   H471    1.108   .     S
C456   H480    1.077   .     S
C456   C458    1.387   .     A
C457   C459    1.387   .     A
C457   H481    1.077   .     S
C458   H463    1.084   .     S
C458   C1006   1.391   1_554 S
C459   H474    1.084   .     S
C459   C1007   1.391   .     S
C460   C27     1.329   1_565 S
C460   H110    1.085   1_565 S
C462   O493    1.312   .     A
H464   C89     1.085   1_565 S
H477   C503    1.082   .     S
H478   C501    1.084   .     S
N485   Zn496   2.053   .     S
N485   N486    1.289   .     D
N486   Zn495   2.053   .     S
O487   Zn495   1.968   .     S
O487   C497    1.294   .     S
O488   Zn496   1.968   .     S
O489   Zn496   1.973   .     S
O490   Zn495   1.973   .     S
O491   Zn495   1.945   .     S
O491   C524    1.304   .     S
O492   Zn496   1.945   .     S
O493   Zn496   1.893   .     S
O494   Zn495   1.893   .     S
C497   O551    1.298   .     A
C497   C522    1.401   .     S
C498   C500    1.450   .     S
C498   O556    1.312   .     A
C498   O430    1.304   1_655 S
C499   C505    1.393   .     A
C499   C524    1.450   .     S
C499   C503    1.401   .     A
C500   C504    1.401   .     A
C500   C506    1.393   .     A
C501   C510    1.401   .     A
C501   C503    1.391   .     A
C502   C504    1.391   .     A
C502   C511    1.401   .     A
C502   H417    1.084   1_655 S
C504   H414    1.082   1_655 S
C505   C507    1.404   .     A
C505   I546    2.153   .     S
C506   I545    2.153   .     S
C506   C509    1.404   .     A
C507   C512    1.416   .     A
C507   C510    1.419   .     A
C508   O552    1.298   .     A
C508   C523    1.401   .     S
C508   O426    1.294   1_655 S
C509   C513    1.416   .     A
C509   C511    1.419   .     A
C510   C1078   1.391   .     S
C511   C1079   1.391   1_554 S
C512   C519    1.412   .     A
C512   C1071   1.417   .     S
C513   C518    1.412   .     A
C513   C1070   1.417   1_554 S
C514   H530    1.110   .     S
C514   N547    1.454   .     S
C514   C515    1.521   .     S
C514   H531    1.090   .     S
C515   H527    1.108   .     S
C515   H528    1.102   .     S
C515   H529    1.111   .     S
C516   H537    1.110   .     S
C516   N548    1.454   .     S
C516   C517    1.521   .     S
C516   H535    1.090   .     S
C517   H532    1.102   .     S
C517   H534    1.111   .     S
C517   H533    1.108   .     S
C518   H542    1.077   .     S
C518   C520    1.387   .     A
C519   C521    1.387   .     A
C519   H543    1.077   .     S
C520   H525    1.084   .     S
C520   C1068   1.391   1_554 S
C521   H536    1.084   .     S
C521   C1069   1.391   .     S
C522   C89     1.329   1_565 S
C522   H172    1.085   1_565 S
C523   C212    1.329   1_655 S
C524   O555    1.312   .     A
H526   C151    1.085   1_565 S
H539   C379    1.082   1_655 S
H540   C377    1.084   1_655 S
N547   Zn558   2.053   .     S
N547   N548    1.289   .     D
N548   Zn557   2.053   .     S
O549   Zn557   1.968   .     S
O549   C373    1.294   1_655 S
O550   Zn558   1.968   .     S
O551   Zn558   1.973   .     S
O552   Zn557   1.973   .     S
O553   Zn557   1.945   .     S
O553   C400    1.304   1_655 S
O554   Zn558   1.945   .     S
O555   Zn558   1.893   .     S
O556   Zn557   1.893   .     S
C559   O613    1.298   .     A
C559   C584    1.401   .     S
C559   O735    1.294   1_455 S
C560   C562    1.450   .     S
C560   O618    1.312   .     A
C560   O678    1.304   .     S
C561   C567    1.393   .     A
C561   C586    1.450   .     S
C561   C565    1.401   .     A
C562   C566    1.401   .     A
C562   C568    1.393   .     A
C563   C572    1.401   .     A
C563   C565    1.391   .     A
C563   H726    1.084   1_455 S
C564   C566    1.391   .     A
C564   C573    1.401   .     A
C564   H665    1.084   .     S
C565   H725    1.082   1_455 S
C566   H662    1.082   .     S
C567   C569    1.404   .     A
C567   I608    2.153   .     S
C568   I607    2.153   .     S
C568   C571    1.404   .     A
C569   C574    1.416   .     A
C569   C572    1.419   .     A
C570   O614    1.298   .     A
C570   C585    1.401   .     S
C570   O674    1.294   .     S
C571   C575    1.416   .     A
C571   C573    1.419   .     A
C572   C24     1.391   1_556 S
C574   C581    1.412   .     A
C574   C17     1.417   1_556 S
C575   C580    1.412   .     A
C576   H592    1.110   .     S
C576   N609    1.454   .     S
C576   C577    1.521   .     S
C576   H593    1.090   .     S
C577   H589    1.108   .     S
C577   H590    1.102   .     S
C577   H591    1.111   .     S
C578   H599    1.110   .     S
C578   N610    1.454   .     S
C578   C579    1.521   .     S
C578   H597    1.090   .     S
C579   H594    1.102   .     S
C579   H596    1.111   .     S
C579   H595    1.108   .     S
C580   H604    1.077   .     S
C580   C582    1.387   .     A
C581   C583    1.387   .     A
C581   H605    1.077   .     S
C582   H587    1.084   .     S
C583   H598    1.084   .     S
C583   C15     1.391   1_556 S
C584   C895    1.329   1_455 S
C584   H792    1.085   .     S
C585   C1018   1.329   1_545 S
C585   H960    1.085   1_545 S
C586   O617    1.312   .     A
C586   O739    1.304   1_455 S
H588   C771    1.085   .     S
H600   C690    1.082   1_455 S
H601   C627    1.082   .     S
H602   C625    1.084   .     S
H603   C688    1.084   1_455 S
H606   C956    1.085   1_545 S
N609   Zn620   2.053   .     S
N609   N610    1.289   .     D
N610   Zn619   2.053   .     S
O611   Zn619   1.968   .     S
O611   C621    1.294   .     S
O612   Zn620   1.968   .     S
O612   C694    1.294   1_455 S
O613   Zn620   1.973   .     S
O614   Zn619   1.973   .     S
O615   Zn619   1.945   .     S
O615   C648    1.304   .     S
O616   Zn620   1.945   .     S
O616   C684    1.304   1_455 S
O617   Zn620   1.893   .     S
O618   Zn619   1.893   .     S
C621   O675    1.298   .     A
C621   C646    1.401   .     S
C622   C624    1.450   .     S
C622   O680    1.312   .     A
C622   O740    1.304   .     S
C623   C629    1.393   .     A
C623   C648    1.450   .     S
C623   C627    1.401   .     A
C624   C628    1.401   .     A
C624   C630    1.393   .     A
C625   C634    1.401   .     A
C625   C627    1.391   .     A
C626   C628    1.391   .     A
C626   C635    1.401   .     A
C626   H727    1.084   .     S
C628   H724    1.082   .     S
C629   C631    1.404   .     A
C629   I670    2.153   .     S
C630   I669    2.153   .     S
C630   C633    1.404   .     A
C631   C636    1.416   .     A
C631   C634    1.419   .     A
C632   O676    1.298   .     A
C632   C647    1.401   .     S
C632   O736    1.294   .     S
C633   C637    1.416   .     A
C633   C635    1.419   .     A
C634   C86     1.391   1_556 S
C636   C643    1.412   .     A
C636   C79     1.417   1_556 S
C637   C642    1.412   .     A
C638   H654    1.110   .     S
C638   N671    1.454   .     S
C638   C639    1.521   .     S
C638   H655    1.090   .     S
C639   H651    1.108   .     S
C639   H652    1.102   .     S
C639   H653    1.111   .     S
C640   H661    1.110   .     S
C640   N672    1.454   .     S
C640   C641    1.521   .     S
C640   H659    1.090   .     S
C641   H656    1.102   .     S
C641   H658    1.111   .     S
C641   H657    1.108   .     S
C642   H666    1.077   .     S
C642   C644    1.387   .     A
C643   C645    1.387   .     A
C643   H667    1.077   .     S
C644   H649    1.084   .     S
C645   H660    1.084   .     S
C645   C77     1.391   1_556 S
C646   C771    1.329   .     S
C646   H854    1.085   .     S
C647   C1080   1.329   1_545 S
C647   H1022   1.085   1_545 S
C648   O679    1.312   .     A
H650   C833    1.085   .     S
H663   C689    1.082   .     S
H664   C687    1.084   .     S
H668   C1018   1.085   1_545 S
N671   Zn682   2.053   .     S
N671   N672    1.289   .     D
N672   Zn681   2.053   .     S
O673   Zn681   1.968   .     S
O673   C683    1.294   .     S
O674   Zn682   1.968   .     S
O675   Zn682   1.973   .     S
O676   Zn681   1.973   .     S
O677   Zn681   1.945   .     S
O677   C710    1.304   .     S
O678   Zn682   1.945   .     S
O679   Zn682   1.893   .     S
O680   Zn681   1.893   .     S
C683   O737    1.298   .     A
C683   C708    1.401   .     S
C684   C686    1.450   .     S
C684   O742    1.312   .     A
C684   O616    1.304   1_655 S
C685   C691    1.393   .     A
C685   C710    1.450   .     S
C685   C689    1.401   .     A
C686   C690    1.401   .     A
C686   C692    1.393   .     A
C687   C696    1.401   .     A
C687   C689    1.391   .     A
C688   C690    1.391   .     A
C688   C697    1.401   .     A
C688   H603    1.084   1_655 S
C690   H600    1.082   1_655 S
C691   C693    1.404   .     A
C691   I732    2.153   .     S
C692   I731    2.153   .     S
C692   C695    1.404   .     A
C693   C698    1.416   .     A
C693   C696    1.419   .     A
C694   O738    1.298   .     A
C694   C709    1.401   .     S
C694   O612    1.294   1_655 S
C695   C699    1.416   .     A
C695   C697    1.419   .     A
C696   C148    1.391   1_556 S
C698   C705    1.412   .     A
C698   C141    1.417   1_556 S
C699   C704    1.412   .     A
C700   H716    1.110   .     S
C700   N733    1.454   .     S
C700   C701    1.521   .     S
C700   H717    1.090   .     S
C701   H713    1.108   .     S
C701   H714    1.102   .     S
C701   H715    1.111   .     S
C702   H723    1.110   .     S
C702   N734    1.454   .     S
C702   C703    1.521   .     S
C702   H721    1.090   .     S
C703   H718    1.102   .     S
C703   H720    1.111   .     S
C703   H719    1.108   .     S
C704   H728    1.077   .     S
C704   C706    1.387   .     A
C705   C707    1.387   .     A
C705   H729    1.077   .     S
C706   H711    1.084   .     S
C707   H722    1.084   .     S
C707   C139    1.391   1_556 S
C708   C833    1.329   .     S
C708   H916    1.085   .     S
C709   C956    1.329   1_645 S
C709   H1084   1.085   1_545 S
C710   O741    1.312   .     A
H712   C895    1.085   .     S
H725   C565    1.082   1_655 S
H726   C563    1.084   1_655 S
H730   C1080   1.085   1_545 S
N733   Zn744   2.053   .     S
N733   N734    1.289   .     D
N734   Zn743   2.053   .     S
O735   Zn743   1.968   .     S
O735   C559    1.294   1_655 S
O736   Zn744   1.968   .     S
O737   Zn744   1.973   .     S
O738   Zn743   1.973   .     S
O739   Zn743   1.945   .     S
O739   C586    1.304   1_655 S
O740   Zn744   1.945   .     S
O741   Zn744   1.893   .     S
O742   Zn743   1.893   .     S
C745   O799    1.298   .     A
C745   C770    1.401   .     S
C745   O921    1.294   1_455 S
C746   C748    1.450   .     S
C746   O804    1.312   .     A
C746   O864    1.304   .     S
C747   C753    1.393   .     A
C747   C772    1.450   .     S
C747   C751    1.401   .     A
C748   C752    1.401   .     A
C748   C754    1.393   .     A
C749   C758    1.401   .     A
C749   C751    1.391   .     A
C749   H912    1.084   1_455 S
C750   C752    1.391   .     A
C750   C759    1.401   .     A
C750   H851    1.084   .     S
C751   H911    1.082   1_455 S
C752   H848    1.082   .     S
C753   C755    1.404   .     A
C753   I794    2.153   .     S
C754   I793    2.153   .     S
C754   C757    1.404   .     A
C755   C760    1.416   .     A
C755   C758    1.419   .     A
C756   O800    1.298   .     A
C756   C771    1.401   .     S
C756   O860    1.294   .     S
C757   C761    1.416   .     A
C757   C759    1.419   .     A
C758   C210    1.391   1_556 S
C760   C767    1.412   .     A
C760   C203    1.417   1_556 S
C761   C766    1.412   .     A
C762   H778    1.110   .     S
C762   N795    1.454   .     S
C762   C763    1.521   .     S
C762   H779    1.090   .     S
C763   H775    1.108   .     S
C763   H776    1.102   .     S
C763   H777    1.111   .     S
C764   H785    1.110   .     S
C764   N796    1.454   .     S
C764   C765    1.521   .     S
C764   H783    1.090   .     S
C765   H780    1.102   .     S
C765   H782    1.111   .     S
C765   H781    1.108   .     S
C766   H790    1.077   .     S
C766   C768    1.387   .     A
C767   C769    1.387   .     A
C767   H791    1.077   .     S
C768   H773    1.084   .     S
C769   H784    1.084   .     S
C769   C201    1.391   1_556 S
C770   C1081   1.329   1_455 S
C770   H978    1.085   .     S
C772   O803    1.312   .     A
C772   O925    1.304   1_455 S
H774   C957    1.085   .     S
H786   C876    1.082   1_455 S
H787   C813    1.082   .     S
H788   C811    1.084   .     S
H789   C874    1.084   1_455 S
N795   Zn806   2.053   .     S
N795   N796    1.289   .     D
N796   Zn805   2.053   .     S
O797   Zn805   1.968   .     S
O797   C807    1.294   .     S
O798   Zn806   1.968   .     S
O798   C880    1.294   1_455 S
O799   Zn806   1.973   .     S
O800   Zn805   1.973   .     S
O801   Zn805   1.945   .     S
O801   C834    1.304   .     S
O802   Zn806   1.945   .     S
O802   C870    1.304   1_455 S
O803   Zn806   1.893   .     S
O804   Zn805   1.893   .     S
C807   O861    1.298   .     A
C807   C832    1.401   .     S
C808   C810    1.450   .     S
C808   O866    1.312   .     A
C808   O926    1.304   .     S
C809   C815    1.393   .     A
C809   C834    1.450   .     S
C809   C813    1.401   .     A
C810   C814    1.401   .     A
C810   C816    1.393   .     A
C811   C820    1.401   .     A
C811   C813    1.391   .     A
C812   C814    1.391   .     A
C812   C821    1.401   .     A
C812   H913    1.084   .     S
C814   H910    1.082   .     S
C815   C817    1.404   .     A
C815   I856    2.153   .     S
C816   I855    2.153   .     S
C816   C819    1.404   .     A
C817   C822    1.416   .     A
C817   C820    1.419   .     A
C818   O862    1.298   .     A
C818   C833    1.401   .     S
C818   O922    1.294   .     S
C819   C823    1.416   .     A
C819   C821    1.419   .     A
C820   C272    1.391   1_556 S
C822   C829    1.412   .     A
C822   C265    1.417   1_556 S
C823   C828    1.412   .     A
C824   H840    1.110   .     S
C824   N857    1.454   .     S
C824   C825    1.521   .     S
C824   H841    1.090   .     S
C825   H837    1.108   .     S
C825   H838    1.102   .     S
C825   H839    1.111   .     S
C826   H847    1.110   .     S
C826   N858    1.454   .     S
C826   C827    1.521   .     S
C826   H845    1.090   .     S
C827   H842    1.102   .     S
C827   H844    1.111   .     S
C827   H843    1.108   .     S
C828   H852    1.077   .     S
C828   C830    1.387   .     A
C829   C831    1.387   .     A
C829   H853    1.077   .     S
C830   H835    1.084   .     S
C831   H846    1.084   .     S
C831   C263    1.391   1_556 S
C832   C957    1.329   .     S
C832   H1040   1.085   .     S
C834   O865    1.312   .     A
H836   C1019   1.085   .     S
H849   C875    1.082   .     S
H850   C873    1.084   .     S
N857   Zn868   2.053   .     S
N857   N858    1.289   .     D
N858   Zn867   2.053   .     S
O859   Zn867   1.968   .     S
O859   C869    1.294   .     S
O860   Zn868   1.968   .     S
O861   Zn868   1.973   .     S
O862   Zn867   1.973   .     S
O863   Zn867   1.945   .     S
O863   C896    1.304   .     S
O864   Zn868   1.945   .     S
O865   Zn868   1.893   .     S
O866   Zn867   1.893   .     S
C869   O923    1.298   .     A
C869   C894    1.401   .     S
C870   C872    1.450   .     S
C870   O928    1.312   .     A
C870   O802    1.304   1_655 S
C871   C877    1.393   .     A
C871   C896    1.450   .     S
C871   C875    1.401   .     A
C872   C876    1.401   .     A
C872   C878    1.393   .     A
C873   C882    1.401   .     A
C873   C875    1.391   .     A
C874   C876    1.391   .     A
C874   C883    1.401   .     A
C874   H789    1.084   1_655 S
C876   H786    1.082   1_655 S
C877   C879    1.404   .     A
C877   I918    2.153   .     S
C878   I917    2.153   .     S
C878   C881    1.404   .     A
C879   C884    1.416   .     A
C879   C882    1.419   .     A
C880   O924    1.298   .     A
C880   C895    1.401   .     S
C880   O798    1.294   1_655 S
C881   C885    1.416   .     A
C881   C883    1.419   .     A
C882   C334    1.391   1_556 S
C884   C891    1.412   .     A
C884   C327    1.417   1_556 S
C885   C890    1.412   .     A
C886   H902    1.110   .     S
C886   N919    1.454   .     S
C886   C887    1.521   .     S
C886   H903    1.090   .     S
C887   H899    1.108   .     S
C887   H900    1.102   .     S
C887   H901    1.111   .     S
C888   H909    1.110   .     S
C888   N920    1.454   .     S
C888   C889    1.521   .     S
C888   H907    1.090   .     S
C889   H904    1.102   .     S
C889   H906    1.111   .     S
C889   H905    1.108   .     S
C890   H914    1.077   .     S
C890   C892    1.387   .     A
C891   C893    1.387   .     A
C891   H915    1.077   .     S
C892   H897    1.084   .     S
C893   H908    1.084   .     S
C893   C325    1.391   1_556 S
C894   C1019   1.329   .     S
C894   H1102   1.085   .     S
C895   C584    1.329   1_655 S
C896   O927    1.312   .     A
H898   C1081   1.085   .     S
H911   C751    1.082   1_655 S
H912   C749    1.084   1_655 S
N919   Zn930   2.053   .     S
N919   N920    1.289   .     D
N920   Zn929   2.053   .     S
O921   Zn929   1.968   .     S
O921   C745    1.294   1_655 S
O922   Zn930   1.968   .     S
O923   Zn930   1.973   .     S
O924   Zn929   1.973   .     S
O925   Zn929   1.945   .     S
O925   C772    1.304   1_655 S
O926   Zn930   1.945   .     S
O927   Zn930   1.893   .     S
O928   Zn929   1.893   .     S
C931   O985    1.298   .     A
C931   C956    1.401   .     S
C931   O1107   1.294   1_455 S
C932   C934    1.450   .     S
C932   O990    1.312   .     A
C932   O1050   1.304   .     S
C933   C939    1.393   .     A
C933   C958    1.450   .     S
C933   C937    1.401   .     A
C934   C938    1.401   .     A
C934   C940    1.393   .     A
C935   C944    1.401   .     A
C935   C937    1.391   .     A
C935   H1098   1.084   1_455 S
C936   C938    1.391   .     A
C936   C945    1.401   .     A
C936   H1037   1.084   .     S
C937   H1097   1.082   1_455 S
C938   H1034   1.082   .     S
C939   C941    1.404   .     A
C939   I980    2.153   .     S
C940   I979    2.153   .     S
C940   C943    1.404   .     A
C941   C946    1.416   .     A
C941   C944    1.419   .     A
C942   O986    1.298   .     A
C942   C957    1.401   .     S
C942   O1046   1.294   .     S
C943   C947    1.416   .     A
C943   C945    1.419   .     A
C944   C396    1.391   1_556 S
C946   C953    1.412   .     A
C946   C389    1.417   1_556 S
C947   C952    1.412   .     A
C948   H964    1.110   .     S
C948   N981    1.454   .     S
C948   C949    1.521   .     S
C948   H965    1.090   .     S
C949   H961    1.108   .     S
C949   H962    1.102   .     S
C949   H963    1.111   .     S
C950   H971    1.110   .     S
C950   N982    1.454   .     S
C950   C951    1.521   .     S
C950   H969    1.090   .     S
C951   H966    1.102   .     S
C951   H968    1.111   .     S
C951   H967    1.108   .     S
C952   H976    1.077   .     S
C952   C954    1.387   .     A
C953   C955    1.387   .     A
C953   H977    1.077   .     S
C954   H959    1.084   .     S
C955   H970    1.084   .     S
C955   C387    1.391   1_556 S
C956   C709    1.329   1_465 S
C956   H606    1.085   1_565 S
C958   O989    1.312   .     A
C958   O1111   1.304   1_455 S
H960   C585    1.085   1_565 S
H972   C1062   1.082   1_455 S
H973   C999    1.082   .     S
H974   C997    1.084   .     S
H975   C1060   1.084   1_455 S
N981   Zn992   2.053   .     S
N981   N982    1.289   .     D
N982   Zn991   2.053   .     S
O983   Zn991   1.968   .     S
O983   C993    1.294   .     S
O984   Zn992   1.968   .     S
O984   C1066   1.294   1_455 S
O985   Zn992   1.973   .     S
O986   Zn991   1.973   .     S
O987   Zn991   1.945   .     S
O987   C1020   1.304   .     S
O988   Zn992   1.945   .     S
O988   C1056   1.304   1_455 S
O989   Zn992   1.893   .     S
O990   Zn991   1.893   .     S
C993   O1047   1.298   .     A
C993   C1018   1.401   .     S
C994   C996    1.450   .     S
C994   O1052   1.312   .     A
C994   O1112   1.304   .     S
C995   C1001   1.393   .     A
C995   C1020   1.450   .     S
C995   C999    1.401   .     A
C996   C1000   1.401   .     A
C996   C1002   1.393   .     A
C997   C1006   1.401   .     A
C997   C999    1.391   .     A
C998   C1000   1.391   .     A
C998   C1007   1.401   .     A
C998   H1099   1.084   .     S
C1000  H1096   1.082   .     S
C1001  C1003   1.404   .     A
C1001  I1042   2.153   .     S
C1002  I1041   2.153   .     S
C1002  C1005   1.404   .     A
C1003  C1008   1.416   .     A
C1003  C1006   1.419   .     A
C1004  O1048   1.298   .     A
C1004  C1019   1.401   .     S
C1004  O1108   1.294   .     S
C1005  C1009   1.416   .     A
C1005  C1007   1.419   .     A
C1006  C458    1.391   1_556 S
C1008  C1015   1.412   .     A
C1008  C451    1.417   1_556 S
C1009  C1014   1.412   .     A
C1010  H1026   1.110   .     S
C1010  N1043   1.454   .     S
C1010  C1011   1.521   .     S
C1010  H1027   1.090   .     S
C1011  H1023   1.108   .     S
C1011  H1024   1.102   .     S
C1011  H1025   1.111   .     S
C1012  H1033   1.110   .     S
C1012  N1044   1.454   .     S
C1012  C1013   1.521   .     S
C1012  H1031   1.090   .     S
C1013  H1028   1.102   .     S
C1013  H1030   1.111   .     S
C1013  H1029   1.108   .     S
C1014  H1038   1.077   .     S
C1014  C1016   1.387   .     A
C1015  C1017   1.387   .     A
C1015  H1039   1.077   .     S
C1016  H1021   1.084   .     S
C1017  H1032   1.084   .     S
C1017  C449    1.391   1_556 S
C1018  C585    1.329   1_565 S
C1018  H668    1.085   1_565 S
C1020  O1051   1.312   .     A
H1022  C647    1.085   1_565 S
H1035  C1061   1.082   .     S
H1036  C1059   1.084   .     S
N1043  Zn1054  2.053   .     S
N1043  N1044   1.289   .     D
N1044  Zn1053  2.053   .     S
O1045  Zn1053  1.968   .     S
O1045  C1055   1.294   .     S
O1046  Zn1054  1.968   .     S
O1047  Zn1054  1.973   .     S
O1048  Zn1053  1.973   .     S
O1049  Zn1053  1.945   .     S
O1049  C1082   1.304   .     S
O1050  Zn1054  1.945   .     S
O1051  Zn1054  1.893   .     S
O1052  Zn1053  1.893   .     S
C1055  O1109   1.298   .     A
C1055  C1080   1.401   .     S
C1056  C1058   1.450   .     S
C1056  O1114   1.312   .     A
C1056  O988    1.304   1_655 S
C1057  C1063   1.393   .     A
C1057  C1082   1.450   .     S
C1057  C1061   1.401   .     A
C1058  C1062   1.401   .     A
C1058  C1064   1.393   .     A
C1059  C1068   1.401   .     A
C1059  C1061   1.391   .     A
C1060  C1062   1.391   .     A
C1060  C1069   1.401   .     A
C1060  H975    1.084   1_655 S
C1062  H972    1.082   1_655 S
C1063  C1065   1.404   .     A
C1063  I1104   2.153   .     S
C1064  I1103   2.153   .     S
C1064  C1067   1.404   .     A
C1065  C1070   1.416   .     A
C1065  C1068   1.419   .     A
C1066  O1110   1.298   .     A
C1066  C1081   1.401   .     S
C1066  O984    1.294   1_655 S
C1067  C1071   1.416   .     A
C1067  C1069   1.419   .     A
C1068  C520    1.391   1_556 S
C1070  C1077   1.412   .     A
C1070  C513    1.417   1_556 S
C1071  C1076   1.412   .     A
C1072  H1088   1.110   .     S
C1072  N1105   1.454   .     S
C1072  C1073   1.521   .     S
C1072  H1089   1.090   .     S
C1073  H1085   1.108   .     S
C1073  H1086   1.102   .     S
C1073  H1087   1.111   .     S
C1074  H1095   1.110   .     S
C1074  N1106   1.454   .     S
C1074  C1075   1.521   .     S
C1074  H1093   1.090   .     S
C1075  H1090   1.102   .     S
C1075  H1092   1.111   .     S
C1075  H1091   1.108   .     S
C1076  H1100   1.077   .     S
C1076  C1078   1.387   .     A
C1077  C1079   1.387   .     A
C1077  H1101   1.077   .     S
C1078  H1083   1.084   .     S
C1079  H1094   1.084   .     S
C1079  C511    1.391   1_556 S
C1080  C647    1.329   1_565 S
C1080  H730    1.085   1_565 S
C1081  C770    1.329   1_655 S
C1082  O1113   1.312   .     A
H1084  C709    1.085   1_565 S
H1097  C937    1.082   1_655 S
H1098  C935    1.084   1_655 S
N1105  Zn1116  2.053   .     S
N1105  N1106   1.289   .     D
N1106  Zn1115  2.053   .     S
O1107  Zn1115  1.968   .     S
O1107  C931    1.294   1_655 S
O1108  Zn1116  1.968   .     S
O1109  Zn1116  1.973   .     S
O1110  Zn1115  1.973   .     S
O1111  Zn1115  1.945   .     S
O1111  C958    1.304   1_655 S
O1112  Zn1116  1.945   .     S
O1113  Zn1116  1.893   .     S
O1114  Zn1115  1.893   .     S
