data_str_m3_o1_o17_pcu_sym.108
_audit_creation_date              2020-01-03
_audit_creation_method            'Materials Studio'
_symmetry_space_group_name_H-M    'P1'
_symmetry_Int_Tables_number       1
_symmetry_cell_setting            triclinic
loop_
_symmetry_equiv_pos_as_xyz
  x,y,z
_cell_length_a                    32.6554
_cell_length_b                    29.3726
_cell_length_c                    30.0584
_cell_angle_alpha                 89.7417
_cell_angle_beta                  93.2623
_cell_angle_gamma                 89.3852
loop_
_atom_site_label
_atom_site_type_symbol
_atom_site_fract_x
_atom_site_fract_y
_atom_site_fract_z
_atom_site_U_iso_or_equiv
_atom_site_adp_type
_atom_site_occupancy
C1     C     0.08660   0.16697   0.25115   0.00000  Uiso   1.00
C2     C     0.24677   0.16645   0.24956   0.00000  Uiso   1.00
C3     C     0.09383   0.14862   0.01596   0.00000  Uiso   1.00
C4     C     0.24303   0.17890   0.48556   0.00000  Uiso   1.00
C5     C     0.02241   0.12768   0.26564   0.00000  Uiso   1.00
C6     C     0.31104   0.20639   0.23706   0.00000  Uiso   1.00
C7     C     0.31336   0.12673   0.26325   0.00000  Uiso   1.00
C8     C     0.02006   0.20762   0.24031   0.00000  Uiso   1.00
C9     C     0.29089   0.16619   0.24921   0.00000  Uiso   1.00
C10    C     0.04254   0.16766   0.25294   0.00000  Uiso   1.00
C11    C     0.18996   0.02361   0.28131   0.00000  Uiso   1.00
C12    C     0.14336   0.30972   0.21867   0.00000  Uiso   1.00
C13    C     0.14330   0.02447   0.21872   0.00000  Uiso   1.00
C14    C     0.19010   0.30888   0.28118   0.00000  Uiso   1.00
C15    C     0.16473   0.16664   0.16343   0.00000  Uiso   1.00
C16    C     0.16913   0.16662   0.33656   0.00000  Uiso   1.00
C17    C     0.20672   0.17434   0.40974   0.00000  Uiso   1.00
C18    C     0.12823   0.16568   0.08960   0.00000  Uiso   1.00
C19    C     0.16984   0.16664   0.38443   0.00000  Uiso   1.00
C20    C     0.16518   0.16571   0.11577   0.00000  Uiso   1.00
C21    C     0.13309   0.15864   0.40409   0.00000  Uiso   1.00
C22    C     0.20301   0.16249   0.09675   0.00000  Uiso   1.00
C23    C     0.13256   0.15714   0.45027   0.00000  Uiso   1.00
C24    C     0.20430   0.16550   0.05054   0.00000  Uiso   1.00
C25    C     0.16924   0.16366   0.47683   0.00000  Uiso   1.00
C26    C     0.16766   0.16237   0.02356   0.00000  Uiso   1.00
C27    C     0.20707   0.17245   0.45694   0.00000  Uiso   1.00
C28    C     0.12937   0.15846   0.04337   0.00000  Uiso   1.00
C29    C     0.09586   0.14840   0.47027   0.00000  Uiso   1.00
C30    C     0.24133   0.17314   0.03115   0.00000  Uiso   1.00
H31    H     0.06799   0.14087   0.45064   0.00000  Uiso   1.00
H32    H     0.26933   0.17754   0.05168   0.00000  Uiso   1.00
H33    H     0.20838   0.04158   0.30643   0.00000  Uiso   1.00
H34    H     0.12489   0.29172   0.19360   0.00000  Uiso   1.00
H35    H     0.12464   0.04315   0.19380   0.00000  Uiso   1.00
H36    H     0.20891   0.29025   0.30589   0.00000  Uiso   1.00
N37    N     0.16667   0.28573   0.25000   0.00000  Uiso   1.00
N38    N     0.16667   0.04760   0.25000   0.00000  Uiso   1.00
O39    O     0.10559   0.20487   0.25000   0.00000  Uiso   1.00
O40    O     0.22774   0.12846   0.25001   0.00000  Uiso   1.00
O41    O     0.22774   0.20487   0.25001   0.00000  Uiso   1.00
O42    O     0.10559   0.12846   0.25000   0.00000  Uiso   1.00
O43    O     0.16666   0.20489   0.18393   0.00000  Uiso   1.00
O44    O     0.16667   0.12844   0.31608   0.00000  Uiso   1.00
O45    O     0.16667   0.20489   0.31608   0.00000  Uiso   1.00
O46    O     0.16666   0.12844   0.18393   0.00000  Uiso   1.00
Zn47   Zn    0.16667   0.21771   0.25000   0.00000  Uiso   1.00
Zn48   Zn    0.16667   0.11563   0.25000   0.00000  Uiso   1.00
C49    C     0.24408   0.18370   0.38590   0.00000  Uiso   1.00
C50    C     0.27285   0.14882   0.37973   0.00000  Uiso   1.00
C51    C     0.31075   0.15925   0.36321   0.00000  Uiso   1.00
C52    C     0.31924   0.20393   0.35064   0.00000  Uiso   1.00
C53    C     0.28970   0.23825   0.35429   0.00000  Uiso   1.00
C54    C     0.25226   0.22829   0.37224   0.00000  Uiso   1.00
H55    H     0.26678   0.11426   0.38999   0.00000  Uiso   1.00
H56    H     0.00018   0.13261   0.36028   0.00000  Uiso   1.00
H57    H     0.01527   0.21193   0.33779   0.00000  Uiso   1.00
H58    H     0.29617   0.27273   0.34420   0.00000  Uiso   1.00
H59    H     0.23026   0.25542   0.37699   0.00000  Uiso   1.00
C60    C     0.08988   0.18118   0.10885   0.00000  Uiso   1.00
C61    C     0.06736   0.15181   0.13486   0.00000  Uiso   1.00
C62    C     0.02728   0.16370   0.14449   0.00000  Uiso   1.00
C63    C     0.01054   0.20570   0.13024   0.00000  Uiso   1.00
C64    C     0.03379   0.23610   0.10675   0.00000  Uiso   1.00
C65    C     0.07330   0.22384   0.09584   0.00000  Uiso   1.00
H66    H     0.07967   0.11871   0.14485   0.00000  Uiso   1.00
H67    H     0.00908   0.14022   0.16270   0.00000  Uiso   1.00
H68    H     0.31299   0.21506   0.13758   0.00000  Uiso   1.00
H69    H     0.02081   0.26868   0.09606   0.00000  Uiso   1.00
H70    H     0.09044   0.24678   0.07577   0.00000  Uiso   1.00
Cl71   Cl    0.08745   0.15217   0.36976   0.00000  Uiso   1.00
Cl72   Cl    0.24835   0.15530   0.13152   0.00000  Uiso   1.00
Cl73   Cl    0.04660   0.13042   0.03528   0.00000  Uiso   1.00
Cl74   Cl    0.29163   0.19683   0.46975   0.00000  Uiso   1.00
Cl75   Cl    0.04897   0.07849   0.28787   0.00000  Uiso   1.00
Cl76   Cl    0.28460   0.25595   0.21531   0.00000  Uiso   1.00
Cl77   Cl    0.29006   0.07574   0.28122   0.00000  Uiso   1.00
Cl78   Cl    0.04318   0.26015   0.22640   0.00000  Uiso   1.00
C79    C     0.41994   0.16697   0.25115   0.00000  Uiso   1.00
C80    C     0.58010   0.16645   0.24956   0.00000  Uiso   1.00
C81    C     0.42717   0.14862   0.01596   0.00000  Uiso   1.00
C82    C     0.57636   0.17890   0.48556   0.00000  Uiso   1.00
C83    C     0.35574   0.12768   0.26564   0.00000  Uiso   1.00
C84    C     0.64437   0.20639   0.23706   0.00000  Uiso   1.00
C85    C     0.64669   0.12673   0.26325   0.00000  Uiso   1.00
C86    C     0.35339   0.20762   0.24031   0.00000  Uiso   1.00
C87    C     0.62423   0.16619   0.24921   0.00000  Uiso   1.00
C88    C     0.37588   0.16766   0.25294   0.00000  Uiso   1.00
C89    C     0.52329   0.02361   0.28131   0.00000  Uiso   1.00
C90    C     0.47670   0.30972   0.21867   0.00000  Uiso   1.00
C91    C     0.47663   0.02447   0.21872   0.00000  Uiso   1.00
C92    C     0.52343   0.30888   0.28118   0.00000  Uiso   1.00
C93    C     0.49806   0.16664   0.16343   0.00000  Uiso   1.00
C94    C     0.50246   0.16662   0.33656   0.00000  Uiso   1.00
C95    C     0.54005   0.17434   0.40974   0.00000  Uiso   1.00
C96    C     0.46157   0.16568   0.08960   0.00000  Uiso   1.00
C97    C     0.50317   0.16664   0.38443   0.00000  Uiso   1.00
C98    C     0.49852   0.16571   0.11577   0.00000  Uiso   1.00
C99    C     0.46642   0.15864   0.40409   0.00000  Uiso   1.00
C100   C     0.53634   0.16249   0.09675   0.00000  Uiso   1.00
C101   C     0.46589   0.15714   0.45027   0.00000  Uiso   1.00
C102   C     0.53764   0.16550   0.05054   0.00000  Uiso   1.00
C103   C     0.50258   0.16366   0.47683   0.00000  Uiso   1.00
C104   C     0.50100   0.16237   0.02356   0.00000  Uiso   1.00
C105   C     0.54040   0.17245   0.45694   0.00000  Uiso   1.00
C106   C     0.46271   0.15846   0.04337   0.00000  Uiso   1.00
C107   C     0.42920   0.14840   0.47027   0.00000  Uiso   1.00
C108   C     0.57467   0.17314   0.03115   0.00000  Uiso   1.00
H109   H     0.40133   0.14087   0.45064   0.00000  Uiso   1.00
H110   H     0.60267   0.17754   0.05168   0.00000  Uiso   1.00
H111   H     0.54172   0.04158   0.30643   0.00000  Uiso   1.00
H112   H     0.45823   0.29172   0.19360   0.00000  Uiso   1.00
H113   H     0.45798   0.04315   0.19380   0.00000  Uiso   1.00
H114   H     0.54224   0.29025   0.30589   0.00000  Uiso   1.00
N115   N     0.50000   0.28573   0.25000   0.00000  Uiso   1.00
N116   N     0.50000   0.04760   0.25000   0.00000  Uiso   1.00
O117   O     0.43892   0.20487   0.25000   0.00000  Uiso   1.00
O118   O     0.56108   0.12846   0.25001   0.00000  Uiso   1.00
O119   O     0.56108   0.20487   0.25001   0.00000  Uiso   1.00
O120   O     0.43892   0.12846   0.25000   0.00000  Uiso   1.00
O121   O     0.49999   0.20489   0.18393   0.00000  Uiso   1.00
O122   O     0.50001   0.12844   0.31608   0.00000  Uiso   1.00
O123   O     0.50001   0.20489   0.31608   0.00000  Uiso   1.00
O124   O     0.49999   0.12844   0.18393   0.00000  Uiso   1.00
Zn125  Zn    0.50000   0.21771   0.25000   0.00000  Uiso   1.00
Zn126  Zn    0.50000   0.11563   0.25000   0.00000  Uiso   1.00
C127   C     0.57742   0.18370   0.38590   0.00000  Uiso   1.00
C128   C     0.60618   0.14882   0.37973   0.00000  Uiso   1.00
C129   C     0.64408   0.15925   0.36321   0.00000  Uiso   1.00
C130   C     0.65258   0.20393   0.35064   0.00000  Uiso   1.00
C131   C     0.62303   0.23825   0.35429   0.00000  Uiso   1.00
C132   C     0.58560   0.22829   0.37224   0.00000  Uiso   1.00
H133   H     0.60012   0.11426   0.38999   0.00000  Uiso   1.00
H134   H     0.33351   0.13261   0.36028   0.00000  Uiso   1.00
H135   H     0.34860   0.21193   0.33779   0.00000  Uiso   1.00
H136   H     0.62951   0.27273   0.34420   0.00000  Uiso   1.00
H137   H     0.56359   0.25542   0.37699   0.00000  Uiso   1.00
C138   C     0.42321   0.18118   0.10885   0.00000  Uiso   1.00
C139   C     0.40069   0.15181   0.13486   0.00000  Uiso   1.00
C140   C     0.36061   0.16370   0.14449   0.00000  Uiso   1.00
C141   C     0.34387   0.20570   0.13024   0.00000  Uiso   1.00
C142   C     0.36712   0.23610   0.10675   0.00000  Uiso   1.00
C143   C     0.40664   0.22384   0.09584   0.00000  Uiso   1.00
H144   H     0.41301   0.11871   0.14485   0.00000  Uiso   1.00
H145   H     0.34241   0.14022   0.16270   0.00000  Uiso   1.00
H146   H     0.64632   0.21506   0.13758   0.00000  Uiso   1.00
H147   H     0.35414   0.26868   0.09606   0.00000  Uiso   1.00
H148   H     0.42378   0.24678   0.07577   0.00000  Uiso   1.00
Cl149  Cl    0.42078   0.15217   0.36976   0.00000  Uiso   1.00
Cl150  Cl    0.58168   0.15530   0.13152   0.00000  Uiso   1.00
Cl151  Cl    0.37994   0.13042   0.03528   0.00000  Uiso   1.00
Cl152  Cl    0.62496   0.19683   0.46975   0.00000  Uiso   1.00
Cl153  Cl    0.38230   0.07849   0.28787   0.00000  Uiso   1.00
Cl154  Cl    0.61793   0.25595   0.21531   0.00000  Uiso   1.00
Cl155  Cl    0.62339   0.07574   0.28122   0.00000  Uiso   1.00
Cl156  Cl    0.37652   0.26015   0.22640   0.00000  Uiso   1.00
C157   C     0.75327   0.16697   0.25115   0.00000  Uiso   1.00
C158   C     0.91344   0.16645   0.24956   0.00000  Uiso   1.00
C159   C     0.76050   0.14862   0.01596   0.00000  Uiso   1.00
C160   C     0.90970   0.17890   0.48556   0.00000  Uiso   1.00
C161   C     0.68908   0.12768   0.26564   0.00000  Uiso   1.00
C162   C     0.97770   0.20639   0.23706   0.00000  Uiso   1.00
C163   C     0.98003   0.12673   0.26325   0.00000  Uiso   1.00
C164   C     0.68672   0.20762   0.24031   0.00000  Uiso   1.00
C165   C     0.95756   0.16619   0.24921   0.00000  Uiso   1.00
C166   C     0.70921   0.16766   0.25294   0.00000  Uiso   1.00
C167   C     0.85663   0.02361   0.28131   0.00000  Uiso   1.00
C168   C     0.81003   0.30972   0.21867   0.00000  Uiso   1.00
C169   C     0.80997   0.02447   0.21872   0.00000  Uiso   1.00
C170   C     0.85677   0.30888   0.28118   0.00000  Uiso   1.00
C171   C     0.83139   0.16664   0.16343   0.00000  Uiso   1.00
C172   C     0.83580   0.16662   0.33656   0.00000  Uiso   1.00
C173   C     0.87338   0.17434   0.40974   0.00000  Uiso   1.00
C174   C     0.79490   0.16568   0.08960   0.00000  Uiso   1.00
C175   C     0.83651   0.16664   0.38443   0.00000  Uiso   1.00
C176   C     0.83185   0.16571   0.11577   0.00000  Uiso   1.00
C177   C     0.79976   0.15864   0.40409   0.00000  Uiso   1.00
C178   C     0.86968   0.16249   0.09675   0.00000  Uiso   1.00
C179   C     0.79922   0.15714   0.45027   0.00000  Uiso   1.00
C180   C     0.87097   0.16550   0.05054   0.00000  Uiso   1.00
C181   C     0.83591   0.16366   0.47683   0.00000  Uiso   1.00
C182   C     0.83433   0.16237   0.02356   0.00000  Uiso   1.00
C183   C     0.87374   0.17245   0.45694   0.00000  Uiso   1.00
C184   C     0.79604   0.15846   0.04337   0.00000  Uiso   1.00
C185   C     0.76253   0.14840   0.47027   0.00000  Uiso   1.00
C186   C     0.90800   0.17314   0.03115   0.00000  Uiso   1.00
H187   H     0.73466   0.14087   0.45064   0.00000  Uiso   1.00
H188   H     0.93600   0.17754   0.05168   0.00000  Uiso   1.00
H189   H     0.87505   0.04158   0.30643   0.00000  Uiso   1.00
H190   H     0.79156   0.29172   0.19360   0.00000  Uiso   1.00
H191   H     0.79131   0.04315   0.19380   0.00000  Uiso   1.00
H192   H     0.87557   0.29025   0.30589   0.00000  Uiso   1.00
N193   N     0.83333   0.28573   0.25000   0.00000  Uiso   1.00
N194   N     0.83333   0.04760   0.25000   0.00000  Uiso   1.00
O195   O     0.77226   0.20487   0.25000   0.00000  Uiso   1.00
O196   O     0.89441   0.12846   0.25001   0.00000  Uiso   1.00
O197   O     0.89441   0.20487   0.25001   0.00000  Uiso   1.00
O198   O     0.77226   0.12846   0.25000   0.00000  Uiso   1.00
O199   O     0.83333   0.20489   0.18393   0.00000  Uiso   1.00
O200   O     0.83334   0.12844   0.31608   0.00000  Uiso   1.00
O201   O     0.83334   0.20489   0.31608   0.00000  Uiso   1.00
O202   O     0.83333   0.12844   0.18393   0.00000  Uiso   1.00
Zn203  Zn    0.83333   0.21771   0.25000   0.00000  Uiso   1.00
Zn204  Zn    0.83333   0.11563   0.25000   0.00000  Uiso   1.00
C205   C     0.91075   0.18370   0.38590   0.00000  Uiso   1.00
C206   C     0.93951   0.14882   0.37973   0.00000  Uiso   1.00
C207   C     0.97741   0.15925   0.36321   0.00000  Uiso   1.00
C208   C     0.98591   0.20393   0.35064   0.00000  Uiso   1.00
C209   C     0.95637   0.23825   0.35429   0.00000  Uiso   1.00
C210   C     0.91893   0.22829   0.37224   0.00000  Uiso   1.00
H211   H     0.93345   0.11426   0.38999   0.00000  Uiso   1.00
H212   H     0.66684   0.13261   0.36028   0.00000  Uiso   1.00
H213   H     0.68194   0.21193   0.33779   0.00000  Uiso   1.00
H214   H     0.96284   0.27273   0.34420   0.00000  Uiso   1.00
H215   H     0.89692   0.25542   0.37699   0.00000  Uiso   1.00
C216   C     0.75654   0.18118   0.10885   0.00000  Uiso   1.00
C217   C     0.73402   0.15181   0.13486   0.00000  Uiso   1.00
C218   C     0.69395   0.16370   0.14449   0.00000  Uiso   1.00
C219   C     0.67721   0.20570   0.13024   0.00000  Uiso   1.00
C220   C     0.70045   0.23610   0.10675   0.00000  Uiso   1.00
C221   C     0.73997   0.22384   0.09584   0.00000  Uiso   1.00
H222   H     0.74634   0.11871   0.14485   0.00000  Uiso   1.00
H223   H     0.67574   0.14022   0.16270   0.00000  Uiso   1.00
H224   H     0.97966   0.21506   0.13758   0.00000  Uiso   1.00
H225   H     0.68747   0.26868   0.09606   0.00000  Uiso   1.00
H226   H     0.75711   0.24678   0.07577   0.00000  Uiso   1.00
Cl227  Cl    0.75412   0.15217   0.36976   0.00000  Uiso   1.00
Cl228  Cl    0.91501   0.15530   0.13152   0.00000  Uiso   1.00
Cl229  Cl    0.71327   0.13042   0.03528   0.00000  Uiso   1.00
Cl230  Cl    0.95830   0.19683   0.46975   0.00000  Uiso   1.00
Cl231  Cl    0.71564   0.07849   0.28787   0.00000  Uiso   1.00
Cl232  Cl    0.95126   0.25595   0.21531   0.00000  Uiso   1.00
Cl233  Cl    0.95673   0.07574   0.28122   0.00000  Uiso   1.00
Cl234  Cl    0.70985   0.26015   0.22640   0.00000  Uiso   1.00
C235   C     0.08660   0.50030   0.25115   0.00000  Uiso   1.00
C236   C     0.24677   0.49978   0.24956   0.00000  Uiso   1.00
C237   C     0.09383   0.48195   0.01596   0.00000  Uiso   1.00
C238   C     0.24303   0.51223   0.48556   0.00000  Uiso   1.00
C239   C     0.02241   0.46101   0.26564   0.00000  Uiso   1.00
C240   C     0.31104   0.53973   0.23706   0.00000  Uiso   1.00
C241   C     0.31336   0.46006   0.26325   0.00000  Uiso   1.00
C242   C     0.02006   0.54095   0.24031   0.00000  Uiso   1.00
C243   C     0.29089   0.49952   0.24921   0.00000  Uiso   1.00
C244   C     0.04254   0.50100   0.25294   0.00000  Uiso   1.00
C245   C     0.18996   0.35694   0.28131   0.00000  Uiso   1.00
C246   C     0.14336   0.64305   0.21867   0.00000  Uiso   1.00
C247   C     0.14330   0.35781   0.21872   0.00000  Uiso   1.00
C248   C     0.19010   0.64222   0.28118   0.00000  Uiso   1.00
C249   C     0.16473   0.49997   0.16343   0.00000  Uiso   1.00
C250   C     0.16913   0.49996   0.33656   0.00000  Uiso   1.00
C251   C     0.20672   0.50767   0.40974   0.00000  Uiso   1.00
C252   C     0.12823   0.49901   0.08960   0.00000  Uiso   1.00
C253   C     0.16984   0.49997   0.38443   0.00000  Uiso   1.00
C254   C     0.16518   0.49904   0.11577   0.00000  Uiso   1.00
C255   C     0.13309   0.49198   0.40409   0.00000  Uiso   1.00
C256   C     0.20301   0.49583   0.09675   0.00000  Uiso   1.00
C257   C     0.13256   0.49048   0.45027   0.00000  Uiso   1.00
C258   C     0.20430   0.49883   0.05054   0.00000  Uiso   1.00
C259   C     0.16924   0.49700   0.47683   0.00000  Uiso   1.00
C260   C     0.16766   0.49570   0.02356   0.00000  Uiso   1.00
C261   C     0.20707   0.50578   0.45694   0.00000  Uiso   1.00
C262   C     0.12937   0.49179   0.04337   0.00000  Uiso   1.00
C263   C     0.09586   0.48174   0.47027   0.00000  Uiso   1.00
C264   C     0.24133   0.50647   0.03115   0.00000  Uiso   1.00
H265   H     0.06799   0.47420   0.45064   0.00000  Uiso   1.00
H266   H     0.26933   0.51087   0.05168   0.00000  Uiso   1.00
H267   H     0.20838   0.37492   0.30643   0.00000  Uiso   1.00
H268   H     0.12489   0.62506   0.19360   0.00000  Uiso   1.00
H269   H     0.12464   0.37649   0.19380   0.00000  Uiso   1.00
H270   H     0.20891   0.62358   0.30589   0.00000  Uiso   1.00
N271   N     0.16667   0.61907   0.25000   0.00000  Uiso   1.00
N272   N     0.16667   0.38093   0.25000   0.00000  Uiso   1.00
O273   O     0.10559   0.53821   0.25000   0.00000  Uiso   1.00
O274   O     0.22774   0.46179   0.25001   0.00000  Uiso   1.00
O275   O     0.22774   0.53821   0.25001   0.00000  Uiso   1.00
O276   O     0.10559   0.46179   0.25000   0.00000  Uiso   1.00
O277   O     0.16666   0.53823   0.18393   0.00000  Uiso   1.00
O278   O     0.16667   0.46177   0.31608   0.00000  Uiso   1.00
O279   O     0.16667   0.53823   0.31608   0.00000  Uiso   1.00
O280   O     0.16666   0.46177   0.18393   0.00000  Uiso   1.00
Zn281  Zn    0.16667   0.55104   0.25000   0.00000  Uiso   1.00
Zn282  Zn    0.16667   0.44896   0.25000   0.00000  Uiso   1.00
C283   C     0.24408   0.51703   0.38590   0.00000  Uiso   1.00
C284   C     0.27285   0.48215   0.37973   0.00000  Uiso   1.00
C285   C     0.31075   0.49258   0.36321   0.00000  Uiso   1.00
C286   C     0.31924   0.53726   0.35064   0.00000  Uiso   1.00
C287   C     0.28970   0.57159   0.35429   0.00000  Uiso   1.00
C288   C     0.25226   0.56163   0.37224   0.00000  Uiso   1.00
H289   H     0.26678   0.44759   0.38999   0.00000  Uiso   1.00
H290   H     0.00018   0.46594   0.36028   0.00000  Uiso   1.00
H291   H     0.01527   0.54526   0.33779   0.00000  Uiso   1.00
H292   H     0.29617   0.60607   0.34420   0.00000  Uiso   1.00
H293   H     0.23026   0.58875   0.37699   0.00000  Uiso   1.00
C294   C     0.08988   0.51452   0.10885   0.00000  Uiso   1.00
C295   C     0.06736   0.48515   0.13486   0.00000  Uiso   1.00
C296   C     0.02728   0.49703   0.14449   0.00000  Uiso   1.00
C297   C     0.01054   0.53904   0.13024   0.00000  Uiso   1.00
C298   C     0.03379   0.56944   0.10675   0.00000  Uiso   1.00
C299   C     0.07330   0.55718   0.09584   0.00000  Uiso   1.00
H300   H     0.07967   0.45204   0.14485   0.00000  Uiso   1.00
H301   H     0.00908   0.47355   0.16270   0.00000  Uiso   1.00
H302   H     0.31299   0.54840   0.13758   0.00000  Uiso   1.00
H303   H     0.02081   0.60201   0.09606   0.00000  Uiso   1.00
H304   H     0.09044   0.58011   0.07577   0.00000  Uiso   1.00
Cl305  Cl    0.08745   0.48550   0.36976   0.00000  Uiso   1.00
Cl306  Cl    0.24835   0.48863   0.13152   0.00000  Uiso   1.00
Cl307  Cl    0.04660   0.46375   0.03528   0.00000  Uiso   1.00
Cl308  Cl    0.29163   0.53017   0.46975   0.00000  Uiso   1.00
Cl309  Cl    0.04897   0.41183   0.28787   0.00000  Uiso   1.00
Cl310  Cl    0.28460   0.58928   0.21531   0.00000  Uiso   1.00
Cl311  Cl    0.29006   0.40907   0.28122   0.00000  Uiso   1.00
Cl312  Cl    0.04318   0.59348   0.22640   0.00000  Uiso   1.00
C313   C     0.41994   0.50030   0.25115   0.00000  Uiso   1.00
C314   C     0.58010   0.49978   0.24956   0.00000  Uiso   1.00
C315   C     0.42717   0.48195   0.01596   0.00000  Uiso   1.00
C316   C     0.57636   0.51223   0.48556   0.00000  Uiso   1.00
C317   C     0.35574   0.46101   0.26564   0.00000  Uiso   1.00
C318   C     0.64437   0.53973   0.23706   0.00000  Uiso   1.00
C319   C     0.64669   0.46006   0.26325   0.00000  Uiso   1.00
C320   C     0.35339   0.54095   0.24031   0.00000  Uiso   1.00
C321   C     0.62423   0.49952   0.24921   0.00000  Uiso   1.00
C322   C     0.37588   0.50100   0.25294   0.00000  Uiso   1.00
C323   C     0.52329   0.35694   0.28131   0.00000  Uiso   1.00
C324   C     0.47670   0.64305   0.21867   0.00000  Uiso   1.00
C325   C     0.47663   0.35781   0.21872   0.00000  Uiso   1.00
C326   C     0.52343   0.64222   0.28118   0.00000  Uiso   1.00
C327   C     0.49806   0.49997   0.16343   0.00000  Uiso   1.00
C328   C     0.50246   0.49996   0.33656   0.00000  Uiso   1.00
C329   C     0.54005   0.50767   0.40974   0.00000  Uiso   1.00
C330   C     0.46157   0.49901   0.08960   0.00000  Uiso   1.00
C331   C     0.50317   0.49997   0.38443   0.00000  Uiso   1.00
C332   C     0.49852   0.49904   0.11577   0.00000  Uiso   1.00
C333   C     0.46642   0.49198   0.40409   0.00000  Uiso   1.00
C334   C     0.53634   0.49583   0.09675   0.00000  Uiso   1.00
C335   C     0.46589   0.49048   0.45027   0.00000  Uiso   1.00
C336   C     0.53764   0.49883   0.05054   0.00000  Uiso   1.00
C337   C     0.50258   0.49700   0.47683   0.00000  Uiso   1.00
C338   C     0.50100   0.49570   0.02356   0.00000  Uiso   1.00
C339   C     0.54040   0.50578   0.45694   0.00000  Uiso   1.00
C340   C     0.46271   0.49179   0.04337   0.00000  Uiso   1.00
C341   C     0.42920   0.48174   0.47027   0.00000  Uiso   1.00
C342   C     0.57467   0.50647   0.03115   0.00000  Uiso   1.00
H343   H     0.40133   0.47420   0.45064   0.00000  Uiso   1.00
H344   H     0.60267   0.51087   0.05168   0.00000  Uiso   1.00
H345   H     0.54172   0.37492   0.30643   0.00000  Uiso   1.00
H346   H     0.45823   0.62506   0.19360   0.00000  Uiso   1.00
H347   H     0.45798   0.37649   0.19380   0.00000  Uiso   1.00
H348   H     0.54224   0.62358   0.30589   0.00000  Uiso   1.00
N349   N     0.50000   0.61907   0.25000   0.00000  Uiso   1.00
N350   N     0.50000   0.38093   0.25000   0.00000  Uiso   1.00
O351   O     0.43892   0.53821   0.25000   0.00000  Uiso   1.00
O352   O     0.56108   0.46179   0.25001   0.00000  Uiso   1.00
O353   O     0.56108   0.53821   0.25001   0.00000  Uiso   1.00
O354   O     0.43892   0.46179   0.25000   0.00000  Uiso   1.00
O355   O     0.49999   0.53823   0.18393   0.00000  Uiso   1.00
O356   O     0.50001   0.46177   0.31608   0.00000  Uiso   1.00
O357   O     0.50001   0.53823   0.31608   0.00000  Uiso   1.00
O358   O     0.49999   0.46177   0.18393   0.00000  Uiso   1.00
Zn359  Zn    0.50000   0.55104   0.25000   0.00000  Uiso   1.00
Zn360  Zn    0.50000   0.44896   0.25000   0.00000  Uiso   1.00
C361   C     0.57742   0.51703   0.38590   0.00000  Uiso   1.00
C362   C     0.60618   0.48215   0.37973   0.00000  Uiso   1.00
C363   C     0.64408   0.49258   0.36321   0.00000  Uiso   1.00
C364   C     0.65258   0.53726   0.35064   0.00000  Uiso   1.00
C365   C     0.62303   0.57159   0.35429   0.00000  Uiso   1.00
C366   C     0.58560   0.56163   0.37224   0.00000  Uiso   1.00
H367   H     0.60012   0.44759   0.38999   0.00000  Uiso   1.00
H368   H     0.33351   0.46594   0.36028   0.00000  Uiso   1.00
H369   H     0.34860   0.54526   0.33779   0.00000  Uiso   1.00
H370   H     0.62951   0.60607   0.34420   0.00000  Uiso   1.00
H371   H     0.56359   0.58875   0.37699   0.00000  Uiso   1.00
C372   C     0.42321   0.51452   0.10885   0.00000  Uiso   1.00
C373   C     0.40069   0.48515   0.13486   0.00000  Uiso   1.00
C374   C     0.36061   0.49703   0.14449   0.00000  Uiso   1.00
C375   C     0.34387   0.53904   0.13024   0.00000  Uiso   1.00
C376   C     0.36712   0.56944   0.10675   0.00000  Uiso   1.00
C377   C     0.40664   0.55718   0.09584   0.00000  Uiso   1.00
H378   H     0.41301   0.45204   0.14485   0.00000  Uiso   1.00
H379   H     0.34241   0.47355   0.16270   0.00000  Uiso   1.00
H380   H     0.64632   0.54840   0.13758   0.00000  Uiso   1.00
H381   H     0.35414   0.60201   0.09606   0.00000  Uiso   1.00
H382   H     0.42378   0.58011   0.07577   0.00000  Uiso   1.00
Cl383  Cl    0.42078   0.48550   0.36976   0.00000  Uiso   1.00
Cl384  Cl    0.58168   0.48863   0.13152   0.00000  Uiso   1.00
Cl385  Cl    0.37994   0.46375   0.03528   0.00000  Uiso   1.00
Cl386  Cl    0.62496   0.53017   0.46975   0.00000  Uiso   1.00
Cl387  Cl    0.38230   0.41183   0.28787   0.00000  Uiso   1.00
Cl388  Cl    0.61793   0.58928   0.21531   0.00000  Uiso   1.00
Cl389  Cl    0.62339   0.40907   0.28122   0.00000  Uiso   1.00
Cl390  Cl    0.37652   0.59348   0.22640   0.00000  Uiso   1.00
C391   C     0.75327   0.50030   0.25115   0.00000  Uiso   1.00
C392   C     0.91344   0.49978   0.24956   0.00000  Uiso   1.00
C393   C     0.76050   0.48195   0.01596   0.00000  Uiso   1.00
C394   C     0.90970   0.51223   0.48556   0.00000  Uiso   1.00
C395   C     0.68908   0.46101   0.26564   0.00000  Uiso   1.00
C396   C     0.97770   0.53973   0.23706   0.00000  Uiso   1.00
C397   C     0.98003   0.46006   0.26325   0.00000  Uiso   1.00
C398   C     0.68672   0.54095   0.24031   0.00000  Uiso   1.00
C399   C     0.95756   0.49952   0.24921   0.00000  Uiso   1.00
C400   C     0.70921   0.50100   0.25294   0.00000  Uiso   1.00
C401   C     0.85663   0.35694   0.28131   0.00000  Uiso   1.00
C402   C     0.81003   0.64305   0.21867   0.00000  Uiso   1.00
C403   C     0.80997   0.35781   0.21872   0.00000  Uiso   1.00
C404   C     0.85677   0.64222   0.28118   0.00000  Uiso   1.00
C405   C     0.83139   0.49997   0.16343   0.00000  Uiso   1.00
C406   C     0.83580   0.49996   0.33656   0.00000  Uiso   1.00
C407   C     0.87338   0.50767   0.40974   0.00000  Uiso   1.00
C408   C     0.79490   0.49901   0.08960   0.00000  Uiso   1.00
C409   C     0.83651   0.49997   0.38443   0.00000  Uiso   1.00
C410   C     0.83185   0.49904   0.11577   0.00000  Uiso   1.00
C411   C     0.79976   0.49198   0.40409   0.00000  Uiso   1.00
C412   C     0.86968   0.49583   0.09675   0.00000  Uiso   1.00
C413   C     0.79922   0.49048   0.45027   0.00000  Uiso   1.00
C414   C     0.87097   0.49883   0.05054   0.00000  Uiso   1.00
C415   C     0.83591   0.49700   0.47683   0.00000  Uiso   1.00
C416   C     0.83433   0.49570   0.02356   0.00000  Uiso   1.00
C417   C     0.87374   0.50578   0.45694   0.00000  Uiso   1.00
C418   C     0.79604   0.49179   0.04337   0.00000  Uiso   1.00
C419   C     0.76253   0.48174   0.47027   0.00000  Uiso   1.00
C420   C     0.90800   0.50647   0.03115   0.00000  Uiso   1.00
H421   H     0.73466   0.47420   0.45064   0.00000  Uiso   1.00
H422   H     0.93600   0.51087   0.05168   0.00000  Uiso   1.00
H423   H     0.87505   0.37492   0.30643   0.00000  Uiso   1.00
H424   H     0.79156   0.62506   0.19360   0.00000  Uiso   1.00
H425   H     0.79131   0.37649   0.19380   0.00000  Uiso   1.00
H426   H     0.87557   0.62358   0.30589   0.00000  Uiso   1.00
N427   N     0.83333   0.61907   0.25000   0.00000  Uiso   1.00
N428   N     0.83333   0.38093   0.25000   0.00000  Uiso   1.00
O429   O     0.77226   0.53821   0.25000   0.00000  Uiso   1.00
O430   O     0.89441   0.46179   0.25001   0.00000  Uiso   1.00
O431   O     0.89441   0.53821   0.25001   0.00000  Uiso   1.00
O432   O     0.77226   0.46179   0.25000   0.00000  Uiso   1.00
O433   O     0.83333   0.53823   0.18393   0.00000  Uiso   1.00
O434   O     0.83334   0.46177   0.31608   0.00000  Uiso   1.00
O435   O     0.83334   0.53823   0.31608   0.00000  Uiso   1.00
O436   O     0.83333   0.46177   0.18393   0.00000  Uiso   1.00
Zn437  Zn    0.83333   0.55104   0.25000   0.00000  Uiso   1.00
Zn438  Zn    0.83333   0.44896   0.25000   0.00000  Uiso   1.00
C439   C     0.91075   0.51703   0.38590   0.00000  Uiso   1.00
C440   C     0.93951   0.48215   0.37973   0.00000  Uiso   1.00
C441   C     0.97741   0.49258   0.36321   0.00000  Uiso   1.00
C442   C     0.98591   0.53726   0.35064   0.00000  Uiso   1.00
C443   C     0.95637   0.57159   0.35429   0.00000  Uiso   1.00
C444   C     0.91893   0.56163   0.37224   0.00000  Uiso   1.00
H445   H     0.93345   0.44759   0.38999   0.00000  Uiso   1.00
H446   H     0.66684   0.46594   0.36028   0.00000  Uiso   1.00
H447   H     0.68194   0.54526   0.33779   0.00000  Uiso   1.00
H448   H     0.96284   0.60607   0.34420   0.00000  Uiso   1.00
H449   H     0.89692   0.58875   0.37699   0.00000  Uiso   1.00
C450   C     0.75654   0.51452   0.10885   0.00000  Uiso   1.00
C451   C     0.73402   0.48515   0.13486   0.00000  Uiso   1.00
C452   C     0.69395   0.49703   0.14449   0.00000  Uiso   1.00
C453   C     0.67721   0.53904   0.13024   0.00000  Uiso   1.00
C454   C     0.70045   0.56944   0.10675   0.00000  Uiso   1.00
C455   C     0.73997   0.55718   0.09584   0.00000  Uiso   1.00
H456   H     0.74634   0.45204   0.14485   0.00000  Uiso   1.00
H457   H     0.67574   0.47355   0.16270   0.00000  Uiso   1.00
H458   H     0.97966   0.54840   0.13758   0.00000  Uiso   1.00
H459   H     0.68747   0.60201   0.09606   0.00000  Uiso   1.00
H460   H     0.75711   0.58011   0.07577   0.00000  Uiso   1.00
Cl461  Cl    0.75412   0.48550   0.36976   0.00000  Uiso   1.00
Cl462  Cl    0.91501   0.48863   0.13152   0.00000  Uiso   1.00
Cl463  Cl    0.71327   0.46375   0.03528   0.00000  Uiso   1.00
Cl464  Cl    0.95830   0.53017   0.46975   0.00000  Uiso   1.00
Cl465  Cl    0.71564   0.41183   0.28787   0.00000  Uiso   1.00
Cl466  Cl    0.95126   0.58928   0.21531   0.00000  Uiso   1.00
Cl467  Cl    0.95673   0.40907   0.28122   0.00000  Uiso   1.00
Cl468  Cl    0.70985   0.59348   0.22640   0.00000  Uiso   1.00
C469   C     0.08660   0.83364   0.25115   0.00000  Uiso   1.00
C470   C     0.24677   0.83312   0.24956   0.00000  Uiso   1.00
C471   C     0.09383   0.81528   0.01596   0.00000  Uiso   1.00
C472   C     0.24303   0.84557   0.48556   0.00000  Uiso   1.00
C473   C     0.02241   0.79435   0.26564   0.00000  Uiso   1.00
C474   C     0.31104   0.87306   0.23706   0.00000  Uiso   1.00
C475   C     0.31336   0.79340   0.26325   0.00000  Uiso   1.00
C476   C     0.02006   0.87429   0.24031   0.00000  Uiso   1.00
C477   C     0.29089   0.83286   0.24921   0.00000  Uiso   1.00
C478   C     0.04254   0.83433   0.25294   0.00000  Uiso   1.00
C479   C     0.18996   0.69028   0.28131   0.00000  Uiso   1.00
C480   C     0.14336   0.97639   0.21867   0.00000  Uiso   1.00
C481   C     0.14330   0.69114   0.21872   0.00000  Uiso   1.00
C482   C     0.19010   0.97555   0.28118   0.00000  Uiso   1.00
C483   C     0.16473   0.83331   0.16343   0.00000  Uiso   1.00
C484   C     0.16913   0.83329   0.33656   0.00000  Uiso   1.00
C485   C     0.20672   0.84101   0.40974   0.00000  Uiso   1.00
C486   C     0.12823   0.83234   0.08960   0.00000  Uiso   1.00
C487   C     0.16984   0.83331   0.38443   0.00000  Uiso   1.00
C488   C     0.16518   0.83238   0.11577   0.00000  Uiso   1.00
C489   C     0.13309   0.82531   0.40409   0.00000  Uiso   1.00
C490   C     0.20301   0.82916   0.09675   0.00000  Uiso   1.00
C491   C     0.13256   0.82381   0.45027   0.00000  Uiso   1.00
C492   C     0.20430   0.83216   0.05054   0.00000  Uiso   1.00
C493   C     0.16924   0.83033   0.47683   0.00000  Uiso   1.00
C494   C     0.16766   0.82904   0.02356   0.00000  Uiso   1.00
C495   C     0.20707   0.83911   0.45694   0.00000  Uiso   1.00
C496   C     0.12937   0.82513   0.04337   0.00000  Uiso   1.00
C497   C     0.09586   0.81507   0.47027   0.00000  Uiso   1.00
C498   C     0.24133   0.83980   0.03115   0.00000  Uiso   1.00
H499   H     0.06799   0.80753   0.45064   0.00000  Uiso   1.00
H500   H     0.26933   0.84420   0.05168   0.00000  Uiso   1.00
H501   H     0.20838   0.70825   0.30643   0.00000  Uiso   1.00
H502   H     0.12489   0.95839   0.19360   0.00000  Uiso   1.00
H503   H     0.12464   0.70982   0.19380   0.00000  Uiso   1.00
H504   H     0.20891   0.95691   0.30589   0.00000  Uiso   1.00
N505   N     0.16667   0.95240   0.25000   0.00000  Uiso   1.00
N506   N     0.16667   0.71427   0.25000   0.00000  Uiso   1.00
O507   O     0.10559   0.87154   0.25000   0.00000  Uiso   1.00
O508   O     0.22774   0.79513   0.25001   0.00000  Uiso   1.00
O509   O     0.22774   0.87154   0.25001   0.00000  Uiso   1.00
O510   O     0.10559   0.79513   0.25000   0.00000  Uiso   1.00
O511   O     0.16666   0.87156   0.18393   0.00000  Uiso   1.00
O512   O     0.16667   0.79511   0.31608   0.00000  Uiso   1.00
O513   O     0.16667   0.87156   0.31608   0.00000  Uiso   1.00
O514   O     0.16666   0.79511   0.18393   0.00000  Uiso   1.00
Zn515  Zn    0.16667   0.88437   0.25000   0.00000  Uiso   1.00
Zn516  Zn    0.16667   0.78229   0.25000   0.00000  Uiso   1.00
C517   C     0.24408   0.85036   0.38590   0.00000  Uiso   1.00
C518   C     0.27285   0.81548   0.37973   0.00000  Uiso   1.00
C519   C     0.31075   0.82591   0.36321   0.00000  Uiso   1.00
C520   C     0.31924   0.87059   0.35064   0.00000  Uiso   1.00
C521   C     0.28970   0.90492   0.35429   0.00000  Uiso   1.00
C522   C     0.25226   0.89496   0.37224   0.00000  Uiso   1.00
H523   H     0.26678   0.78093   0.38999   0.00000  Uiso   1.00
H524   H     0.00018   0.79927   0.36028   0.00000  Uiso   1.00
H525   H     0.01527   0.87859   0.33779   0.00000  Uiso   1.00
H526   H     0.29617   0.93940   0.34420   0.00000  Uiso   1.00
H527   H     0.23026   0.92208   0.37699   0.00000  Uiso   1.00
C528   C     0.08988   0.84785   0.10885   0.00000  Uiso   1.00
C529   C     0.06736   0.81848   0.13486   0.00000  Uiso   1.00
C530   C     0.02728   0.83036   0.14449   0.00000  Uiso   1.00
C531   C     0.01054   0.87237   0.13024   0.00000  Uiso   1.00
C532   C     0.03379   0.90277   0.10675   0.00000  Uiso   1.00
C533   C     0.07330   0.89051   0.09584   0.00000  Uiso   1.00
H534   H     0.07967   0.78537   0.14485   0.00000  Uiso   1.00
H535   H     0.00908   0.80689   0.16270   0.00000  Uiso   1.00
H536   H     0.31299   0.88173   0.13758   0.00000  Uiso   1.00
H537   H     0.02081   0.93534   0.09606   0.00000  Uiso   1.00
H538   H     0.09044   0.91344   0.07577   0.00000  Uiso   1.00
Cl539  Cl    0.08745   0.81883   0.36976   0.00000  Uiso   1.00
Cl540  Cl    0.24835   0.82197   0.13152   0.00000  Uiso   1.00
Cl541  Cl    0.04660   0.79708   0.03528   0.00000  Uiso   1.00
Cl542  Cl    0.29163   0.86350   0.46975   0.00000  Uiso   1.00
Cl543  Cl    0.04897   0.74516   0.28787   0.00000  Uiso   1.00
Cl544  Cl    0.28460   0.92261   0.21531   0.00000  Uiso   1.00
Cl545  Cl    0.29006   0.74241   0.28122   0.00000  Uiso   1.00
Cl546  Cl    0.04318   0.92681   0.22640   0.00000  Uiso   1.00
C547   C     0.41994   0.83364   0.25115   0.00000  Uiso   1.00
C548   C     0.58010   0.83312   0.24956   0.00000  Uiso   1.00
C549   C     0.42717   0.81528   0.01596   0.00000  Uiso   1.00
C550   C     0.57636   0.84557   0.48556   0.00000  Uiso   1.00
C551   C     0.35574   0.79435   0.26564   0.00000  Uiso   1.00
C552   C     0.64437   0.87306   0.23706   0.00000  Uiso   1.00
C553   C     0.64669   0.79340   0.26325   0.00000  Uiso   1.00
C554   C     0.35339   0.87429   0.24031   0.00000  Uiso   1.00
C555   C     0.62423   0.83286   0.24921   0.00000  Uiso   1.00
C556   C     0.37588   0.83433   0.25294   0.00000  Uiso   1.00
C557   C     0.52329   0.69028   0.28131   0.00000  Uiso   1.00
C558   C     0.47670   0.97639   0.21867   0.00000  Uiso   1.00
C559   C     0.47663   0.69114   0.21872   0.00000  Uiso   1.00
C560   C     0.52343   0.97555   0.28118   0.00000  Uiso   1.00
C561   C     0.49806   0.83331   0.16343   0.00000  Uiso   1.00
C562   C     0.50246   0.83329   0.33656   0.00000  Uiso   1.00
C563   C     0.54005   0.84101   0.40974   0.00000  Uiso   1.00
C564   C     0.46157   0.83234   0.08960   0.00000  Uiso   1.00
C565   C     0.50317   0.83331   0.38443   0.00000  Uiso   1.00
C566   C     0.49852   0.83238   0.11577   0.00000  Uiso   1.00
C567   C     0.46642   0.82531   0.40409   0.00000  Uiso   1.00
C568   C     0.53634   0.82916   0.09675   0.00000  Uiso   1.00
C569   C     0.46589   0.82381   0.45027   0.00000  Uiso   1.00
C570   C     0.53764   0.83216   0.05054   0.00000  Uiso   1.00
C571   C     0.50258   0.83033   0.47683   0.00000  Uiso   1.00
C572   C     0.50100   0.82904   0.02356   0.00000  Uiso   1.00
C573   C     0.54040   0.83911   0.45694   0.00000  Uiso   1.00
C574   C     0.46271   0.82513   0.04337   0.00000  Uiso   1.00
C575   C     0.42920   0.81507   0.47027   0.00000  Uiso   1.00
C576   C     0.57467   0.83980   0.03115   0.00000  Uiso   1.00
H577   H     0.40133   0.80753   0.45064   0.00000  Uiso   1.00
H578   H     0.60267   0.84420   0.05168   0.00000  Uiso   1.00
H579   H     0.54172   0.70825   0.30643   0.00000  Uiso   1.00
H580   H     0.45823   0.95839   0.19360   0.00000  Uiso   1.00
H581   H     0.45798   0.70982   0.19380   0.00000  Uiso   1.00
H582   H     0.54224   0.95691   0.30589   0.00000  Uiso   1.00
N583   N     0.50000   0.95240   0.25000   0.00000  Uiso   1.00
N584   N     0.50000   0.71427   0.25000   0.00000  Uiso   1.00
O585   O     0.43892   0.87154   0.25000   0.00000  Uiso   1.00
O586   O     0.56108   0.79513   0.25001   0.00000  Uiso   1.00
O587   O     0.56108   0.87154   0.25001   0.00000  Uiso   1.00
O588   O     0.43892   0.79513   0.25000   0.00000  Uiso   1.00
O589   O     0.49999   0.87156   0.18393   0.00000  Uiso   1.00
O590   O     0.50001   0.79511   0.31608   0.00000  Uiso   1.00
O591   O     0.50001   0.87156   0.31608   0.00000  Uiso   1.00
O592   O     0.49999   0.79511   0.18393   0.00000  Uiso   1.00
Zn593  Zn    0.50000   0.88437   0.25000   0.00000  Uiso   1.00
Zn594  Zn    0.50000   0.78229   0.25000   0.00000  Uiso   1.00
C595   C     0.57742   0.85036   0.38590   0.00000  Uiso   1.00
C596   C     0.60618   0.81548   0.37973   0.00000  Uiso   1.00
C597   C     0.64408   0.82591   0.36321   0.00000  Uiso   1.00
C598   C     0.65258   0.87059   0.35064   0.00000  Uiso   1.00
C599   C     0.62303   0.90492   0.35429   0.00000  Uiso   1.00
C600   C     0.58560   0.89496   0.37224   0.00000  Uiso   1.00
H601   H     0.60012   0.78093   0.38999   0.00000  Uiso   1.00
H602   H     0.33351   0.79927   0.36028   0.00000  Uiso   1.00
H603   H     0.34860   0.87859   0.33779   0.00000  Uiso   1.00
H604   H     0.62951   0.93940   0.34420   0.00000  Uiso   1.00
H605   H     0.56359   0.92208   0.37699   0.00000  Uiso   1.00
C606   C     0.42321   0.84785   0.10885   0.00000  Uiso   1.00
C607   C     0.40069   0.81848   0.13486   0.00000  Uiso   1.00
C608   C     0.36061   0.83036   0.14449   0.00000  Uiso   1.00
C609   C     0.34387   0.87237   0.13024   0.00000  Uiso   1.00
C610   C     0.36712   0.90277   0.10675   0.00000  Uiso   1.00
C611   C     0.40664   0.89051   0.09584   0.00000  Uiso   1.00
H612   H     0.41301   0.78537   0.14485   0.00000  Uiso   1.00
H613   H     0.34241   0.80689   0.16270   0.00000  Uiso   1.00
H614   H     0.64632   0.88173   0.13758   0.00000  Uiso   1.00
H615   H     0.35414   0.93534   0.09606   0.00000  Uiso   1.00
H616   H     0.42378   0.91344   0.07577   0.00000  Uiso   1.00
Cl617  Cl    0.42078   0.81883   0.36976   0.00000  Uiso   1.00
Cl618  Cl    0.58168   0.82197   0.13152   0.00000  Uiso   1.00
Cl619  Cl    0.37994   0.79708   0.03528   0.00000  Uiso   1.00
Cl620  Cl    0.62496   0.86350   0.46975   0.00000  Uiso   1.00
Cl621  Cl    0.38230   0.74516   0.28787   0.00000  Uiso   1.00
Cl622  Cl    0.61793   0.92261   0.21531   0.00000  Uiso   1.00
Cl623  Cl    0.62339   0.74241   0.28122   0.00000  Uiso   1.00
Cl624  Cl    0.37652   0.92681   0.22640   0.00000  Uiso   1.00
C625   C     0.75327   0.83364   0.25115   0.00000  Uiso   1.00
C626   C     0.91344   0.83312   0.24956   0.00000  Uiso   1.00
C627   C     0.76050   0.81528   0.01596   0.00000  Uiso   1.00
C628   C     0.90970   0.84557   0.48556   0.00000  Uiso   1.00
C629   C     0.68908   0.79435   0.26564   0.00000  Uiso   1.00
C630   C     0.97770   0.87306   0.23706   0.00000  Uiso   1.00
C631   C     0.98003   0.79340   0.26325   0.00000  Uiso   1.00
C632   C     0.68672   0.87429   0.24031   0.00000  Uiso   1.00
C633   C     0.95756   0.83286   0.24921   0.00000  Uiso   1.00
C634   C     0.70921   0.83433   0.25294   0.00000  Uiso   1.00
C635   C     0.85663   0.69028   0.28131   0.00000  Uiso   1.00
C636   C     0.81003   0.97639   0.21867   0.00000  Uiso   1.00
C637   C     0.80997   0.69114   0.21872   0.00000  Uiso   1.00
C638   C     0.85677   0.97555   0.28118   0.00000  Uiso   1.00
C639   C     0.83139   0.83331   0.16343   0.00000  Uiso   1.00
C640   C     0.83580   0.83329   0.33656   0.00000  Uiso   1.00
C641   C     0.87338   0.84101   0.40974   0.00000  Uiso   1.00
C642   C     0.79490   0.83234   0.08960   0.00000  Uiso   1.00
C643   C     0.83651   0.83331   0.38443   0.00000  Uiso   1.00
C644   C     0.83185   0.83238   0.11577   0.00000  Uiso   1.00
C645   C     0.79976   0.82531   0.40409   0.00000  Uiso   1.00
C646   C     0.86968   0.82916   0.09675   0.00000  Uiso   1.00
C647   C     0.79922   0.82381   0.45027   0.00000  Uiso   1.00
C648   C     0.87097   0.83216   0.05054   0.00000  Uiso   1.00
C649   C     0.83591   0.83033   0.47683   0.00000  Uiso   1.00
C650   C     0.83433   0.82904   0.02356   0.00000  Uiso   1.00
C651   C     0.87374   0.83911   0.45694   0.00000  Uiso   1.00
C652   C     0.79604   0.82513   0.04337   0.00000  Uiso   1.00
C653   C     0.76253   0.81507   0.47027   0.00000  Uiso   1.00
C654   C     0.90800   0.83980   0.03115   0.00000  Uiso   1.00
H655   H     0.73466   0.80753   0.45064   0.00000  Uiso   1.00
H656   H     0.93600   0.84420   0.05168   0.00000  Uiso   1.00
H657   H     0.87505   0.70825   0.30643   0.00000  Uiso   1.00
H658   H     0.79156   0.95839   0.19360   0.00000  Uiso   1.00
H659   H     0.79131   0.70982   0.19380   0.00000  Uiso   1.00
H660   H     0.87557   0.95691   0.30589   0.00000  Uiso   1.00
N661   N     0.83333   0.95240   0.25000   0.00000  Uiso   1.00
N662   N     0.83333   0.71427   0.25000   0.00000  Uiso   1.00
O663   O     0.77226   0.87154   0.25000   0.00000  Uiso   1.00
O664   O     0.89441   0.79513   0.25001   0.00000  Uiso   1.00
O665   O     0.89441   0.87154   0.25001   0.00000  Uiso   1.00
O666   O     0.77226   0.79513   0.25000   0.00000  Uiso   1.00
O667   O     0.83333   0.87156   0.18393   0.00000  Uiso   1.00
O668   O     0.83334   0.79511   0.31608   0.00000  Uiso   1.00
O669   O     0.83334   0.87156   0.31608   0.00000  Uiso   1.00
O670   O     0.83333   0.79511   0.18393   0.00000  Uiso   1.00
Zn671  Zn    0.83333   0.88437   0.25000   0.00000  Uiso   1.00
Zn672  Zn    0.83333   0.78229   0.25000   0.00000  Uiso   1.00
C673   C     0.91075   0.85036   0.38590   0.00000  Uiso   1.00
C674   C     0.93951   0.81548   0.37973   0.00000  Uiso   1.00
C675   C     0.97741   0.82591   0.36321   0.00000  Uiso   1.00
C676   C     0.98591   0.87059   0.35064   0.00000  Uiso   1.00
C677   C     0.95637   0.90492   0.35429   0.00000  Uiso   1.00
C678   C     0.91893   0.89496   0.37224   0.00000  Uiso   1.00
H679   H     0.93345   0.78093   0.38999   0.00000  Uiso   1.00
H680   H     0.66684   0.79927   0.36028   0.00000  Uiso   1.00
H681   H     0.68194   0.87859   0.33779   0.00000  Uiso   1.00
H682   H     0.96284   0.93940   0.34420   0.00000  Uiso   1.00
H683   H     0.89692   0.92208   0.37699   0.00000  Uiso   1.00
C684   C     0.75654   0.84785   0.10885   0.00000  Uiso   1.00
C685   C     0.73402   0.81848   0.13486   0.00000  Uiso   1.00
C686   C     0.69395   0.83036   0.14449   0.00000  Uiso   1.00
C687   C     0.67721   0.87237   0.13024   0.00000  Uiso   1.00
C688   C     0.70045   0.90277   0.10675   0.00000  Uiso   1.00
C689   C     0.73997   0.89051   0.09584   0.00000  Uiso   1.00
H690   H     0.74634   0.78537   0.14485   0.00000  Uiso   1.00
H691   H     0.67574   0.80689   0.16270   0.00000  Uiso   1.00
H692   H     0.97966   0.88173   0.13758   0.00000  Uiso   1.00
H693   H     0.68747   0.93534   0.09606   0.00000  Uiso   1.00
H694   H     0.75711   0.91344   0.07577   0.00000  Uiso   1.00
Cl695  Cl    0.75412   0.81883   0.36976   0.00000  Uiso   1.00
Cl696  Cl    0.91501   0.82197   0.13152   0.00000  Uiso   1.00
Cl697  Cl    0.71327   0.79708   0.03528   0.00000  Uiso   1.00
Cl698  Cl    0.95830   0.86350   0.46975   0.00000  Uiso   1.00
Cl699  Cl    0.71564   0.74516   0.28787   0.00000  Uiso   1.00
Cl700  Cl    0.95126   0.92261   0.21531   0.00000  Uiso   1.00
Cl701  Cl    0.95673   0.74241   0.28122   0.00000  Uiso   1.00
Cl702  Cl    0.70985   0.92681   0.22640   0.00000  Uiso   1.00
C703   C     0.08660   0.16697   0.75115   0.00000  Uiso   1.00
C704   C     0.24677   0.16645   0.74956   0.00000  Uiso   1.00
C705   C     0.09383   0.14862   0.51596   0.00000  Uiso   1.00
C706   C     0.24303   0.17890   0.98556   0.00000  Uiso   1.00
C707   C     0.02241   0.12768   0.76564   0.00000  Uiso   1.00
C708   C     0.31104   0.20639   0.73706   0.00000  Uiso   1.00
C709   C     0.31336   0.12673   0.76325   0.00000  Uiso   1.00
C710   C     0.02006   0.20762   0.74031   0.00000  Uiso   1.00
C711   C     0.29089   0.16619   0.74921   0.00000  Uiso   1.00
C712   C     0.04254   0.16766   0.75294   0.00000  Uiso   1.00
C713   C     0.18996   0.02361   0.78131   0.00000  Uiso   1.00
C714   C     0.14336   0.30972   0.71867   0.00000  Uiso   1.00
C715   C     0.14330   0.02447   0.71872   0.00000  Uiso   1.00
C716   C     0.19010   0.30888   0.78118   0.00000  Uiso   1.00
C717   C     0.16473   0.16664   0.66343   0.00000  Uiso   1.00
C718   C     0.16913   0.16662   0.83656   0.00000  Uiso   1.00
C719   C     0.20672   0.17434   0.90974   0.00000  Uiso   1.00
C720   C     0.12823   0.16568   0.58960   0.00000  Uiso   1.00
C721   C     0.16984   0.16664   0.88443   0.00000  Uiso   1.00
C722   C     0.16518   0.16571   0.61577   0.00000  Uiso   1.00
C723   C     0.13309   0.15864   0.90409   0.00000  Uiso   1.00
C724   C     0.20301   0.16249   0.59675   0.00000  Uiso   1.00
C725   C     0.13256   0.15714   0.95027   0.00000  Uiso   1.00
C726   C     0.20430   0.16550   0.55054   0.00000  Uiso   1.00
C727   C     0.16924   0.16366   0.97683   0.00000  Uiso   1.00
C728   C     0.16766   0.16237   0.52356   0.00000  Uiso   1.00
C729   C     0.20707   0.17245   0.95694   0.00000  Uiso   1.00
C730   C     0.12937   0.15846   0.54337   0.00000  Uiso   1.00
C731   C     0.09586   0.14840   0.97027   0.00000  Uiso   1.00
C732   C     0.24133   0.17314   0.53115   0.00000  Uiso   1.00
H733   H     0.06799   0.14087   0.95064   0.00000  Uiso   1.00
H734   H     0.26933   0.17754   0.55168   0.00000  Uiso   1.00
H735   H     0.20838   0.04158   0.80643   0.00000  Uiso   1.00
H736   H     0.12489   0.29172   0.69360   0.00000  Uiso   1.00
H737   H     0.12464   0.04315   0.69380   0.00000  Uiso   1.00
H738   H     0.20891   0.29025   0.80589   0.00000  Uiso   1.00
N739   N     0.16667   0.28573   0.75000   0.00000  Uiso   1.00
N740   N     0.16667   0.04760   0.75000   0.00000  Uiso   1.00
O741   O     0.10559   0.20487   0.75000   0.00000  Uiso   1.00
O742   O     0.22774   0.12846   0.75001   0.00000  Uiso   1.00
O743   O     0.22774   0.20487   0.75001   0.00000  Uiso   1.00
O744   O     0.10559   0.12846   0.75000   0.00000  Uiso   1.00
O745   O     0.16666   0.20489   0.68393   0.00000  Uiso   1.00
O746   O     0.16667   0.12844   0.81608   0.00000  Uiso   1.00
O747   O     0.16667   0.20489   0.81608   0.00000  Uiso   1.00
O748   O     0.16666   0.12844   0.68393   0.00000  Uiso   1.00
Zn749  Zn    0.16667   0.21771   0.75000   0.00000  Uiso   1.00
Zn750  Zn    0.16667   0.11563   0.75000   0.00000  Uiso   1.00
C751   C     0.24408   0.18370   0.88590   0.00000  Uiso   1.00
C752   C     0.27285   0.14882   0.87973   0.00000  Uiso   1.00
C753   C     0.31075   0.15925   0.86321   0.00000  Uiso   1.00
C754   C     0.31924   0.20393   0.85064   0.00000  Uiso   1.00
C755   C     0.28970   0.23825   0.85429   0.00000  Uiso   1.00
C756   C     0.25226   0.22829   0.87224   0.00000  Uiso   1.00
H757   H     0.26678   0.11426   0.88999   0.00000  Uiso   1.00
H758   H     0.00018   0.13261   0.86028   0.00000  Uiso   1.00
H759   H     0.01527   0.21193   0.83779   0.00000  Uiso   1.00
H760   H     0.29617   0.27273   0.84420   0.00000  Uiso   1.00
H761   H     0.23026   0.25542   0.87699   0.00000  Uiso   1.00
C762   C     0.08988   0.18118   0.60885   0.00000  Uiso   1.00
C763   C     0.06736   0.15181   0.63486   0.00000  Uiso   1.00
C764   C     0.02728   0.16370   0.64449   0.00000  Uiso   1.00
C765   C     0.01054   0.20570   0.63024   0.00000  Uiso   1.00
C766   C     0.03379   0.23610   0.60675   0.00000  Uiso   1.00
C767   C     0.07330   0.22384   0.59584   0.00000  Uiso   1.00
H768   H     0.07967   0.11871   0.64485   0.00000  Uiso   1.00
H769   H     0.00908   0.14022   0.66270   0.00000  Uiso   1.00
H770   H     0.31299   0.21506   0.63758   0.00000  Uiso   1.00
H771   H     0.02081   0.26868   0.59606   0.00000  Uiso   1.00
H772   H     0.09044   0.24678   0.57577   0.00000  Uiso   1.00
Cl773  Cl    0.08745   0.15217   0.86976   0.00000  Uiso   1.00
Cl774  Cl    0.24835   0.15530   0.63152   0.00000  Uiso   1.00
Cl775  Cl    0.04660   0.13042   0.53528   0.00000  Uiso   1.00
Cl776  Cl    0.29163   0.19683   0.96975   0.00000  Uiso   1.00
Cl777  Cl    0.04897   0.07849   0.78787   0.00000  Uiso   1.00
Cl778  Cl    0.28460   0.25595   0.71531   0.00000  Uiso   1.00
Cl779  Cl    0.29006   0.07574   0.78122   0.00000  Uiso   1.00
Cl780  Cl    0.04318   0.26015   0.72640   0.00000  Uiso   1.00
C781   C     0.41994   0.16697   0.75115   0.00000  Uiso   1.00
C782   C     0.58010   0.16645   0.74956   0.00000  Uiso   1.00
C783   C     0.42717   0.14862   0.51596   0.00000  Uiso   1.00
C784   C     0.57636   0.17890   0.98556   0.00000  Uiso   1.00
C785   C     0.35574   0.12768   0.76564   0.00000  Uiso   1.00
C786   C     0.64437   0.20639   0.73706   0.00000  Uiso   1.00
C787   C     0.64669   0.12673   0.76325   0.00000  Uiso   1.00
C788   C     0.35339   0.20762   0.74031   0.00000  Uiso   1.00
C789   C     0.62423   0.16619   0.74921   0.00000  Uiso   1.00
C790   C     0.37588   0.16766   0.75294   0.00000  Uiso   1.00
C791   C     0.52329   0.02361   0.78131   0.00000  Uiso   1.00
C792   C     0.47670   0.30972   0.71867   0.00000  Uiso   1.00
C793   C     0.47663   0.02447   0.71872   0.00000  Uiso   1.00
C794   C     0.52343   0.30888   0.78118   0.00000  Uiso   1.00
C795   C     0.49806   0.16664   0.66343   0.00000  Uiso   1.00
C796   C     0.50246   0.16662   0.83656   0.00000  Uiso   1.00
C797   C     0.54005   0.17434   0.90974   0.00000  Uiso   1.00
C798   C     0.46157   0.16568   0.58960   0.00000  Uiso   1.00
C799   C     0.50317   0.16664   0.88443   0.00000  Uiso   1.00
C800   C     0.49852   0.16571   0.61577   0.00000  Uiso   1.00
C801   C     0.46642   0.15864   0.90409   0.00000  Uiso   1.00
C802   C     0.53634   0.16249   0.59675   0.00000  Uiso   1.00
C803   C     0.46589   0.15714   0.95027   0.00000  Uiso   1.00
C804   C     0.53764   0.16550   0.55054   0.00000  Uiso   1.00
C805   C     0.50258   0.16366   0.97683   0.00000  Uiso   1.00
C806   C     0.50100   0.16237   0.52356   0.00000  Uiso   1.00
C807   C     0.54040   0.17245   0.95694   0.00000  Uiso   1.00
C808   C     0.46271   0.15846   0.54337   0.00000  Uiso   1.00
C809   C     0.42920   0.14840   0.97027   0.00000  Uiso   1.00
C810   C     0.57467   0.17314   0.53115   0.00000  Uiso   1.00
H811   H     0.40133   0.14087   0.95064   0.00000  Uiso   1.00
H812   H     0.60267   0.17754   0.55168   0.00000  Uiso   1.00
H813   H     0.54172   0.04158   0.80643   0.00000  Uiso   1.00
H814   H     0.45823   0.29172   0.69360   0.00000  Uiso   1.00
H815   H     0.45798   0.04315   0.69380   0.00000  Uiso   1.00
H816   H     0.54224   0.29025   0.80589   0.00000  Uiso   1.00
N817   N     0.50000   0.28573   0.75000   0.00000  Uiso   1.00
N818   N     0.50000   0.04760   0.75000   0.00000  Uiso   1.00
O819   O     0.43892   0.20487   0.75000   0.00000  Uiso   1.00
O820   O     0.56108   0.12846   0.75001   0.00000  Uiso   1.00
O821   O     0.56108   0.20487   0.75001   0.00000  Uiso   1.00
O822   O     0.43892   0.12846   0.75000   0.00000  Uiso   1.00
O823   O     0.49999   0.20489   0.68393   0.00000  Uiso   1.00
O824   O     0.50001   0.12844   0.81608   0.00000  Uiso   1.00
O825   O     0.50001   0.20489   0.81608   0.00000  Uiso   1.00
O826   O     0.49999   0.12844   0.68393   0.00000  Uiso   1.00
Zn827  Zn    0.50000   0.21771   0.75000   0.00000  Uiso   1.00
Zn828  Zn    0.50000   0.11563   0.75000   0.00000  Uiso   1.00
C829   C     0.57742   0.18370   0.88590   0.00000  Uiso   1.00
C830   C     0.60618   0.14882   0.87973   0.00000  Uiso   1.00
C831   C     0.64408   0.15925   0.86321   0.00000  Uiso   1.00
C832   C     0.65258   0.20393   0.85064   0.00000  Uiso   1.00
C833   C     0.62303   0.23825   0.85429   0.00000  Uiso   1.00
C834   C     0.58560   0.22829   0.87224   0.00000  Uiso   1.00
H835   H     0.60012   0.11426   0.88999   0.00000  Uiso   1.00
H836   H     0.33351   0.13261   0.86028   0.00000  Uiso   1.00
H837   H     0.34860   0.21193   0.83779   0.00000  Uiso   1.00
H838   H     0.62951   0.27273   0.84420   0.00000  Uiso   1.00
H839   H     0.56359   0.25542   0.87699   0.00000  Uiso   1.00
C840   C     0.42321   0.18118   0.60885   0.00000  Uiso   1.00
C841   C     0.40069   0.15181   0.63486   0.00000  Uiso   1.00
C842   C     0.36061   0.16370   0.64449   0.00000  Uiso   1.00
C843   C     0.34387   0.20570   0.63024   0.00000  Uiso   1.00
C844   C     0.36712   0.23610   0.60675   0.00000  Uiso   1.00
C845   C     0.40664   0.22384   0.59584   0.00000  Uiso   1.00
H846   H     0.41301   0.11871   0.64485   0.00000  Uiso   1.00
H847   H     0.34241   0.14022   0.66270   0.00000  Uiso   1.00
H848   H     0.64632   0.21506   0.63758   0.00000  Uiso   1.00
H849   H     0.35414   0.26868   0.59606   0.00000  Uiso   1.00
H850   H     0.42378   0.24678   0.57577   0.00000  Uiso   1.00
Cl851  Cl    0.42078   0.15217   0.86976   0.00000  Uiso   1.00
Cl852  Cl    0.58168   0.15530   0.63152   0.00000  Uiso   1.00
Cl853  Cl    0.37994   0.13042   0.53528   0.00000  Uiso   1.00
Cl854  Cl    0.62496   0.19683   0.96975   0.00000  Uiso   1.00
Cl855  Cl    0.38230   0.07849   0.78787   0.00000  Uiso   1.00
Cl856  Cl    0.61793   0.25595   0.71531   0.00000  Uiso   1.00
Cl857  Cl    0.62339   0.07574   0.78122   0.00000  Uiso   1.00
Cl858  Cl    0.37652   0.26015   0.72640   0.00000  Uiso   1.00
C859   C     0.75327   0.16697   0.75115   0.00000  Uiso   1.00
C860   C     0.91344   0.16645   0.74956   0.00000  Uiso   1.00
C861   C     0.76050   0.14862   0.51596   0.00000  Uiso   1.00
C862   C     0.90970   0.17890   0.98556   0.00000  Uiso   1.00
C863   C     0.68908   0.12768   0.76564   0.00000  Uiso   1.00
C864   C     0.97770   0.20639   0.73706   0.00000  Uiso   1.00
C865   C     0.98003   0.12673   0.76325   0.00000  Uiso   1.00
C866   C     0.68672   0.20762   0.74031   0.00000  Uiso   1.00
C867   C     0.95756   0.16619   0.74921   0.00000  Uiso   1.00
C868   C     0.70921   0.16766   0.75294   0.00000  Uiso   1.00
C869   C     0.85663   0.02361   0.78131   0.00000  Uiso   1.00
C870   C     0.81003   0.30972   0.71867   0.00000  Uiso   1.00
C871   C     0.80997   0.02447   0.71872   0.00000  Uiso   1.00
C872   C     0.85677   0.30888   0.78118   0.00000  Uiso   1.00
C873   C     0.83139   0.16664   0.66343   0.00000  Uiso   1.00
C874   C     0.83580   0.16662   0.83656   0.00000  Uiso   1.00
C875   C     0.87338   0.17434   0.90974   0.00000  Uiso   1.00
C876   C     0.79490   0.16568   0.58960   0.00000  Uiso   1.00
C877   C     0.83651   0.16664   0.88443   0.00000  Uiso   1.00
C878   C     0.83185   0.16571   0.61577   0.00000  Uiso   1.00
C879   C     0.79976   0.15864   0.90409   0.00000  Uiso   1.00
C880   C     0.86968   0.16249   0.59675   0.00000  Uiso   1.00
C881   C     0.79922   0.15714   0.95027   0.00000  Uiso   1.00
C882   C     0.87097   0.16550   0.55054   0.00000  Uiso   1.00
C883   C     0.83591   0.16366   0.97683   0.00000  Uiso   1.00
C884   C     0.83433   0.16237   0.52356   0.00000  Uiso   1.00
C885   C     0.87374   0.17245   0.95694   0.00000  Uiso   1.00
C886   C     0.79604   0.15846   0.54337   0.00000  Uiso   1.00
C887   C     0.76253   0.14840   0.97027   0.00000  Uiso   1.00
C888   C     0.90800   0.17314   0.53115   0.00000  Uiso   1.00
H889   H     0.73466   0.14087   0.95064   0.00000  Uiso   1.00
H890   H     0.93600   0.17754   0.55168   0.00000  Uiso   1.00
H891   H     0.87505   0.04158   0.80643   0.00000  Uiso   1.00
H892   H     0.79156   0.29172   0.69360   0.00000  Uiso   1.00
H893   H     0.79131   0.04315   0.69380   0.00000  Uiso   1.00
H894   H     0.87557   0.29025   0.80589   0.00000  Uiso   1.00
N895   N     0.83333   0.28573   0.75000   0.00000  Uiso   1.00
N896   N     0.83333   0.04760   0.75000   0.00000  Uiso   1.00
O897   O     0.77226   0.20487   0.75000   0.00000  Uiso   1.00
O898   O     0.89441   0.12846   0.75001   0.00000  Uiso   1.00
O899   O     0.89441   0.20487   0.75001   0.00000  Uiso   1.00
O900   O     0.77226   0.12846   0.75000   0.00000  Uiso   1.00
O901   O     0.83333   0.20489   0.68393   0.00000  Uiso   1.00
O902   O     0.83334   0.12844   0.81608   0.00000  Uiso   1.00
O903   O     0.83334   0.20489   0.81608   0.00000  Uiso   1.00
O904   O     0.83333   0.12844   0.68393   0.00000  Uiso   1.00
Zn905  Zn    0.83333   0.21771   0.75000   0.00000  Uiso   1.00
Zn906  Zn    0.83333   0.11563   0.75000   0.00000  Uiso   1.00
C907   C     0.91075   0.18370   0.88590   0.00000  Uiso   1.00
C908   C     0.93951   0.14882   0.87973   0.00000  Uiso   1.00
C909   C     0.97741   0.15925   0.86321   0.00000  Uiso   1.00
C910   C     0.98591   0.20393   0.85064   0.00000  Uiso   1.00
C911   C     0.95637   0.23825   0.85429   0.00000  Uiso   1.00
C912   C     0.91893   0.22829   0.87224   0.00000  Uiso   1.00
H913   H     0.93345   0.11426   0.88999   0.00000  Uiso   1.00
H914   H     0.66684   0.13261   0.86028   0.00000  Uiso   1.00
H915   H     0.68194   0.21193   0.83779   0.00000  Uiso   1.00
H916   H     0.96284   0.27273   0.84420   0.00000  Uiso   1.00
H917   H     0.89692   0.25542   0.87699   0.00000  Uiso   1.00
C918   C     0.75654   0.18118   0.60885   0.00000  Uiso   1.00
C919   C     0.73402   0.15181   0.63486   0.00000  Uiso   1.00
C920   C     0.69395   0.16370   0.64449   0.00000  Uiso   1.00
C921   C     0.67721   0.20570   0.63024   0.00000  Uiso   1.00
C922   C     0.70045   0.23610   0.60675   0.00000  Uiso   1.00
C923   C     0.73997   0.22384   0.59584   0.00000  Uiso   1.00
H924   H     0.74634   0.11871   0.64485   0.00000  Uiso   1.00
H925   H     0.67574   0.14022   0.66270   0.00000  Uiso   1.00
H926   H     0.97966   0.21506   0.63758   0.00000  Uiso   1.00
H927   H     0.68747   0.26868   0.59606   0.00000  Uiso   1.00
H928   H     0.75711   0.24678   0.57577   0.00000  Uiso   1.00
Cl929  Cl    0.75412   0.15217   0.86976   0.00000  Uiso   1.00
Cl930  Cl    0.91501   0.15530   0.63152   0.00000  Uiso   1.00
Cl931  Cl    0.71327   0.13042   0.53528   0.00000  Uiso   1.00
Cl932  Cl    0.95830   0.19683   0.96975   0.00000  Uiso   1.00
Cl933  Cl    0.71564   0.07849   0.78787   0.00000  Uiso   1.00
Cl934  Cl    0.95126   0.25595   0.71531   0.00000  Uiso   1.00
Cl935  Cl    0.95673   0.07574   0.78122   0.00000  Uiso   1.00
Cl936  Cl    0.70985   0.26015   0.72640   0.00000  Uiso   1.00
C937   C     0.08660   0.50030   0.75115   0.00000  Uiso   1.00
C938   C     0.24677   0.49978   0.74956   0.00000  Uiso   1.00
C939   C     0.09383   0.48195   0.51596   0.00000  Uiso   1.00
C940   C     0.24303   0.51223   0.98556   0.00000  Uiso   1.00
C941   C     0.02241   0.46101   0.76564   0.00000  Uiso   1.00
C942   C     0.31104   0.53973   0.73706   0.00000  Uiso   1.00
C943   C     0.31336   0.46006   0.76325   0.00000  Uiso   1.00
C944   C     0.02006   0.54095   0.74031   0.00000  Uiso   1.00
C945   C     0.29089   0.49952   0.74921   0.00000  Uiso   1.00
C946   C     0.04254   0.50100   0.75294   0.00000  Uiso   1.00
C947   C     0.18996   0.35694   0.78131   0.00000  Uiso   1.00
C948   C     0.14336   0.64305   0.71867   0.00000  Uiso   1.00
C949   C     0.14330   0.35781   0.71872   0.00000  Uiso   1.00
C950   C     0.19010   0.64222   0.78118   0.00000  Uiso   1.00
C951   C     0.16473   0.49997   0.66343   0.00000  Uiso   1.00
C952   C     0.16913   0.49996   0.83656   0.00000  Uiso   1.00
C953   C     0.20672   0.50767   0.90974   0.00000  Uiso   1.00
C954   C     0.12823   0.49901   0.58960   0.00000  Uiso   1.00
C955   C     0.16984   0.49997   0.88443   0.00000  Uiso   1.00
C956   C     0.16518   0.49904   0.61577   0.00000  Uiso   1.00
C957   C     0.13309   0.49198   0.90409   0.00000  Uiso   1.00
C958   C     0.20301   0.49583   0.59675   0.00000  Uiso   1.00
C959   C     0.13256   0.49048   0.95027   0.00000  Uiso   1.00
C960   C     0.20430   0.49883   0.55054   0.00000  Uiso   1.00
C961   C     0.16924   0.49700   0.97683   0.00000  Uiso   1.00
C962   C     0.16766   0.49570   0.52356   0.00000  Uiso   1.00
C963   C     0.20707   0.50578   0.95694   0.00000  Uiso   1.00
C964   C     0.12937   0.49179   0.54337   0.00000  Uiso   1.00
C965   C     0.09586   0.48174   0.97027   0.00000  Uiso   1.00
C966   C     0.24133   0.50647   0.53115   0.00000  Uiso   1.00
H967   H     0.06799   0.47420   0.95064   0.00000  Uiso   1.00
H968   H     0.26933   0.51087   0.55168   0.00000  Uiso   1.00
H969   H     0.20838   0.37492   0.80643   0.00000  Uiso   1.00
H970   H     0.12489   0.62506   0.69360   0.00000  Uiso   1.00
H971   H     0.12464   0.37649   0.69380   0.00000  Uiso   1.00
H972   H     0.20891   0.62358   0.80589   0.00000  Uiso   1.00
N973   N     0.16667   0.61907   0.75000   0.00000  Uiso   1.00
N974   N     0.16667   0.38093   0.75000   0.00000  Uiso   1.00
O975   O     0.10559   0.53821   0.75000   0.00000  Uiso   1.00
O976   O     0.22774   0.46179   0.75001   0.00000  Uiso   1.00
O977   O     0.22774   0.53821   0.75001   0.00000  Uiso   1.00
O978   O     0.10559   0.46179   0.75000   0.00000  Uiso   1.00
O979   O     0.16666   0.53823   0.68393   0.00000  Uiso   1.00
O980   O     0.16667   0.46177   0.81608   0.00000  Uiso   1.00
O981   O     0.16667   0.53823   0.81608   0.00000  Uiso   1.00
O982   O     0.16666   0.46177   0.68393   0.00000  Uiso   1.00
Zn983  Zn    0.16667   0.55104   0.75000   0.00000  Uiso   1.00
Zn984  Zn    0.16667   0.44896   0.75000   0.00000  Uiso   1.00
C985   C     0.24408   0.51703   0.88590   0.00000  Uiso   1.00
C986   C     0.27285   0.48215   0.87973   0.00000  Uiso   1.00
C987   C     0.31075   0.49258   0.86321   0.00000  Uiso   1.00
C988   C     0.31924   0.53726   0.85064   0.00000  Uiso   1.00
C989   C     0.28970   0.57159   0.85429   0.00000  Uiso   1.00
C990   C     0.25226   0.56163   0.87224   0.00000  Uiso   1.00
H991   H     0.26678   0.44759   0.88999   0.00000  Uiso   1.00
H992   H     0.00018   0.46594   0.86028   0.00000  Uiso   1.00
H993   H     0.01527   0.54526   0.83779   0.00000  Uiso   1.00
H994   H     0.29617   0.60607   0.84420   0.00000  Uiso   1.00
H995   H     0.23026   0.58875   0.87699   0.00000  Uiso   1.00
C996   C     0.08988   0.51452   0.60885   0.00000  Uiso   1.00
C997   C     0.06736   0.48515   0.63486   0.00000  Uiso   1.00
C998   C     0.02728   0.49703   0.64449   0.00000  Uiso   1.00
C999   C     0.01054   0.53904   0.63024   0.00000  Uiso   1.00
C1000  C     0.03379   0.56944   0.60675   0.00000  Uiso   1.00
C1001  C     0.07330   0.55718   0.59584   0.00000  Uiso   1.00
H1002  H     0.07967   0.45204   0.64485   0.00000  Uiso   1.00
H1003  H     0.00908   0.47355   0.66270   0.00000  Uiso   1.00
H1004  H     0.31299   0.54840   0.63758   0.00000  Uiso   1.00
H1005  H     0.02081   0.60201   0.59606   0.00000  Uiso   1.00
H1006  H     0.09044   0.58011   0.57577   0.00000  Uiso   1.00
Cl1007 Cl    0.08745   0.48550   0.86976   0.00000  Uiso   1.00
Cl1008 Cl    0.24835   0.48863   0.63152   0.00000  Uiso   1.00
Cl1009 Cl    0.04660   0.46375   0.53528   0.00000  Uiso   1.00
Cl1010 Cl    0.29163   0.53017   0.96975   0.00000  Uiso   1.00
Cl1011 Cl    0.04897   0.41183   0.78787   0.00000  Uiso   1.00
Cl1012 Cl    0.28460   0.58928   0.71531   0.00000  Uiso   1.00
Cl1013 Cl    0.29006   0.40907   0.78122   0.00000  Uiso   1.00
Cl1014 Cl    0.04318   0.59348   0.72640   0.00000  Uiso   1.00
C1015  C     0.41994   0.50030   0.75115   0.00000  Uiso   1.00
C1016  C     0.58010   0.49978   0.74956   0.00000  Uiso   1.00
C1017  C     0.42717   0.48195   0.51596   0.00000  Uiso   1.00
C1018  C     0.57636   0.51223   0.98556   0.00000  Uiso   1.00
C1019  C     0.35574   0.46101   0.76564   0.00000  Uiso   1.00
C1020  C     0.64437   0.53973   0.73706   0.00000  Uiso   1.00
C1021  C     0.64669   0.46006   0.76325   0.00000  Uiso   1.00
C1022  C     0.35339   0.54095   0.74031   0.00000  Uiso   1.00
C1023  C     0.62423   0.49952   0.74921   0.00000  Uiso   1.00
C1024  C     0.37588   0.50100   0.75294   0.00000  Uiso   1.00
C1025  C     0.52329   0.35694   0.78131   0.00000  Uiso   1.00
C1026  C     0.47670   0.64305   0.71867   0.00000  Uiso   1.00
C1027  C     0.47663   0.35781   0.71872   0.00000  Uiso   1.00
C1028  C     0.52343   0.64222   0.78118   0.00000  Uiso   1.00
C1029  C     0.49806   0.49997   0.66343   0.00000  Uiso   1.00
C1030  C     0.50246   0.49996   0.83656   0.00000  Uiso   1.00
C1031  C     0.54005   0.50767   0.90974   0.00000  Uiso   1.00
C1032  C     0.46157   0.49901   0.58960   0.00000  Uiso   1.00
C1033  C     0.50317   0.49997   0.88443   0.00000  Uiso   1.00
C1034  C     0.49852   0.49904   0.61577   0.00000  Uiso   1.00
C1035  C     0.46642   0.49198   0.90409   0.00000  Uiso   1.00
C1036  C     0.53634   0.49583   0.59675   0.00000  Uiso   1.00
C1037  C     0.46589   0.49048   0.95027   0.00000  Uiso   1.00
C1038  C     0.53764   0.49883   0.55054   0.00000  Uiso   1.00
C1039  C     0.50258   0.49700   0.97683   0.00000  Uiso   1.00
C1040  C     0.50100   0.49570   0.52356   0.00000  Uiso   1.00
C1041  C     0.54040   0.50578   0.95694   0.00000  Uiso   1.00
C1042  C     0.46271   0.49179   0.54337   0.00000  Uiso   1.00
C1043  C     0.42920   0.48174   0.97027   0.00000  Uiso   1.00
C1044  C     0.57467   0.50647   0.53115   0.00000  Uiso   1.00
H1045  H     0.40133   0.47420   0.95064   0.00000  Uiso   1.00
H1046  H     0.60267   0.51087   0.55168   0.00000  Uiso   1.00
H1047  H     0.54172   0.37492   0.80643   0.00000  Uiso   1.00
H1048  H     0.45823   0.62506   0.69360   0.00000  Uiso   1.00
H1049  H     0.45798   0.37649   0.69380   0.00000  Uiso   1.00
H1050  H     0.54224   0.62358   0.80589   0.00000  Uiso   1.00
N1051  N     0.50000   0.61907   0.75000   0.00000  Uiso   1.00
N1052  N     0.50000   0.38093   0.75000   0.00000  Uiso   1.00
O1053  O     0.43892   0.53821   0.75000   0.00000  Uiso   1.00
O1054  O     0.56108   0.46179   0.75001   0.00000  Uiso   1.00
O1055  O     0.56108   0.53821   0.75001   0.00000  Uiso   1.00
O1056  O     0.43892   0.46179   0.75000   0.00000  Uiso   1.00
O1057  O     0.49999   0.53823   0.68393   0.00000  Uiso   1.00
O1058  O     0.50001   0.46177   0.81608   0.00000  Uiso   1.00
O1059  O     0.50001   0.53823   0.81608   0.00000  Uiso   1.00
O1060  O     0.49999   0.46177   0.68393   0.00000  Uiso   1.00
Zn1061 Zn    0.50000   0.55104   0.75000   0.00000  Uiso   1.00
Zn1062 Zn    0.50000   0.44896   0.75000   0.00000  Uiso   1.00
C1063  C     0.57742   0.51703   0.88590   0.00000  Uiso   1.00
C1064  C     0.60618   0.48215   0.87973   0.00000  Uiso   1.00
C1065  C     0.64408   0.49258   0.86321   0.00000  Uiso   1.00
C1066  C     0.65258   0.53726   0.85064   0.00000  Uiso   1.00
C1067  C     0.62303   0.57159   0.85429   0.00000  Uiso   1.00
C1068  C     0.58560   0.56163   0.87224   0.00000  Uiso   1.00
H1069  H     0.60012   0.44759   0.88999   0.00000  Uiso   1.00
H1070  H     0.33351   0.46594   0.86028   0.00000  Uiso   1.00
H1071  H     0.34860   0.54526   0.83779   0.00000  Uiso   1.00
H1072  H     0.62951   0.60607   0.84420   0.00000  Uiso   1.00
H1073  H     0.56359   0.58875   0.87699   0.00000  Uiso   1.00
C1074  C     0.42321   0.51452   0.60885   0.00000  Uiso   1.00
C1075  C     0.40069   0.48515   0.63486   0.00000  Uiso   1.00
C1076  C     0.36061   0.49703   0.64449   0.00000  Uiso   1.00
C1077  C     0.34387   0.53904   0.63024   0.00000  Uiso   1.00
C1078  C     0.36712   0.56944   0.60675   0.00000  Uiso   1.00
C1079  C     0.40664   0.55718   0.59584   0.00000  Uiso   1.00
H1080  H     0.41301   0.45204   0.64485   0.00000  Uiso   1.00
H1081  H     0.34241   0.47355   0.66270   0.00000  Uiso   1.00
H1082  H     0.64632   0.54840   0.63758   0.00000  Uiso   1.00
H1083  H     0.35414   0.60201   0.59606   0.00000  Uiso   1.00
H1084  H     0.42378   0.58011   0.57577   0.00000  Uiso   1.00
Cl1085 Cl    0.42078   0.48550   0.86976   0.00000  Uiso   1.00
Cl1086 Cl    0.58168   0.48863   0.63152   0.00000  Uiso   1.00
Cl1087 Cl    0.37994   0.46375   0.53528   0.00000  Uiso   1.00
Cl1088 Cl    0.62496   0.53017   0.96975   0.00000  Uiso   1.00
Cl1089 Cl    0.38230   0.41183   0.78787   0.00000  Uiso   1.00
Cl1090 Cl    0.61793   0.58928   0.71531   0.00000  Uiso   1.00
Cl1091 Cl    0.62339   0.40907   0.78122   0.00000  Uiso   1.00
Cl1092 Cl    0.37652   0.59348   0.72640   0.00000  Uiso   1.00
C1093  C     0.75327   0.50030   0.75115   0.00000  Uiso   1.00
C1094  C     0.91344   0.49978   0.74956   0.00000  Uiso   1.00
C1095  C     0.76050   0.48195   0.51596   0.00000  Uiso   1.00
C1096  C     0.90970   0.51223   0.98556   0.00000  Uiso   1.00
C1097  C     0.68908   0.46101   0.76564   0.00000  Uiso   1.00
C1098  C     0.97770   0.53973   0.73706   0.00000  Uiso   1.00
C1099  C     0.98003   0.46006   0.76325   0.00000  Uiso   1.00
C1100  C     0.68672   0.54095   0.74031   0.00000  Uiso   1.00
C1101  C     0.95756   0.49952   0.74921   0.00000  Uiso   1.00
C1102  C     0.70921   0.50100   0.75294   0.00000  Uiso   1.00
C1103  C     0.85663   0.35694   0.78131   0.00000  Uiso   1.00
C1104  C     0.81003   0.64305   0.71867   0.00000  Uiso   1.00
C1105  C     0.80997   0.35781   0.71872   0.00000  Uiso   1.00
C1106  C     0.85677   0.64222   0.78118   0.00000  Uiso   1.00
C1107  C     0.83139   0.49997   0.66343   0.00000  Uiso   1.00
C1108  C     0.83580   0.49996   0.83656   0.00000  Uiso   1.00
C1109  C     0.87338   0.50767   0.90974   0.00000  Uiso   1.00
C1110  C     0.79490   0.49901   0.58960   0.00000  Uiso   1.00
C1111  C     0.83651   0.49997   0.88443   0.00000  Uiso   1.00
C1112  C     0.83185   0.49904   0.61577   0.00000  Uiso   1.00
C1113  C     0.79976   0.49198   0.90409   0.00000  Uiso   1.00
C1114  C     0.86968   0.49583   0.59675   0.00000  Uiso   1.00
C1115  C     0.79922   0.49048   0.95027   0.00000  Uiso   1.00
C1116  C     0.87097   0.49883   0.55054   0.00000  Uiso   1.00
C1117  C     0.83591   0.49700   0.97683   0.00000  Uiso   1.00
C1118  C     0.83433   0.49570   0.52356   0.00000  Uiso   1.00
C1119  C     0.87374   0.50578   0.95694   0.00000  Uiso   1.00
C1120  C     0.79604   0.49179   0.54337   0.00000  Uiso   1.00
C1121  C     0.76253   0.48174   0.97027   0.00000  Uiso   1.00
C1122  C     0.90800   0.50647   0.53115   0.00000  Uiso   1.00
H1123  H     0.73466   0.47420   0.95064   0.00000  Uiso   1.00
H1124  H     0.93600   0.51087   0.55168   0.00000  Uiso   1.00
H1125  H     0.87505   0.37492   0.80643   0.00000  Uiso   1.00
H1126  H     0.79156   0.62506   0.69360   0.00000  Uiso   1.00
H1127  H     0.79131   0.37649   0.69380   0.00000  Uiso   1.00
H1128  H     0.87557   0.62358   0.80589   0.00000  Uiso   1.00
N1129  N     0.83333   0.61907   0.75000   0.00000  Uiso   1.00
N1130  N     0.83333   0.38093   0.75000   0.00000  Uiso   1.00
O1131  O     0.77226   0.53821   0.75000   0.00000  Uiso   1.00
O1132  O     0.89441   0.46179   0.75001   0.00000  Uiso   1.00
O1133  O     0.89441   0.53821   0.75001   0.00000  Uiso   1.00
O1134  O     0.77226   0.46179   0.75000   0.00000  Uiso   1.00
O1135  O     0.83333   0.53823   0.68393   0.00000  Uiso   1.00
O1136  O     0.83334   0.46177   0.81608   0.00000  Uiso   1.00
O1137  O     0.83334   0.53823   0.81608   0.00000  Uiso   1.00
O1138  O     0.83333   0.46177   0.68393   0.00000  Uiso   1.00
Zn1139 Zn    0.83333   0.55104   0.75000   0.00000  Uiso   1.00
Zn1140 Zn    0.83333   0.44896   0.75000   0.00000  Uiso   1.00
C1141  C     0.91075   0.51703   0.88590   0.00000  Uiso   1.00
C1142  C     0.93951   0.48215   0.87973   0.00000  Uiso   1.00
C1143  C     0.97741   0.49258   0.86321   0.00000  Uiso   1.00
C1144  C     0.98591   0.53726   0.85064   0.00000  Uiso   1.00
C1145  C     0.95637   0.57159   0.85429   0.00000  Uiso   1.00
C1146  C     0.91893   0.56163   0.87224   0.00000  Uiso   1.00
H1147  H     0.93345   0.44759   0.88999   0.00000  Uiso   1.00
H1148  H     0.66684   0.46594   0.86028   0.00000  Uiso   1.00
H1149  H     0.68194   0.54526   0.83779   0.00000  Uiso   1.00
H1150  H     0.96284   0.60607   0.84420   0.00000  Uiso   1.00
H1151  H     0.89692   0.58875   0.87699   0.00000  Uiso   1.00
C1152  C     0.75654   0.51452   0.60885   0.00000  Uiso   1.00
C1153  C     0.73402   0.48515   0.63486   0.00000  Uiso   1.00
C1154  C     0.69395   0.49703   0.64449   0.00000  Uiso   1.00
C1155  C     0.67721   0.53904   0.63024   0.00000  Uiso   1.00
C1156  C     0.70045   0.56944   0.60675   0.00000  Uiso   1.00
C1157  C     0.73997   0.55718   0.59584   0.00000  Uiso   1.00
H1158  H     0.74634   0.45204   0.64485   0.00000  Uiso   1.00
H1159  H     0.67574   0.47355   0.66270   0.00000  Uiso   1.00
H1160  H     0.97966   0.54840   0.63758   0.00000  Uiso   1.00
H1161  H     0.68747   0.60201   0.59606   0.00000  Uiso   1.00
H1162  H     0.75711   0.58011   0.57577   0.00000  Uiso   1.00
Cl1163 Cl    0.75412   0.48550   0.86976   0.00000  Uiso   1.00
Cl1164 Cl    0.91501   0.48863   0.63152   0.00000  Uiso   1.00
Cl1165 Cl    0.71327   0.46375   0.53528   0.00000  Uiso   1.00
Cl1166 Cl    0.95830   0.53017   0.96975   0.00000  Uiso   1.00
Cl1167 Cl    0.71564   0.41183   0.78787   0.00000  Uiso   1.00
Cl1168 Cl    0.95126   0.58928   0.71531   0.00000  Uiso   1.00
Cl1169 Cl    0.95673   0.40907   0.78122   0.00000  Uiso   1.00
Cl1170 Cl    0.70985   0.59348   0.72640   0.00000  Uiso   1.00
C1171  C     0.08660   0.83364   0.75115   0.00000  Uiso   1.00
C1172  C     0.24677   0.83312   0.74956   0.00000  Uiso   1.00
C1173  C     0.09383   0.81528   0.51596   0.00000  Uiso   1.00
C1174  C     0.24303   0.84557   0.98556   0.00000  Uiso   1.00
C1175  C     0.02241   0.79435   0.76564   0.00000  Uiso   1.00
C1176  C     0.31104   0.87306   0.73706   0.00000  Uiso   1.00
C1177  C     0.31336   0.79340   0.76325   0.00000  Uiso   1.00
C1178  C     0.02006   0.87429   0.74031   0.00000  Uiso   1.00
C1179  C     0.29089   0.83286   0.74921   0.00000  Uiso   1.00
C1180  C     0.04254   0.83433   0.75294   0.00000  Uiso   1.00
C1181  C     0.18996   0.69028   0.78131   0.00000  Uiso   1.00
C1182  C     0.14336   0.97639   0.71867   0.00000  Uiso   1.00
C1183  C     0.14330   0.69114   0.71872   0.00000  Uiso   1.00
C1184  C     0.19010   0.97555   0.78118   0.00000  Uiso   1.00
C1185  C     0.16473   0.83331   0.66343   0.00000  Uiso   1.00
C1186  C     0.16913   0.83329   0.83656   0.00000  Uiso   1.00
C1187  C     0.20672   0.84101   0.90974   0.00000  Uiso   1.00
C1188  C     0.12823   0.83234   0.58960   0.00000  Uiso   1.00
C1189  C     0.16984   0.83331   0.88443   0.00000  Uiso   1.00
C1190  C     0.16518   0.83238   0.61577   0.00000  Uiso   1.00
C1191  C     0.13309   0.82531   0.90409   0.00000  Uiso   1.00
C1192  C     0.20301   0.82916   0.59675   0.00000  Uiso   1.00
C1193  C     0.13256   0.82381   0.95027   0.00000  Uiso   1.00
C1194  C     0.20430   0.83216   0.55054   0.00000  Uiso   1.00
C1195  C     0.16924   0.83033   0.97683   0.00000  Uiso   1.00
C1196  C     0.16766   0.82904   0.52356   0.00000  Uiso   1.00
C1197  C     0.20707   0.83911   0.95694   0.00000  Uiso   1.00
C1198  C     0.12937   0.82513   0.54337   0.00000  Uiso   1.00
C1199  C     0.09586   0.81507   0.97027   0.00000  Uiso   1.00
C1200  C     0.24133   0.83980   0.53115   0.00000  Uiso   1.00
H1201  H     0.06799   0.80753   0.95064   0.00000  Uiso   1.00
H1202  H     0.26933   0.84420   0.55168   0.00000  Uiso   1.00
H1203  H     0.20838   0.70825   0.80643   0.00000  Uiso   1.00
H1204  H     0.12489   0.95839   0.69360   0.00000  Uiso   1.00
H1205  H     0.12464   0.70982   0.69380   0.00000  Uiso   1.00
H1206  H     0.20891   0.95691   0.80589   0.00000  Uiso   1.00
N1207  N     0.16667   0.95240   0.75000   0.00000  Uiso   1.00
N1208  N     0.16667   0.71427   0.75000   0.00000  Uiso   1.00
O1209  O     0.10559   0.87154   0.75000   0.00000  Uiso   1.00
O1210  O     0.22774   0.79513   0.75001   0.00000  Uiso   1.00
O1211  O     0.22774   0.87154   0.75001   0.00000  Uiso   1.00
O1212  O     0.10559   0.79513   0.75000   0.00000  Uiso   1.00
O1213  O     0.16666   0.87156   0.68393   0.00000  Uiso   1.00
O1214  O     0.16667   0.79511   0.81608   0.00000  Uiso   1.00
O1215  O     0.16667   0.87156   0.81608   0.00000  Uiso   1.00
O1216  O     0.16666   0.79511   0.68393   0.00000  Uiso   1.00
Zn1217 Zn    0.16667   0.88437   0.75000   0.00000  Uiso   1.00
Zn1218 Zn    0.16667   0.78229   0.75000   0.00000  Uiso   1.00
C1219  C     0.24408   0.85036   0.88590   0.00000  Uiso   1.00
C1220  C     0.27285   0.81548   0.87973   0.00000  Uiso   1.00
C1221  C     0.31075   0.82591   0.86321   0.00000  Uiso   1.00
C1222  C     0.31924   0.87059   0.85064   0.00000  Uiso   1.00
C1223  C     0.28970   0.90492   0.85429   0.00000  Uiso   1.00
C1224  C     0.25226   0.89496   0.87224   0.00000  Uiso   1.00
H1225  H     0.26678   0.78093   0.88999   0.00000  Uiso   1.00
H1226  H     0.00018   0.79927   0.86028   0.00000  Uiso   1.00
H1227  H     0.01527   0.87859   0.83779   0.00000  Uiso   1.00
H1228  H     0.29617   0.93940   0.84420   0.00000  Uiso   1.00
H1229  H     0.23026   0.92208   0.87699   0.00000  Uiso   1.00
C1230  C     0.08988   0.84785   0.60885   0.00000  Uiso   1.00
C1231  C     0.06736   0.81848   0.63486   0.00000  Uiso   1.00
C1232  C     0.02728   0.83036   0.64449   0.00000  Uiso   1.00
C1233  C     0.01054   0.87237   0.63024   0.00000  Uiso   1.00
C1234  C     0.03379   0.90277   0.60675   0.00000  Uiso   1.00
C1235  C     0.07330   0.89051   0.59584   0.00000  Uiso   1.00
H1236  H     0.07967   0.78537   0.64485   0.00000  Uiso   1.00
H1237  H     0.00908   0.80689   0.66270   0.00000  Uiso   1.00
H1238  H     0.31299   0.88173   0.63758   0.00000  Uiso   1.00
H1239  H     0.02081   0.93534   0.59606   0.00000  Uiso   1.00
H1240  H     0.09044   0.91344   0.57577   0.00000  Uiso   1.00
Cl1241 Cl    0.08745   0.81883   0.86976   0.00000  Uiso   1.00
Cl1242 Cl    0.24835   0.82197   0.63152   0.00000  Uiso   1.00
Cl1243 Cl    0.04660   0.79708   0.53528   0.00000  Uiso   1.00
Cl1244 Cl    0.29163   0.86350   0.96975   0.00000  Uiso   1.00
Cl1245 Cl    0.04897   0.74516   0.78787   0.00000  Uiso   1.00
Cl1246 Cl    0.28460   0.92261   0.71531   0.00000  Uiso   1.00
Cl1247 Cl    0.29006   0.74241   0.78122   0.00000  Uiso   1.00
Cl1248 Cl    0.04318   0.92681   0.72640   0.00000  Uiso   1.00
C1249  C     0.41994   0.83364   0.75115   0.00000  Uiso   1.00
C1250  C     0.58010   0.83312   0.74956   0.00000  Uiso   1.00
C1251  C     0.42717   0.81528   0.51596   0.00000  Uiso   1.00
C1252  C     0.57636   0.84557   0.98556   0.00000  Uiso   1.00
C1253  C     0.35574   0.79435   0.76564   0.00000  Uiso   1.00
C1254  C     0.64437   0.87306   0.73706   0.00000  Uiso   1.00
C1255  C     0.64669   0.79340   0.76325   0.00000  Uiso   1.00
C1256  C     0.35339   0.87429   0.74031   0.00000  Uiso   1.00
C1257  C     0.62423   0.83286   0.74921   0.00000  Uiso   1.00
C1258  C     0.37588   0.83433   0.75294   0.00000  Uiso   1.00
C1259  C     0.52329   0.69028   0.78131   0.00000  Uiso   1.00
C1260  C     0.47670   0.97639   0.71867   0.00000  Uiso   1.00
C1261  C     0.47663   0.69114   0.71872   0.00000  Uiso   1.00
C1262  C     0.52343   0.97555   0.78118   0.00000  Uiso   1.00
C1263  C     0.49806   0.83331   0.66343   0.00000  Uiso   1.00
C1264  C     0.50246   0.83329   0.83656   0.00000  Uiso   1.00
C1265  C     0.54005   0.84101   0.90974   0.00000  Uiso   1.00
C1266  C     0.46157   0.83234   0.58960   0.00000  Uiso   1.00
C1267  C     0.50317   0.83331   0.88443   0.00000  Uiso   1.00
C1268  C     0.49852   0.83238   0.61577   0.00000  Uiso   1.00
C1269  C     0.46642   0.82531   0.90409   0.00000  Uiso   1.00
C1270  C     0.53634   0.82916   0.59675   0.00000  Uiso   1.00
C1271  C     0.46589   0.82381   0.95027   0.00000  Uiso   1.00
C1272  C     0.53764   0.83216   0.55054   0.00000  Uiso   1.00
C1273  C     0.50258   0.83033   0.97683   0.00000  Uiso   1.00
C1274  C     0.50100   0.82904   0.52356   0.00000  Uiso   1.00
C1275  C     0.54040   0.83911   0.95694   0.00000  Uiso   1.00
C1276  C     0.46271   0.82513   0.54337   0.00000  Uiso   1.00
C1277  C     0.42920   0.81507   0.97027   0.00000  Uiso   1.00
C1278  C     0.57467   0.83980   0.53115   0.00000  Uiso   1.00
H1279  H     0.40133   0.80753   0.95064   0.00000  Uiso   1.00
H1280  H     0.60267   0.84420   0.55168   0.00000  Uiso   1.00
H1281  H     0.54172   0.70825   0.80643   0.00000  Uiso   1.00
H1282  H     0.45823   0.95839   0.69360   0.00000  Uiso   1.00
H1283  H     0.45798   0.70982   0.69380   0.00000  Uiso   1.00
H1284  H     0.54224   0.95691   0.80589   0.00000  Uiso   1.00
N1285  N     0.50000   0.95240   0.75000   0.00000  Uiso   1.00
N1286  N     0.50000   0.71427   0.75000   0.00000  Uiso   1.00
O1287  O     0.43892   0.87154   0.75000   0.00000  Uiso   1.00
O1288  O     0.56108   0.79513   0.75001   0.00000  Uiso   1.00
O1289  O     0.56108   0.87154   0.75001   0.00000  Uiso   1.00
O1290  O     0.43892   0.79513   0.75000   0.00000  Uiso   1.00
O1291  O     0.49999   0.87156   0.68393   0.00000  Uiso   1.00
O1292  O     0.50001   0.79511   0.81608   0.00000  Uiso   1.00
O1293  O     0.50001   0.87156   0.81608   0.00000  Uiso   1.00
O1294  O     0.49999   0.79511   0.68393   0.00000  Uiso   1.00
Zn1295 Zn    0.50000   0.88437   0.75000   0.00000  Uiso   1.00
Zn1296 Zn    0.50000   0.78229   0.75000   0.00000  Uiso   1.00
C1297  C     0.57742   0.85036   0.88590   0.00000  Uiso   1.00
C1298  C     0.60618   0.81548   0.87973   0.00000  Uiso   1.00
C1299  C     0.64408   0.82591   0.86321   0.00000  Uiso   1.00
C1300  C     0.65258   0.87059   0.85064   0.00000  Uiso   1.00
C1301  C     0.62303   0.90492   0.85429   0.00000  Uiso   1.00
C1302  C     0.58560   0.89496   0.87224   0.00000  Uiso   1.00
H1303  H     0.60012   0.78093   0.88999   0.00000  Uiso   1.00
H1304  H     0.33351   0.79927   0.86028   0.00000  Uiso   1.00
H1305  H     0.34860   0.87859   0.83779   0.00000  Uiso   1.00
H1306  H     0.62951   0.93940   0.84420   0.00000  Uiso   1.00
H1307  H     0.56359   0.92208   0.87699   0.00000  Uiso   1.00
C1308  C     0.42321   0.84785   0.60885   0.00000  Uiso   1.00
C1309  C     0.40069   0.81848   0.63486   0.00000  Uiso   1.00
C1310  C     0.36061   0.83036   0.64449   0.00000  Uiso   1.00
C1311  C     0.34387   0.87237   0.63024   0.00000  Uiso   1.00
C1312  C     0.36712   0.90277   0.60675   0.00000  Uiso   1.00
C1313  C     0.40664   0.89051   0.59584   0.00000  Uiso   1.00
H1314  H     0.41301   0.78537   0.64485   0.00000  Uiso   1.00
H1315  H     0.34241   0.80689   0.66270   0.00000  Uiso   1.00
H1316  H     0.64632   0.88173   0.63758   0.00000  Uiso   1.00
H1317  H     0.35414   0.93534   0.59606   0.00000  Uiso   1.00
H1318  H     0.42378   0.91344   0.57577   0.00000  Uiso   1.00
Cl1319 Cl    0.42078   0.81883   0.86976   0.00000  Uiso   1.00
Cl1320 Cl    0.58168   0.82197   0.63152   0.00000  Uiso   1.00
Cl1321 Cl    0.37994   0.79708   0.53528   0.00000  Uiso   1.00
Cl1322 Cl    0.62496   0.86350   0.96975   0.00000  Uiso   1.00
Cl1323 Cl    0.38230   0.74516   0.78787   0.00000  Uiso   1.00
Cl1324 Cl    0.61793   0.92261   0.71531   0.00000  Uiso   1.00
Cl1325 Cl    0.62339   0.74241   0.78122   0.00000  Uiso   1.00
Cl1326 Cl    0.37652   0.92681   0.72640   0.00000  Uiso   1.00
C1327  C     0.75327   0.83364   0.75115   0.00000  Uiso   1.00
C1328  C     0.91344   0.83312   0.74956   0.00000  Uiso   1.00
C1329  C     0.76050   0.81528   0.51596   0.00000  Uiso   1.00
C1330  C     0.90970   0.84557   0.98556   0.00000  Uiso   1.00
C1331  C     0.68908   0.79435   0.76564   0.00000  Uiso   1.00
C1332  C     0.97770   0.87306   0.73706   0.00000  Uiso   1.00
C1333  C     0.98003   0.79340   0.76325   0.00000  Uiso   1.00
C1334  C     0.68672   0.87429   0.74031   0.00000  Uiso   1.00
C1335  C     0.95756   0.83286   0.74921   0.00000  Uiso   1.00
C1336  C     0.70921   0.83433   0.75294   0.00000  Uiso   1.00
C1337  C     0.85663   0.69028   0.78131   0.00000  Uiso   1.00
C1338  C     0.81003   0.97639   0.71867   0.00000  Uiso   1.00
C1339  C     0.80997   0.69114   0.71872   0.00000  Uiso   1.00
C1340  C     0.85677   0.97555   0.78118   0.00000  Uiso   1.00
C1341  C     0.83139   0.83331   0.66343   0.00000  Uiso   1.00
C1342  C     0.83580   0.83329   0.83656   0.00000  Uiso   1.00
C1343  C     0.87338   0.84101   0.90974   0.00000  Uiso   1.00
C1344  C     0.79490   0.83234   0.58960   0.00000  Uiso   1.00
C1345  C     0.83651   0.83331   0.88443   0.00000  Uiso   1.00
C1346  C     0.83185   0.83238   0.61577   0.00000  Uiso   1.00
C1347  C     0.79976   0.82531   0.90409   0.00000  Uiso   1.00
C1348  C     0.86968   0.82916   0.59675   0.00000  Uiso   1.00
C1349  C     0.79922   0.82381   0.95027   0.00000  Uiso   1.00
C1350  C     0.87097   0.83216   0.55054   0.00000  Uiso   1.00
C1351  C     0.83591   0.83033   0.97683   0.00000  Uiso   1.00
C1352  C     0.83433   0.82904   0.52356   0.00000  Uiso   1.00
C1353  C     0.87374   0.83911   0.95694   0.00000  Uiso   1.00
C1354  C     0.79604   0.82513   0.54337   0.00000  Uiso   1.00
C1355  C     0.76253   0.81507   0.97027   0.00000  Uiso   1.00
C1356  C     0.90800   0.83980   0.53115   0.00000  Uiso   1.00
H1357  H     0.73466   0.80753   0.95064   0.00000  Uiso   1.00
H1358  H     0.93600   0.84420   0.55168   0.00000  Uiso   1.00
H1359  H     0.87505   0.70825   0.80643   0.00000  Uiso   1.00
H1360  H     0.79156   0.95839   0.69360   0.00000  Uiso   1.00
H1361  H     0.79131   0.70982   0.69380   0.00000  Uiso   1.00
H1362  H     0.87557   0.95691   0.80589   0.00000  Uiso   1.00
N1363  N     0.83333   0.95240   0.75000   0.00000  Uiso   1.00
N1364  N     0.83333   0.71427   0.75000   0.00000  Uiso   1.00
O1365  O     0.77226   0.87154   0.75000   0.00000  Uiso   1.00
O1366  O     0.89441   0.79513   0.75001   0.00000  Uiso   1.00
O1367  O     0.89441   0.87154   0.75001   0.00000  Uiso   1.00
O1368  O     0.77226   0.79513   0.75000   0.00000  Uiso   1.00
O1369  O     0.83333   0.87156   0.68393   0.00000  Uiso   1.00
O1370  O     0.83334   0.79511   0.81608   0.00000  Uiso   1.00
O1371  O     0.83334   0.87156   0.81608   0.00000  Uiso   1.00
O1372  O     0.83333   0.79511   0.68393   0.00000  Uiso   1.00
Zn1373 Zn    0.83333   0.88437   0.75000   0.00000  Uiso   1.00
Zn1374 Zn    0.83333   0.78229   0.75000   0.00000  Uiso   1.00
C1375  C     0.91075   0.85036   0.88590   0.00000  Uiso   1.00
C1376  C     0.93951   0.81548   0.87973   0.00000  Uiso   1.00
C1377  C     0.97741   0.82591   0.86321   0.00000  Uiso   1.00
C1378  C     0.98591   0.87059   0.85064   0.00000  Uiso   1.00
C1379  C     0.95637   0.90492   0.85429   0.00000  Uiso   1.00
C1380  C     0.91893   0.89496   0.87224   0.00000  Uiso   1.00
H1381  H     0.93345   0.78093   0.88999   0.00000  Uiso   1.00
H1382  H     0.66684   0.79927   0.86028   0.00000  Uiso   1.00
H1383  H     0.68194   0.87859   0.83779   0.00000  Uiso   1.00
H1384  H     0.96284   0.93940   0.84420   0.00000  Uiso   1.00
H1385  H     0.89692   0.92208   0.87699   0.00000  Uiso   1.00
C1386  C     0.75654   0.84785   0.60885   0.00000  Uiso   1.00
C1387  C     0.73402   0.81848   0.63486   0.00000  Uiso   1.00
C1388  C     0.69395   0.83036   0.64449   0.00000  Uiso   1.00
C1389  C     0.67721   0.87237   0.63024   0.00000  Uiso   1.00
C1390  C     0.70045   0.90277   0.60675   0.00000  Uiso   1.00
C1391  C     0.73997   0.89051   0.59584   0.00000  Uiso   1.00
H1392  H     0.74634   0.78537   0.64485   0.00000  Uiso   1.00
H1393  H     0.67574   0.80689   0.66270   0.00000  Uiso   1.00
H1394  H     0.97966   0.88173   0.63758   0.00000  Uiso   1.00
H1395  H     0.68747   0.93534   0.59606   0.00000  Uiso   1.00
H1396  H     0.75711   0.91344   0.57577   0.00000  Uiso   1.00
Cl1397 Cl    0.75412   0.81883   0.86976   0.00000  Uiso   1.00
Cl1398 Cl    0.91501   0.82197   0.63152   0.00000  Uiso   1.00
Cl1399 Cl    0.71327   0.79708   0.53528   0.00000  Uiso   1.00
Cl1400 Cl    0.95830   0.86350   0.96975   0.00000  Uiso   1.00
Cl1401 Cl    0.71564   0.74516   0.78787   0.00000  Uiso   1.00
Cl1402 Cl    0.95126   0.92261   0.71531   0.00000  Uiso   1.00
Cl1403 Cl    0.95673   0.74241   0.78122   0.00000  Uiso   1.00
Cl1404 Cl    0.70985   0.92681   0.72640   0.00000  Uiso   1.00
loop_
_geom_bond_atom_site_label_1
_geom_bond_atom_site_label_2
_geom_bond_distance
_geom_bond_site_symmetry_2
_ccdc_geom_bond_type
C1     C10     1.443   .     S
C1     O39     1.281   .     A
C1     O42     1.286   .     A
C2     O41     1.283   .     A
C2     O40     1.283   .     A
C2     C9      1.441   .     S
C3     C28     1.418   .     A
C3     Cl73    1.766   .     S
C3     C731    1.379   1_554 S
C4     C27     1.430   .     A
C4     Cl74    1.767   .     S
C4     C732    1.384   .     S
C5     Cl75    1.785   .     S
C5     C10     1.414   .     A
C5     C163    1.382   1_455 S
C6     C9      1.414   .     A
C6     Cl76    1.787   .     S
C6     C86     1.382   .     S
C7     Cl77    1.783   .     S
C7     C9      1.415   .     A
C7     C83     1.382   .     S
C8     Cl78    1.783   .     S
C8     C10     1.416   .     A
C8     C162    1.382   1_455 S
C11    H33     1.081   .     S
C11    N38     1.365   .     A
C11    C482    1.412   1_545 S
C12    N37     1.365   .     A
C12    H34     1.082   .     S
C12    C247    1.412   .     S
C13    H35     1.082   .     S
C13    N38     1.365   .     A
C13    C480    1.412   1_545 S
C14    H36     1.080   .     S
C14    N37     1.364   .     A
C14    C245    1.412   .     S
C15    C20     1.434   .     S
C15    O43     1.284   .     A
C15    O46     1.277   .     A
C16    O44     1.283   .     A
C16    O45     1.279   .     A
C16    C19     1.438   .     S
C17    C27     1.419   .     A
C17    C49     1.478   .     S
C17    C19     1.408   .     A
C18    C28     1.409   .     A
C18    C60     1.478   .     S
C18    C20     1.402   .     A
C19    C21     1.389   .     A
C20    C22     1.393   .     A
C21    Cl71    1.776   .     S
C21    C23     1.390   .     A
C22    Cl72    1.773   .     S
C22    C24     1.394   .     A
C23    C29     1.397   .     A
C23    C25     1.417   .     A
C24    C26     1.411   .     A
C24    C30     1.392   .     A
C25    C27     1.428   .     A
C25    C728    1.409   .     S
C26    C28     1.421   .     A
C26    C727    1.409   1_554 S
C29    H31     1.082   .     S
C29    C705    1.379   .     S
C30    H32     1.083   .     S
C30    C706    1.384   1_554 S
N37    Zn47    1.998   .     S
N38    Zn48    1.998   .     S
O39    Zn47    2.034   .     S
O40    Zn48    2.034   .     S
O41    Zn47    2.026   .     S
O42    Zn48    2.026   .     S
O43    Zn47    2.023   .     S
O44    Zn48    2.023   .     S
O45    Zn47    2.020   .     S
O46    Zn48    2.020   .     S
C49    C54     1.404   .     A
C49    C50     1.402   .     A
C50    C51     1.396   .     A
C50    H55     1.083   .     S
C51    C52     1.399   .     A
C51    H134    1.081   .     S
C52    C53     1.397   .     A
C52    H135    1.081   .     S
C53    C54     1.397   .     A
C53    H58     1.082   .     S
C54    H59     1.083   .     S
H56    C207    1.081   1_455 S
H57    C208    1.081   1_455 S
C60    C61     1.403   .     A
C60    C65     1.405   .     A
C61    H66     1.083   .     S
C61    C62     1.397   .     A
C62    H67     1.082   .     S
C62    C63     1.399   .     A
C63    C64     1.394   .     A
C63    H224    1.078   1_455 S
C64    H69     1.082   .     S
C64    C65     1.393   .     A
C65    H70     1.083   .     S
H68    C141    1.078   .     S
C79    C88     1.443   .     S
C79    O117    1.281   .     A
C79    O120    1.286   .     A
C80    O119    1.283   .     A
C80    O118    1.283   .     A
C80    C87     1.441   .     S
C81    C106    1.418   .     A
C81    Cl151   1.766   .     S
C81    C809    1.379   1_554 S
C82    C105    1.430   .     A
C82    Cl152   1.767   .     S
C82    C810    1.384   .     S
C83    Cl153   1.785   .     S
C83    C88     1.414   .     A
C84    C87     1.414   .     A
C84    Cl154   1.787   .     S
C84    C164    1.382   .     S
C85    Cl155   1.783   .     S
C85    C87     1.415   .     A
C85    C161    1.382   .     S
C86    Cl156   1.783   .     S
C86    C88     1.416   .     A
C89    H111    1.081   .     S
C89    N116    1.365   .     A
C89    C560    1.412   1_545 S
C90    N115    1.365   .     A
C90    H112    1.082   .     S
C90    C325    1.412   .     S
C91    H113    1.082   .     S
C91    N116    1.365   .     A
C91    C558    1.412   1_545 S
C92    H114    1.080   .     S
C92    N115    1.364   .     A
C92    C323    1.412   .     S
C93    C98     1.434   .     S
C93    O121    1.284   .     A
C93    O124    1.277   .     A
C94    O122    1.283   .     A
C94    O123    1.279   .     A
C94    C97     1.438   .     S
C95    C105    1.419   .     A
C95    C127    1.478   .     S
C95    C97     1.408   .     A
C96    C106    1.409   .     A
C96    C138    1.478   .     S
C96    C98     1.402   .     A
C97    C99     1.389   .     A
C98    C100    1.393   .     A
C99    Cl149   1.776   .     S
C99    C101    1.390   .     A
C100   Cl150   1.773   .     S
C100   C102    1.394   .     A
C101   C107    1.397   .     A
C101   C103    1.417   .     A
C102   C104    1.411   .     A
C102   C108    1.392   .     A
C103   C105    1.428   .     A
C103   C806    1.409   .     S
C104   C106    1.421   .     A
C104   C805    1.409   1_554 S
C107   H109    1.082   .     S
C107   C783    1.379   .     S
C108   H110    1.083   .     S
C108   C784    1.384   1_554 S
N115   Zn125   1.998   .     S
N116   Zn126   1.998   .     S
O117   Zn125   2.034   .     S
O118   Zn126   2.034   .     S
O119   Zn125   2.026   .     S
O120   Zn126   2.026   .     S
O121   Zn125   2.023   .     S
O122   Zn126   2.023   .     S
O123   Zn125   2.020   .     S
O124   Zn126   2.020   .     S
C127   C132    1.404   .     A
C127   C128    1.402   .     A
C128   C129    1.396   .     A
C128   H133    1.083   .     S
C129   C130    1.399   .     A
C129   H212    1.081   .     S
C130   C131    1.397   .     A
C130   H213    1.081   .     S
C131   C132    1.397   .     A
C131   H136    1.082   .     S
C132   H137    1.083   .     S
C138   C139    1.403   .     A
C138   C143    1.405   .     A
C139   H144    1.083   .     S
C139   C140    1.397   .     A
C140   H145    1.082   .     S
C140   C141    1.399   .     A
C141   C142    1.394   .     A
C142   H147    1.082   .     S
C142   C143    1.393   .     A
C143   H148    1.083   .     S
H146   C219    1.078   .     S
C157   C166    1.443   .     S
C157   O195    1.281   .     A
C157   O198    1.286   .     A
C158   O197    1.283   .     A
C158   O196    1.283   .     A
C158   C165    1.441   .     S
C159   C184    1.418   .     A
C159   Cl229   1.766   .     S
C159   C887    1.379   1_554 S
C160   C183    1.430   .     A
C160   Cl230   1.767   .     S
C160   C888    1.384   .     S
C161   Cl231   1.785   .     S
C161   C166    1.414   .     A
C162   C165    1.414   .     A
C162   Cl232   1.787   .     S
C162   C8      1.382   1_655 S
C163   Cl233   1.783   .     S
C163   C165    1.415   .     A
C163   C5      1.382   1_655 S
C164   Cl234   1.783   .     S
C164   C166    1.416   .     A
C167   H189    1.081   .     S
C167   N194    1.365   .     A
C167   C638    1.412   1_545 S
C168   N193    1.365   .     A
C168   H190    1.082   .     S
C168   C403    1.412   .     S
C169   H191    1.082   .     S
C169   N194    1.365   .     A
C169   C636    1.412   1_545 S
C170   H192    1.080   .     S
C170   N193    1.364   .     A
C170   C401    1.412   .     S
C171   C176    1.434   .     S
C171   O199    1.284   .     A
C171   O202    1.277   .     A
C172   O200    1.283   .     A
C172   O201    1.279   .     A
C172   C175    1.438   .     S
C173   C183    1.419   .     A
C173   C205    1.478   .     S
C173   C175    1.408   .     A
C174   C184    1.409   .     A
C174   C216    1.478   .     S
C174   C176    1.402   .     A
C175   C177    1.389   .     A
C176   C178    1.393   .     A
C177   Cl227   1.776   .     S
C177   C179    1.390   .     A
C178   Cl228   1.773   .     S
C178   C180    1.394   .     A
C179   C185    1.397   .     A
C179   C181    1.417   .     A
C180   C182    1.411   .     A
C180   C186    1.392   .     A
C181   C183    1.428   .     A
C181   C884    1.409   .     S
C182   C184    1.421   .     A
C182   C883    1.409   1_554 S
C185   H187    1.082   .     S
C185   C861    1.379   .     S
C186   H188    1.083   .     S
C186   C862    1.384   1_554 S
N193   Zn203   1.998   .     S
N194   Zn204   1.998   .     S
O195   Zn203   2.034   .     S
O196   Zn204   2.034   .     S
O197   Zn203   2.026   .     S
O198   Zn204   2.026   .     S
O199   Zn203   2.023   .     S
O200   Zn204   2.023   .     S
O201   Zn203   2.020   .     S
O202   Zn204   2.020   .     S
C205   C210    1.404   .     A
C205   C206    1.402   .     A
C206   C207    1.396   .     A
C206   H211    1.083   .     S
C207   C208    1.399   .     A
C207   H56     1.081   1_655 S
C208   C209    1.397   .     A
C208   H57     1.081   1_655 S
C209   C210    1.397   .     A
C209   H214    1.082   .     S
C210   H215    1.083   .     S
C216   C217    1.403   .     A
C216   C221    1.405   .     A
C217   H222    1.083   .     S
C217   C218    1.397   .     A
C218   H223    1.082   .     S
C218   C219    1.399   .     A
C219   C220    1.394   .     A
C220   H225    1.082   .     S
C220   C221    1.393   .     A
C221   H226    1.083   .     S
H224   C63     1.078   1_655 S
C235   C244    1.443   .     S
C235   O273    1.281   .     A
C235   O276    1.286   .     A
C236   O275    1.283   .     A
C236   O274    1.283   .     A
C236   C243    1.441   .     S
C237   C262    1.418   .     A
C237   Cl307   1.766   .     S
C237   C965    1.379   1_554 S
C238   C261    1.430   .     A
C238   Cl308   1.767   .     S
C238   C966    1.384   .     S
C239   Cl309   1.785   .     S
C239   C244    1.414   .     A
C239   C397    1.382   1_455 S
C240   C243    1.414   .     A
C240   Cl310   1.787   .     S
C240   C320    1.382   .     S
C241   Cl311   1.783   .     S
C241   C243    1.415   .     A
C241   C317    1.382   .     S
C242   Cl312   1.783   .     S
C242   C244    1.416   .     A
C242   C396    1.382   1_455 S
C245   H267    1.081   .     S
C245   N272    1.365   .     A
C246   N271    1.365   .     A
C246   H268    1.082   .     S
C246   C481    1.412   .     S
C247   H269    1.082   .     S
C247   N272    1.365   .     A
C248   H270    1.080   .     S
C248   N271    1.364   .     A
C248   C479    1.412   .     S
C249   C254    1.434   .     S
C249   O277    1.284   .     A
C249   O280    1.277   .     A
C250   O278    1.283   .     A
C250   O279    1.279   .     A
C250   C253    1.438   .     S
C251   C261    1.419   .     A
C251   C283    1.478   .     S
C251   C253    1.408   .     A
C252   C262    1.409   .     A
C252   C294    1.478   .     S
C252   C254    1.402   .     A
C253   C255    1.389   .     A
C254   C256    1.393   .     A
C255   Cl305   1.776   .     S
C255   C257    1.390   .     A
C256   Cl306   1.773   .     S
C256   C258    1.394   .     A
C257   C263    1.397   .     A
C257   C259    1.417   .     A
C258   C260    1.411   .     A
C258   C264    1.392   .     A
C259   C261    1.428   .     A
C259   C962    1.409   .     S
C260   C262    1.421   .     A
C260   C961    1.409   1_554 S
C263   H265    1.082   .     S
C263   C939    1.379   .     S
C264   H266    1.083   .     S
C264   C940    1.384   1_554 S
N271   Zn281   1.998   .     S
N272   Zn282   1.998   .     S
O273   Zn281   2.034   .     S
O274   Zn282   2.034   .     S
O275   Zn281   2.026   .     S
O276   Zn282   2.026   .     S
O277   Zn281   2.023   .     S
O278   Zn282   2.023   .     S
O279   Zn281   2.020   .     S
O280   Zn282   2.020   .     S
C283   C288    1.404   .     A
C283   C284    1.402   .     A
C284   C285    1.396   .     A
C284   H289    1.083   .     S
C285   C286    1.399   .     A
C285   H368    1.081   .     S
C286   C287    1.397   .     A
C286   H369    1.081   .     S
C287   C288    1.397   .     A
C287   H292    1.082   .     S
C288   H293    1.083   .     S
H290   C441    1.081   1_455 S
H291   C442    1.081   1_455 S
C294   C295    1.403   .     A
C294   C299    1.405   .     A
C295   H300    1.083   .     S
C295   C296    1.397   .     A
C296   H301    1.082   .     S
C296   C297    1.399   .     A
C297   C298    1.394   .     A
C297   H458    1.078   1_455 S
C298   H303    1.082   .     S
C298   C299    1.393   .     A
C299   H304    1.083   .     S
H302   C375    1.078   .     S
C313   C322    1.443   .     S
C313   O351    1.281   .     A
C313   O354    1.286   .     A
C314   O353    1.283   .     A
C314   O352    1.283   .     A
C314   C321    1.441   .     S
C315   C340    1.418   .     A
C315   Cl385   1.766   .     S
C315   C1043   1.379   1_554 S
C316   C339    1.430   .     A
C316   Cl386   1.767   .     S
C316   C1044   1.384   .     S
C317   Cl387   1.785   .     S
C317   C322    1.414   .     A
C318   C321    1.414   .     A
C318   Cl388   1.787   .     S
C318   C398    1.382   .     S
C319   Cl389   1.783   .     S
C319   C321    1.415   .     A
C319   C395    1.382   .     S
C320   Cl390   1.783   .     S
C320   C322    1.416   .     A
C323   H345    1.081   .     S
C323   N350    1.365   .     A
C324   N349    1.365   .     A
C324   H346    1.082   .     S
C324   C559    1.412   .     S
C325   H347    1.082   .     S
C325   N350    1.365   .     A
C326   H348    1.080   .     S
C326   N349    1.364   .     A
C326   C557    1.412   .     S
C327   C332    1.434   .     S
C327   O355    1.284   .     A
C327   O358    1.277   .     A
C328   O356    1.283   .     A
C328   O357    1.279   .     A
C328   C331    1.438   .     S
C329   C339    1.419   .     A
C329   C361    1.478   .     S
C329   C331    1.408   .     A
C330   C340    1.409   .     A
C330   C372    1.478   .     S
C330   C332    1.402   .     A
C331   C333    1.389   .     A
C332   C334    1.393   .     A
C333   Cl383   1.776   .     S
C333   C335    1.390   .     A
C334   Cl384   1.773   .     S
C334   C336    1.394   .     A
C335   C341    1.397   .     A
C335   C337    1.417   .     A
C336   C338    1.411   .     A
C336   C342    1.392   .     A
C337   C339    1.428   .     A
C337   C1040   1.409   .     S
C338   C340    1.421   .     A
C338   C1039   1.409   1_554 S
C341   H343    1.082   .     S
C341   C1017   1.379   .     S
C342   H344    1.083   .     S
C342   C1018   1.384   1_554 S
N349   Zn359   1.998   .     S
N350   Zn360   1.998   .     S
O351   Zn359   2.034   .     S
O352   Zn360   2.034   .     S
O353   Zn359   2.026   .     S
O354   Zn360   2.026   .     S
O355   Zn359   2.023   .     S
O356   Zn360   2.023   .     S
O357   Zn359   2.020   .     S
O358   Zn360   2.020   .     S
C361   C366    1.404   .     A
C361   C362    1.402   .     A
C362   C363    1.396   .     A
C362   H367    1.083   .     S
C363   C364    1.399   .     A
C363   H446    1.081   .     S
C364   C365    1.397   .     A
C364   H447    1.081   .     S
C365   C366    1.397   .     A
C365   H370    1.082   .     S
C366   H371    1.083   .     S
C372   C373    1.403   .     A
C372   C377    1.405   .     A
C373   H378    1.083   .     S
C373   C374    1.397   .     A
C374   H379    1.082   .     S
C374   C375    1.399   .     A
C375   C376    1.394   .     A
C376   H381    1.082   .     S
C376   C377    1.393   .     A
C377   H382    1.083   .     S
H380   C453    1.078   .     S
C391   C400    1.443   .     S
C391   O429    1.281   .     A
C391   O432    1.286   .     A
C392   O431    1.283   .     A
C392   O430    1.283   .     A
C392   C399    1.441   .     S
C393   C418    1.418   .     A
C393   Cl463   1.766   .     S
C393   C1121   1.379   1_554 S
C394   C417    1.430   .     A
C394   Cl464   1.767   .     S
C394   C1122   1.384   .     S
C395   Cl465   1.785   .     S
C395   C400    1.414   .     A
C396   C399    1.414   .     A
C396   Cl466   1.787   .     S
C396   C242    1.382   1_655 S
C397   Cl467   1.783   .     S
C397   C399    1.415   .     A
C397   C239    1.382   1_655 S
C398   Cl468   1.783   .     S
C398   C400    1.416   .     A
C401   H423    1.081   .     S
C401   N428    1.365   .     A
C402   N427    1.365   .     A
C402   H424    1.082   .     S
C402   C637    1.412   .     S
C403   H425    1.082   .     S
C403   N428    1.365   .     A
C404   H426    1.080   .     S
C404   N427    1.364   .     A
C404   C635    1.412   .     S
C405   C410    1.434   .     S
C405   O433    1.284   .     A
C405   O436    1.277   .     A
C406   O434    1.283   .     A
C406   O435    1.279   .     A
C406   C409    1.438   .     S
C407   C417    1.419   .     A
C407   C439    1.478   .     S
C407   C409    1.408   .     A
C408   C418    1.409   .     A
C408   C450    1.478   .     S
C408   C410    1.402   .     A
C409   C411    1.389   .     A
C410   C412    1.393   .     A
C411   Cl461   1.776   .     S
C411   C413    1.390   .     A
C412   Cl462   1.773   .     S
C412   C414    1.394   .     A
C413   C419    1.397   .     A
C413   C415    1.417   .     A
C414   C416    1.411   .     A
C414   C420    1.392   .     A
C415   C417    1.428   .     A
C415   C1118   1.409   .     S
C416   C418    1.421   .     A
C416   C1117   1.409   1_554 S
C419   H421    1.082   .     S
C419   C1095   1.379   .     S
C420   H422    1.083   .     S
C420   C1096   1.384   1_554 S
N427   Zn437   1.998   .     S
N428   Zn438   1.998   .     S
O429   Zn437   2.034   .     S
O430   Zn438   2.034   .     S
O431   Zn437   2.026   .     S
O432   Zn438   2.026   .     S
O433   Zn437   2.023   .     S
O434   Zn438   2.023   .     S
O435   Zn437   2.020   .     S
O436   Zn438   2.020   .     S
C439   C444    1.404   .     A
C439   C440    1.402   .     A
C440   C441    1.396   .     A
C440   H445    1.083   .     S
C441   C442    1.399   .     A
C441   H290    1.081   1_655 S
C442   C443    1.397   .     A
C442   H291    1.081   1_655 S
C443   C444    1.397   .     A
C443   H448    1.082   .     S
C444   H449    1.083   .     S
C450   C451    1.403   .     A
C450   C455    1.405   .     A
C451   H456    1.083   .     S
C451   C452    1.397   .     A
C452   H457    1.082   .     S
C452   C453    1.399   .     A
C453   C454    1.394   .     A
C454   H459    1.082   .     S
C454   C455    1.393   .     A
C455   H460    1.083   .     S
H458   C297    1.078   1_655 S
C469   C478    1.443   .     S
C469   O507    1.281   .     A
C469   O510    1.286   .     A
C470   O509    1.283   .     A
C470   O508    1.283   .     A
C470   C477    1.441   .     S
C471   C496    1.418   .     A
C471   Cl541   1.766   .     S
C471   C1199   1.379   1_554 S
C472   C495    1.430   .     A
C472   Cl542   1.767   .     S
C472   C1200   1.384   .     S
C473   Cl543   1.785   .     S
C473   C478    1.414   .     A
C473   C631    1.382   1_455 S
C474   C477    1.414   .     A
C474   Cl544   1.787   .     S
C474   C554    1.382   .     S
C475   Cl545   1.783   .     S
C475   C477    1.415   .     A
C475   C551    1.382   .     S
C476   Cl546   1.783   .     S
C476   C478    1.416   .     A
C476   C630    1.382   1_455 S
C479   H501    1.081   .     S
C479   N506    1.365   .     A
C480   N505    1.365   .     A
C480   H502    1.082   .     S
C480   C13     1.412   1_565 S
C481   H503    1.082   .     S
C481   N506    1.365   .     A
C482   H504    1.080   .     S
C482   N505    1.364   .     A
C482   C11     1.412   1_565 S
C483   C488    1.434   .     S
C483   O511    1.284   .     A
C483   O514    1.277   .     A
C484   O512    1.283   .     A
C484   O513    1.279   .     A
C484   C487    1.438   .     S
C485   C495    1.419   .     A
C485   C517    1.478   .     S
C485   C487    1.408   .     A
C486   C496    1.409   .     A
C486   C528    1.478   .     S
C486   C488    1.402   .     A
C487   C489    1.389   .     A
C488   C490    1.393   .     A
C489   Cl539   1.776   .     S
C489   C491    1.390   .     A
C490   Cl540   1.773   .     S
C490   C492    1.394   .     A
C491   C497    1.397   .     A
C491   C493    1.417   .     A
C492   C494    1.411   .     A
C492   C498    1.392   .     A
C493   C495    1.428   .     A
C493   C1196   1.409   .     S
C494   C496    1.421   .     A
C494   C1195   1.409   1_554 S
C497   H499    1.082   .     S
C497   C1173   1.379   .     S
C498   H500    1.083   .     S
C498   C1174   1.384   1_554 S
N505   Zn515   1.998   .     S
N506   Zn516   1.998   .     S
O507   Zn515   2.034   .     S
O508   Zn516   2.034   .     S
O509   Zn515   2.026   .     S
O510   Zn516   2.026   .     S
O511   Zn515   2.023   .     S
O512   Zn516   2.023   .     S
O513   Zn515   2.020   .     S
O514   Zn516   2.020   .     S
C517   C522    1.404   .     A
C517   C518    1.402   .     A
C518   C519    1.396   .     A
C518   H523    1.083   .     S
C519   C520    1.399   .     A
C519   H602    1.081   .     S
C520   C521    1.397   .     A
C520   H603    1.081   .     S
C521   C522    1.397   .     A
C521   H526    1.082   .     S
C522   H527    1.083   .     S
H524   C675    1.081   1_455 S
H525   C676    1.081   1_455 S
C528   C529    1.403   .     A
C528   C533    1.405   .     A
C529   H534    1.083   .     S
C529   C530    1.397   .     A
C530   H535    1.082   .     S
C530   C531    1.399   .     A
C531   C532    1.394   .     A
C531   H692    1.078   1_455 S
C532   H537    1.082   .     S
C532   C533    1.393   .     A
C533   H538    1.083   .     S
H536   C609    1.078   .     S
C547   C556    1.443   .     S
C547   O585    1.281   .     A
C547   O588    1.286   .     A
C548   O587    1.283   .     A
C548   O586    1.283   .     A
C548   C555    1.441   .     S
C549   C574    1.418   .     A
C549   Cl619   1.766   .     S
C549   C1277   1.379   1_554 S
C550   C573    1.430   .     A
C550   Cl620   1.767   .     S
C550   C1278   1.384   .     S
C551   Cl621   1.785   .     S
C551   C556    1.414   .     A
C552   C555    1.414   .     A
C552   Cl622   1.787   .     S
C552   C632    1.382   .     S
C553   Cl623   1.783   .     S
C553   C555    1.415   .     A
C553   C629    1.382   .     S
C554   Cl624   1.783   .     S
C554   C556    1.416   .     A
C557   H579    1.081   .     S
C557   N584    1.365   .     A
C558   N583    1.365   .     A
C558   H580    1.082   .     S
C558   C91     1.412   1_565 S
C559   H581    1.082   .     S
C559   N584    1.365   .     A
C560   H582    1.080   .     S
C560   N583    1.364   .     A
C560   C89     1.412   1_565 S
C561   C566    1.434   .     S
C561   O589    1.284   .     A
C561   O592    1.277   .     A
C562   O590    1.283   .     A
C562   O591    1.279   .     A
C562   C565    1.438   .     S
C563   C573    1.419   .     A
C563   C595    1.478   .     S
C563   C565    1.408   .     A
C564   C574    1.409   .     A
C564   C606    1.478   .     S
C564   C566    1.402   .     A
C565   C567    1.389   .     A
C566   C568    1.393   .     A
C567   Cl617   1.776   .     S
C567   C569    1.390   .     A
C568   Cl618   1.773   .     S
C568   C570    1.394   .     A
C569   C575    1.397   .     A
C569   C571    1.417   .     A
C570   C572    1.411   .     A
C570   C576    1.392   .     A
C571   C573    1.428   .     A
C571   C1274   1.409   .     S
C572   C574    1.421   .     A
C572   C1273   1.409   1_554 S
C575   H577    1.082   .     S
C575   C1251   1.379   .     S
C576   H578    1.083   .     S
C576   C1252   1.384   1_554 S
N583   Zn593   1.998   .     S
N584   Zn594   1.998   .     S
O585   Zn593   2.034   .     S
O586   Zn594   2.034   .     S
O587   Zn593   2.026   .     S
O588   Zn594   2.026   .     S
O589   Zn593   2.023   .     S
O590   Zn594   2.023   .     S
O591   Zn593   2.020   .     S
O592   Zn594   2.020   .     S
C595   C600    1.404   .     A
C595   C596    1.402   .     A
C596   C597    1.396   .     A
C596   H601    1.083   .     S
C597   C598    1.399   .     A
C597   H680    1.081   .     S
C598   C599    1.397   .     A
C598   H681    1.081   .     S
C599   C600    1.397   .     A
C599   H604    1.082   .     S
C600   H605    1.083   .     S
C606   C607    1.403   .     A
C606   C611    1.405   .     A
C607   H612    1.083   .     S
C607   C608    1.397   .     A
C608   H613    1.082   .     S
C608   C609    1.399   .     A
C609   C610    1.394   .     A
C610   H615    1.082   .     S
C610   C611    1.393   .     A
C611   H616    1.083   .     S
H614   C687    1.078   .     S
C625   C634    1.443   .     S
C625   O663    1.281   .     A
C625   O666    1.286   .     A
C626   O665    1.283   .     A
C626   O664    1.283   .     A
C626   C633    1.441   .     S
C627   C652    1.418   .     A
C627   Cl697   1.766   .     S
C627   C1355   1.379   1_554 S
C628   C651    1.430   .     A
C628   Cl698   1.767   .     S
C628   C1356   1.384   .     S
C629   Cl699   1.785   .     S
C629   C634    1.414   .     A
C630   C633    1.414   .     A
C630   Cl700   1.787   .     S
C630   C476    1.382   1_655 S
C631   Cl701   1.783   .     S
C631   C633    1.415   .     A
C631   C473    1.382   1_655 S
C632   Cl702   1.783   .     S
C632   C634    1.416   .     A
C635   H657    1.081   .     S
C635   N662    1.365   .     A
C636   N661    1.365   .     A
C636   H658    1.082   .     S
C636   C169    1.412   1_565 S
C637   H659    1.082   .     S
C637   N662    1.365   .     A
C638   H660    1.080   .     S
C638   N661    1.364   .     A
C638   C167    1.412   1_565 S
C639   C644    1.434   .     S
C639   O667    1.284   .     A
C639   O670    1.277   .     A
C640   O668    1.283   .     A
C640   O669    1.279   .     A
C640   C643    1.438   .     S
C641   C651    1.419   .     A
C641   C673    1.478   .     S
C641   C643    1.408   .     A
C642   C652    1.409   .     A
C642   C684    1.478   .     S
C642   C644    1.402   .     A
C643   C645    1.389   .     A
C644   C646    1.393   .     A
C645   Cl695   1.776   .     S
C645   C647    1.390   .     A
C646   Cl696   1.773   .     S
C646   C648    1.394   .     A
C647   C653    1.397   .     A
C647   C649    1.417   .     A
C648   C650    1.411   .     A
C648   C654    1.392   .     A
C649   C651    1.428   .     A
C649   C1352   1.409   .     S
C650   C652    1.421   .     A
C650   C1351   1.409   1_554 S
C653   H655    1.082   .     S
C653   C1329   1.379   .     S
C654   H656    1.083   .     S
C654   C1330   1.384   1_554 S
N661   Zn671   1.998   .     S
N662   Zn672   1.998   .     S
O663   Zn671   2.034   .     S
O664   Zn672   2.034   .     S
O665   Zn671   2.026   .     S
O666   Zn672   2.026   .     S
O667   Zn671   2.023   .     S
O668   Zn672   2.023   .     S
O669   Zn671   2.020   .     S
O670   Zn672   2.020   .     S
C673   C678    1.404   .     A
C673   C674    1.402   .     A
C674   C675    1.396   .     A
C674   H679    1.083   .     S
C675   C676    1.399   .     A
C675   H524    1.081   1_655 S
C676   C677    1.397   .     A
C676   H525    1.081   1_655 S
C677   C678    1.397   .     A
C677   H682    1.082   .     S
C678   H683    1.083   .     S
C684   C685    1.403   .     A
C684   C689    1.405   .     A
C685   H690    1.083   .     S
C685   C686    1.397   .     A
C686   H691    1.082   .     S
C686   C687    1.399   .     A
C687   C688    1.394   .     A
C688   H693    1.082   .     S
C688   C689    1.393   .     A
C689   H694    1.083   .     S
H692   C531    1.078   1_655 S
C703   C712    1.443   .     S
C703   O741    1.281   .     A
C703   O744    1.286   .     A
C704   O743    1.283   .     A
C704   O742    1.283   .     A
C704   C711    1.441   .     S
C705   C730    1.418   .     A
C705   Cl775   1.766   .     S
C706   C729    1.430   .     A
C706   Cl776   1.767   .     S
C706   C30     1.384   1_556 S
C707   Cl777   1.785   .     S
C707   C712    1.414   .     A
C707   C865    1.382   1_455 S
C708   C711    1.414   .     A
C708   Cl778   1.787   .     S
C708   C788    1.382   .     S
C709   Cl779   1.783   .     S
C709   C711    1.415   .     A
C709   C785    1.382   .     S
C710   Cl780   1.783   .     S
C710   C712    1.416   .     A
C710   C864    1.382   1_455 S
C713   H735    1.081   .     S
C713   N740    1.365   .     A
C713   C1184   1.412   1_545 S
C714   N739    1.365   .     A
C714   H736    1.082   .     S
C714   C949    1.412   .     S
C715   H737    1.082   .     S
C715   N740    1.365   .     A
C715   C1182   1.412   1_545 S
C716   H738    1.080   .     S
C716   N739    1.364   .     A
C716   C947    1.412   .     S
C717   C722    1.434   .     S
C717   O745    1.284   .     A
C717   O748    1.277   .     A
C718   O746    1.283   .     A
C718   O747    1.279   .     A
C718   C721    1.438   .     S
C719   C729    1.419   .     A
C719   C751    1.478   .     S
C719   C721    1.408   .     A
C720   C730    1.409   .     A
C720   C762    1.478   .     S
C720   C722    1.402   .     A
C721   C723    1.389   .     A
C722   C724    1.393   .     A
C723   Cl773   1.776   .     S
C723   C725    1.390   .     A
C724   Cl774   1.773   .     S
C724   C726    1.394   .     A
C725   C731    1.397   .     A
C725   C727    1.417   .     A
C726   C728    1.411   .     A
C726   C732    1.392   .     A
C727   C729    1.428   .     A
C727   C26     1.409   1_556 S
C728   C730    1.421   .     A
C731   H733    1.082   .     S
C731   C3      1.379   1_556 S
C732   H734    1.083   .     S
N739   Zn749   1.998   .     S
N740   Zn750   1.998   .     S
O741   Zn749   2.034   .     S
O742   Zn750   2.034   .     S
O743   Zn749   2.026   .     S
O744   Zn750   2.026   .     S
O745   Zn749   2.023   .     S
O746   Zn750   2.023   .     S
O747   Zn749   2.020   .     S
O748   Zn750   2.020   .     S
C751   C756    1.404   .     A
C751   C752    1.402   .     A
C752   C753    1.396   .     A
C752   H757    1.083   .     S
C753   C754    1.399   .     A
C753   H836    1.081   .     S
C754   C755    1.397   .     A
C754   H837    1.081   .     S
C755   C756    1.397   .     A
C755   H760    1.082   .     S
C756   H761    1.083   .     S
H758   C909    1.081   1_455 S
H759   C910    1.081   1_455 S
C762   C763    1.403   .     A
C762   C767    1.405   .     A
C763   H768    1.083   .     S
C763   C764    1.397   .     A
C764   H769    1.082   .     S
C764   C765    1.399   .     A
C765   C766    1.394   .     A
C765   H926    1.078   1_455 S
C766   H771    1.082   .     S
C766   C767    1.393   .     A
C767   H772    1.083   .     S
H770   C843    1.078   .     S
C781   C790    1.443   .     S
C781   O819    1.281   .     A
C781   O822    1.286   .     A
C782   O821    1.283   .     A
C782   O820    1.283   .     A
C782   C789    1.441   .     S
C783   C808    1.418   .     A
C783   Cl853   1.766   .     S
C784   C807    1.430   .     A
C784   Cl854   1.767   .     S
C784   C108    1.384   1_556 S
C785   Cl855   1.785   .     S
C785   C790    1.414   .     A
C786   C789    1.414   .     A
C786   Cl856   1.787   .     S
C786   C866    1.382   .     S
C787   Cl857   1.783   .     S
C787   C789    1.415   .     A
C787   C863    1.382   .     S
C788   Cl858   1.783   .     S
C788   C790    1.416   .     A
C791   H813    1.081   .     S
C791   N818    1.365   .     A
C791   C1262   1.412   1_545 S
C792   N817    1.365   .     A
C792   H814    1.082   .     S
C792   C1027   1.412   .     S
C793   H815    1.082   .     S
C793   N818    1.365   .     A
C793   C1260   1.412   1_545 S
C794   H816    1.080   .     S
C794   N817    1.364   .     A
C794   C1025   1.412   .     S
C795   C800    1.434   .     S
C795   O823    1.284   .     A
C795   O826    1.277   .     A
C796   O824    1.283   .     A
C796   O825    1.279   .     A
C796   C799    1.438   .     S
C797   C807    1.419   .     A
C797   C829    1.478   .     S
C797   C799    1.408   .     A
C798   C808    1.409   .     A
C798   C840    1.478   .     S
C798   C800    1.402   .     A
C799   C801    1.389   .     A
C800   C802    1.393   .     A
C801   Cl851   1.776   .     S
C801   C803    1.390   .     A
C802   Cl852   1.773   .     S
C802   C804    1.394   .     A
C803   C809    1.397   .     A
C803   C805    1.417   .     A
C804   C806    1.411   .     A
C804   C810    1.392   .     A
C805   C807    1.428   .     A
C805   C104    1.409   1_556 S
C806   C808    1.421   .     A
C809   H811    1.082   .     S
C809   C81     1.379   1_556 S
C810   H812    1.083   .     S
N817   Zn827   1.998   .     S
N818   Zn828   1.998   .     S
O819   Zn827   2.034   .     S
O820   Zn828   2.034   .     S
O821   Zn827   2.026   .     S
O822   Zn828   2.026   .     S
O823   Zn827   2.023   .     S
O824   Zn828   2.023   .     S
O825   Zn827   2.020   .     S
O826   Zn828   2.020   .     S
C829   C834    1.404   .     A
C829   C830    1.402   .     A
C830   C831    1.396   .     A
C830   H835    1.083   .     S
C831   C832    1.399   .     A
C831   H914    1.081   .     S
C832   C833    1.397   .     A
C832   H915    1.081   .     S
C833   C834    1.397   .     A
C833   H838    1.082   .     S
C834   H839    1.083   .     S
C840   C841    1.403   .     A
C840   C845    1.405   .     A
C841   H846    1.083   .     S
C841   C842    1.397   .     A
C842   H847    1.082   .     S
C842   C843    1.399   .     A
C843   C844    1.394   .     A
C844   H849    1.082   .     S
C844   C845    1.393   .     A
C845   H850    1.083   .     S
H848   C921    1.078   .     S
C859   C868    1.443   .     S
C859   O897    1.281   .     A
C859   O900    1.286   .     A
C860   O899    1.283   .     A
C860   O898    1.283   .     A
C860   C867    1.441   .     S
C861   C886    1.418   .     A
C861   Cl931   1.766   .     S
C862   C885    1.430   .     A
C862   Cl932   1.767   .     S
C862   C186    1.384   1_556 S
C863   Cl933   1.785   .     S
C863   C868    1.414   .     A
C864   C867    1.414   .     A
C864   Cl934   1.787   .     S
C864   C710    1.382   1_655 S
C865   Cl935   1.783   .     S
C865   C867    1.415   .     A
C865   C707    1.382   1_655 S
C866   Cl936   1.783   .     S
C866   C868    1.416   .     A
C869   H891    1.081   .     S
C869   N896    1.365   .     A
C869   C1340   1.412   1_545 S
C870   N895    1.365   .     A
C870   H892    1.082   .     S
C870   C1105   1.412   .     S
C871   H893    1.082   .     S
C871   N896    1.365   .     A
C871   C1338   1.412   1_545 S
C872   H894    1.080   .     S
C872   N895    1.364   .     A
C872   C1103   1.412   .     S
C873   C878    1.434   .     S
C873   O901    1.284   .     A
C873   O904    1.277   .     A
C874   O902    1.283   .     A
C874   O903    1.279   .     A
C874   C877    1.438   .     S
C875   C885    1.419   .     A
C875   C907    1.478   .     S
C875   C877    1.408   .     A
C876   C886    1.409   .     A
C876   C918    1.478   .     S
C876   C878    1.402   .     A
C877   C879    1.389   .     A
C878   C880    1.393   .     A
C879   Cl929   1.776   .     S
C879   C881    1.390   .     A
C880   Cl930   1.773   .     S
C880   C882    1.394   .     A
C881   C887    1.397   .     A
C881   C883    1.417   .     A
C882   C884    1.411   .     A
C882   C888    1.392   .     A
C883   C885    1.428   .     A
C883   C182    1.409   1_556 S
C884   C886    1.421   .     A
C887   H889    1.082   .     S
C887   C159    1.379   1_556 S
C888   H890    1.083   .     S
N895   Zn905   1.998   .     S
N896   Zn906   1.998   .     S
O897   Zn905   2.034   .     S
O898   Zn906   2.034   .     S
O899   Zn905   2.026   .     S
O900   Zn906   2.026   .     S
O901   Zn905   2.023   .     S
O902   Zn906   2.023   .     S
O903   Zn905   2.020   .     S
O904   Zn906   2.020   .     S
C907   C912    1.404   .     A
C907   C908    1.402   .     A
C908   C909    1.396   .     A
C908   H913    1.083   .     S
C909   C910    1.399   .     A
C909   H758    1.081   1_655 S
C910   C911    1.397   .     A
C910   H759    1.081   1_655 S
C911   C912    1.397   .     A
C911   H916    1.082   .     S
C912   H917    1.083   .     S
C918   C919    1.403   .     A
C918   C923    1.405   .     A
C919   H924    1.083   .     S
C919   C920    1.397   .     A
C920   H925    1.082   .     S
C920   C921    1.399   .     A
C921   C922    1.394   .     A
C922   H927    1.082   .     S
C922   C923    1.393   .     A
C923   H928    1.083   .     S
H926   C765    1.078   1_655 S
C937   C946    1.443   .     S
C937   O975    1.281   .     A
C937   O978    1.286   .     A
C938   O977    1.283   .     A
C938   O976    1.283   .     A
C938   C945    1.441   .     S
C939   C964    1.418   .     A
C939   Cl1009  1.766   .     S
C940   C963    1.430   .     A
C940   Cl1010  1.767   .     S
C940   C264    1.384   1_556 S
C941   Cl1011  1.785   .     S
C941   C946    1.414   .     A
C941   C1099   1.382   1_455 S
C942   C945    1.414   .     A
C942   Cl1012  1.787   .     S
C942   C1022   1.382   .     S
C943   Cl1013  1.783   .     S
C943   C945    1.415   .     A
C943   C1019   1.382   .     S
C944   Cl1014  1.783   .     S
C944   C946    1.416   .     A
C944   C1098   1.382   1_455 S
C947   H969    1.081   .     S
C947   N974    1.365   .     A
C948   N973    1.365   .     A
C948   H970    1.082   .     S
C948   C1183   1.412   .     S
C949   H971    1.082   .     S
C949   N974    1.365   .     A
C950   H972    1.080   .     S
C950   N973    1.364   .     A
C950   C1181   1.412   .     S
C951   C956    1.434   .     S
C951   O979    1.284   .     A
C951   O982    1.277   .     A
C952   O980    1.283   .     A
C952   O981    1.279   .     A
C952   C955    1.438   .     S
C953   C963    1.419   .     A
C953   C985    1.478   .     S
C953   C955    1.408   .     A
C954   C964    1.409   .     A
C954   C996    1.478   .     S
C954   C956    1.402   .     A
C955   C957    1.389   .     A
C956   C958    1.393   .     A
C957   Cl1007  1.776   .     S
C957   C959    1.390   .     A
C958   Cl1008  1.773   .     S
C958   C960    1.394   .     A
C959   C965    1.397   .     A
C959   C961    1.417   .     A
C960   C962    1.411   .     A
C960   C966    1.392   .     A
C961   C963    1.428   .     A
C961   C260    1.409   1_556 S
C962   C964    1.421   .     A
C965   H967    1.082   .     S
C965   C237    1.379   1_556 S
C966   H968    1.083   .     S
N973   Zn983   1.998   .     S
N974   Zn984   1.998   .     S
O975   Zn983   2.034   .     S
O976   Zn984   2.034   .     S
O977   Zn983   2.026   .     S
O978   Zn984   2.026   .     S
O979   Zn983   2.023   .     S
O980   Zn984   2.023   .     S
O981   Zn983   2.020   .     S
O982   Zn984   2.020   .     S
C985   C990    1.404   .     A
C985   C986    1.402   .     A
C986   C987    1.396   .     A
C986   H991    1.083   .     S
C987   C988    1.399   .     A
C987   H1070   1.081   .     S
C988   C989    1.397   .     A
C988   H1071   1.081   .     S
C989   C990    1.397   .     A
C989   H994    1.082   .     S
C990   H995    1.083   .     S
H992   C1143   1.081   1_455 S
H993   C1144   1.081   1_455 S
C996   C997    1.403   .     A
C996   C1001   1.405   .     A
C997   H1002   1.083   .     S
C997   C998    1.397   .     A
C998   H1003   1.082   .     S
C998   C999    1.399   .     A
C999   C1000   1.394   .     A
C999   H1160   1.078   1_455 S
C1000  H1005   1.082   .     S
C1000  C1001   1.393   .     A
C1001  H1006   1.083   .     S
H1004  C1077   1.078   .     S
C1015  C1024   1.443   .     S
C1015  O1053   1.281   .     A
C1015  O1056   1.286   .     A
C1016  O1055   1.283   .     A
C1016  O1054   1.283   .     A
C1016  C1023   1.441   .     S
C1017  C1042   1.418   .     A
C1017  Cl1087  1.766   .     S
C1018  C1041   1.430   .     A
C1018  Cl1088  1.767   .     S
C1018  C342    1.384   1_556 S
C1019  Cl1089  1.785   .     S
C1019  C1024   1.414   .     A
C1020  C1023   1.414   .     A
C1020  Cl1090  1.787   .     S
C1020  C1100   1.382   .     S
C1021  Cl1091  1.783   .     S
C1021  C1023   1.415   .     A
C1021  C1097   1.382   .     S
C1022  Cl1092  1.783   .     S
C1022  C1024   1.416   .     A
C1025  H1047   1.081   .     S
C1025  N1052   1.365   .     A
C1026  N1051   1.365   .     A
C1026  H1048   1.082   .     S
C1026  C1261   1.412   .     S
C1027  H1049   1.082   .     S
C1027  N1052   1.365   .     A
C1028  H1050   1.080   .     S
C1028  N1051   1.364   .     A
C1028  C1259   1.412   .     S
C1029  C1034   1.434   .     S
C1029  O1057   1.284   .     A
C1029  O1060   1.277   .     A
C1030  O1058   1.283   .     A
C1030  O1059   1.279   .     A
C1030  C1033   1.438   .     S
C1031  C1041   1.419   .     A
C1031  C1063   1.478   .     S
C1031  C1033   1.408   .     A
C1032  C1042   1.409   .     A
C1032  C1074   1.478   .     S
C1032  C1034   1.402   .     A
C1033  C1035   1.389   .     A
C1034  C1036   1.393   .     A
C1035  Cl1085  1.776   .     S
C1035  C1037   1.390   .     A
C1036  Cl1086  1.773   .     S
C1036  C1038   1.394   .     A
C1037  C1043   1.397   .     A
C1037  C1039   1.417   .     A
C1038  C1040   1.411   .     A
C1038  C1044   1.392   .     A
C1039  C1041   1.428   .     A
C1039  C338    1.409   1_556 S
C1040  C1042   1.421   .     A
C1043  H1045   1.082   .     S
C1043  C315    1.379   1_556 S
C1044  H1046   1.083   .     S
N1051  Zn1061  1.998   .     S
N1052  Zn1062  1.998   .     S
O1053  Zn1061  2.034   .     S
O1054  Zn1062  2.034   .     S
O1055  Zn1061  2.026   .     S
O1056  Zn1062  2.026   .     S
O1057  Zn1061  2.023   .     S
O1058  Zn1062  2.023   .     S
O1059  Zn1061  2.020   .     S
O1060  Zn1062  2.020   .     S
C1063  C1068   1.404   .     A
C1063  C1064   1.402   .     A
C1064  C1065   1.396   .     A
C1064  H1069   1.083   .     S
C1065  C1066   1.399   .     A
C1065  H1148   1.081   .     S
C1066  C1067   1.397   .     A
C1066  H1149   1.081   .     S
C1067  C1068   1.397   .     A
C1067  H1072   1.082   .     S
C1068  H1073   1.083   .     S
C1074  C1075   1.403   .     A
C1074  C1079   1.405   .     A
C1075  H1080   1.083   .     S
C1075  C1076   1.397   .     A
C1076  H1081   1.082   .     S
C1076  C1077   1.399   .     A
C1077  C1078   1.394   .     A
C1078  H1083   1.082   .     S
C1078  C1079   1.393   .     A
C1079  H1084   1.083   .     S
H1082  C1155   1.078   .     S
C1093  C1102   1.443   .     S
C1093  O1131   1.281   .     A
C1093  O1134   1.286   .     A
C1094  O1133   1.283   .     A
C1094  O1132   1.283   .     A
C1094  C1101   1.441   .     S
C1095  C1120   1.418   .     A
C1095  Cl1165  1.766   .     S
C1096  C1119   1.430   .     A
C1096  Cl1166  1.767   .     S
C1096  C420    1.384   1_556 S
C1097  Cl1167  1.785   .     S
C1097  C1102   1.414   .     A
C1098  C1101   1.414   .     A
C1098  Cl1168  1.787   .     S
C1098  C944    1.382   1_655 S
C1099  Cl1169  1.783   .     S
C1099  C1101   1.415   .     A
C1099  C941    1.382   1_655 S
C1100  Cl1170  1.783   .     S
C1100  C1102   1.416   .     A
C1103  H1125   1.081   .     S
C1103  N1130   1.365   .     A
C1104  N1129   1.365   .     A
C1104  H1126   1.082   .     S
C1104  C1339   1.412   .     S
C1105  H1127   1.082   .     S
C1105  N1130   1.365   .     A
C1106  H1128   1.080   .     S
C1106  N1129   1.364   .     A
C1106  C1337   1.412   .     S
C1107  C1112   1.434   .     S
C1107  O1135   1.284   .     A
C1107  O1138   1.277   .     A
C1108  O1136   1.283   .     A
C1108  O1137   1.279   .     A
C1108  C1111   1.438   .     S
C1109  C1119   1.419   .     A
C1109  C1141   1.478   .     S
C1109  C1111   1.408   .     A
C1110  C1120   1.409   .     A
C1110  C1152   1.478   .     S
C1110  C1112   1.402   .     A
C1111  C1113   1.389   .     A
C1112  C1114   1.393   .     A
C1113  Cl1163  1.776   .     S
C1113  C1115   1.390   .     A
C1114  Cl1164  1.773   .     S
C1114  C1116   1.394   .     A
C1115  C1121   1.397   .     A
C1115  C1117   1.417   .     A
C1116  C1118   1.411   .     A
C1116  C1122   1.392   .     A
C1117  C1119   1.428   .     A
C1117  C416    1.409   1_556 S
C1118  C1120   1.421   .     A
C1121  H1123   1.082   .     S
C1121  C393    1.379   1_556 S
C1122  H1124   1.083   .     S
N1129  Zn1139  1.998   .     S
N1130  Zn1140  1.998   .     S
O1131  Zn1139  2.034   .     S
O1132  Zn1140  2.034   .     S
O1133  Zn1139  2.026   .     S
O1134  Zn1140  2.026   .     S
O1135  Zn1139  2.023   .     S
O1136  Zn1140  2.023   .     S
O1137  Zn1139  2.020   .     S
O1138  Zn1140  2.020   .     S
C1141  C1146   1.404   .     A
C1141  C1142   1.402   .     A
C1142  C1143   1.396   .     A
C1142  H1147   1.083   .     S
C1143  C1144   1.399   .     A
C1143  H992    1.081   1_655 S
C1144  C1145   1.397   .     A
C1144  H993    1.081   1_655 S
C1145  C1146   1.397   .     A
C1145  H1150   1.082   .     S
C1146  H1151   1.083   .     S
C1152  C1153   1.403   .     A
C1152  C1157   1.405   .     A
C1153  H1158   1.083   .     S
C1153  C1154   1.397   .     A
C1154  H1159   1.082   .     S
C1154  C1155   1.399   .     A
C1155  C1156   1.394   .     A
C1156  H1161   1.082   .     S
C1156  C1157   1.393   .     A
C1157  H1162   1.083   .     S
H1160  C999    1.078   1_655 S
C1171  C1180   1.443   .     S
C1171  O1209   1.281   .     A
C1171  O1212   1.286   .     A
C1172  O1211   1.283   .     A
C1172  O1210   1.283   .     A
C1172  C1179   1.441   .     S
C1173  C1198   1.418   .     A
C1173  Cl1243  1.766   .     S
C1174  C1197   1.430   .     A
C1174  Cl1244  1.767   .     S
C1174  C498    1.384   1_556 S
C1175  Cl1245  1.785   .     S
C1175  C1180   1.414   .     A
C1175  C1333   1.382   1_455 S
C1176  C1179   1.414   .     A
C1176  Cl1246  1.787   .     S
C1176  C1256   1.382   .     S
C1177  Cl1247  1.783   .     S
C1177  C1179   1.415   .     A
C1177  C1253   1.382   .     S
C1178  Cl1248  1.783   .     S
C1178  C1180   1.416   .     A
C1178  C1332   1.382   1_455 S
C1181  H1203   1.081   .     S
C1181  N1208   1.365   .     A
C1182  N1207   1.365   .     A
C1182  H1204   1.082   .     S
C1182  C715    1.412   1_565 S
C1183  H1205   1.082   .     S
C1183  N1208   1.365   .     A
C1184  H1206   1.080   .     S
C1184  N1207   1.364   .     A
C1184  C713    1.412   1_565 S
C1185  C1190   1.434   .     S
C1185  O1213   1.284   .     A
C1185  O1216   1.277   .     A
C1186  O1214   1.283   .     A
C1186  O1215   1.279   .     A
C1186  C1189   1.438   .     S
C1187  C1197   1.419   .     A
C1187  C1219   1.478   .     S
C1187  C1189   1.408   .     A
C1188  C1198   1.409   .     A
C1188  C1230   1.478   .     S
C1188  C1190   1.402   .     A
C1189  C1191   1.389   .     A
C1190  C1192   1.393   .     A
C1191  Cl1241  1.776   .     S
C1191  C1193   1.390   .     A
C1192  Cl1242  1.773   .     S
C1192  C1194   1.394   .     A
C1193  C1199   1.397   .     A
C1193  C1195   1.417   .     A
C1194  C1196   1.411   .     A
C1194  C1200   1.392   .     A
C1195  C1197   1.428   .     A
C1195  C494    1.409   1_556 S
C1196  C1198   1.421   .     A
C1199  H1201   1.082   .     S
C1199  C471    1.379   1_556 S
C1200  H1202   1.083   .     S
N1207  Zn1217  1.998   .     S
N1208  Zn1218  1.998   .     S
O1209  Zn1217  2.034   .     S
O1210  Zn1218  2.034   .     S
O1211  Zn1217  2.026   .     S
O1212  Zn1218  2.026   .     S
O1213  Zn1217  2.023   .     S
O1214  Zn1218  2.023   .     S
O1215  Zn1217  2.020   .     S
O1216  Zn1218  2.020   .     S
C1219  C1224   1.404   .     A
C1219  C1220   1.402   .     A
C1220  C1221   1.396   .     A
C1220  H1225   1.083   .     S
C1221  C1222   1.399   .     A
C1221  H1304   1.081   .     S
C1222  C1223   1.397   .     A
C1222  H1305   1.081   .     S
C1223  C1224   1.397   .     A
C1223  H1228   1.082   .     S
C1224  H1229   1.083   .     S
H1226  C1377   1.081   1_455 S
H1227  C1378   1.081   1_455 S
C1230  C1231   1.403   .     A
C1230  C1235   1.405   .     A
C1231  H1236   1.083   .     S
C1231  C1232   1.397   .     A
C1232  H1237   1.082   .     S
C1232  C1233   1.399   .     A
C1233  C1234   1.394   .     A
C1233  H1394   1.078   1_455 S
C1234  H1239   1.082   .     S
C1234  C1235   1.393   .     A
C1235  H1240   1.083   .     S
H1238  C1311   1.078   .     S
C1249  C1258   1.443   .     S
C1249  O1287   1.281   .     A
C1249  O1290   1.286   .     A
C1250  O1289   1.283   .     A
C1250  O1288   1.283   .     A
C1250  C1257   1.441   .     S
C1251  C1276   1.418   .     A
C1251  Cl1321  1.766   .     S
C1252  C1275   1.430   .     A
C1252  Cl1322  1.767   .     S
C1252  C576    1.384   1_556 S
C1253  Cl1323  1.785   .     S
C1253  C1258   1.414   .     A
C1254  C1257   1.414   .     A
C1254  Cl1324  1.787   .     S
C1254  C1334   1.382   .     S
C1255  Cl1325  1.783   .     S
C1255  C1257   1.415   .     A
C1255  C1331   1.382   .     S
C1256  Cl1326  1.783   .     S
C1256  C1258   1.416   .     A
C1259  H1281   1.081   .     S
C1259  N1286   1.365   .     A
C1260  N1285   1.365   .     A
C1260  H1282   1.082   .     S
C1260  C793    1.412   1_565 S
C1261  H1283   1.082   .     S
C1261  N1286   1.365   .     A
C1262  H1284   1.080   .     S
C1262  N1285   1.364   .     A
C1262  C791    1.412   1_565 S
C1263  C1268   1.434   .     S
C1263  O1291   1.284   .     A
C1263  O1294   1.277   .     A
C1264  O1292   1.283   .     A
C1264  O1293   1.279   .     A
C1264  C1267   1.438   .     S
C1265  C1275   1.419   .     A
C1265  C1297   1.478   .     S
C1265  C1267   1.408   .     A
C1266  C1276   1.409   .     A
C1266  C1308   1.478   .     S
C1266  C1268   1.402   .     A
C1267  C1269   1.389   .     A
C1268  C1270   1.393   .     A
C1269  Cl1319  1.776   .     S
C1269  C1271   1.390   .     A
C1270  Cl1320  1.773   .     S
C1270  C1272   1.394   .     A
C1271  C1277   1.397   .     A
C1271  C1273   1.417   .     A
C1272  C1274   1.411   .     A
C1272  C1278   1.392   .     A
C1273  C1275   1.428   .     A
C1273  C572    1.409   1_556 S
C1274  C1276   1.421   .     A
C1277  H1279   1.082   .     S
C1277  C549    1.379   1_556 S
C1278  H1280   1.083   .     S
N1285  Zn1295  1.998   .     S
N1286  Zn1296  1.998   .     S
O1287  Zn1295  2.034   .     S
O1288  Zn1296  2.034   .     S
O1289  Zn1295  2.026   .     S
O1290  Zn1296  2.026   .     S
O1291  Zn1295  2.023   .     S
O1292  Zn1296  2.023   .     S
O1293  Zn1295  2.020   .     S
O1294  Zn1296  2.020   .     S
C1297  C1302   1.404   .     A
C1297  C1298   1.402   .     A
C1298  C1299   1.396   .     A
C1298  H1303   1.083   .     S
C1299  C1300   1.399   .     A
C1299  H1382   1.081   .     S
C1300  C1301   1.397   .     A
C1300  H1383   1.081   .     S
C1301  C1302   1.397   .     A
C1301  H1306   1.082   .     S
C1302  H1307   1.083   .     S
C1308  C1309   1.403   .     A
C1308  C1313   1.405   .     A
C1309  H1314   1.083   .     S
C1309  C1310   1.397   .     A
C1310  H1315   1.082   .     S
C1310  C1311   1.399   .     A
C1311  C1312   1.394   .     A
C1312  H1317   1.082   .     S
C1312  C1313   1.393   .     A
C1313  H1318   1.083   .     S
H1316  C1389   1.078   .     S
C1327  C1336   1.443   .     S
C1327  O1365   1.281   .     A
C1327  O1368   1.286   .     A
C1328  O1367   1.283   .     A
C1328  O1366   1.283   .     A
C1328  C1335   1.441   .     S
C1329  C1354   1.418   .     A
C1329  Cl1399  1.766   .     S
C1330  C1353   1.430   .     A
C1330  Cl1400  1.767   .     S
C1330  C654    1.384   1_556 S
C1331  Cl1401  1.785   .     S
C1331  C1336   1.414   .     A
C1332  C1335   1.414   .     A
C1332  Cl1402  1.787   .     S
C1332  C1178   1.382   1_655 S
C1333  Cl1403  1.783   .     S
C1333  C1335   1.415   .     A
C1333  C1175   1.382   1_655 S
C1334  Cl1404  1.783   .     S
C1334  C1336   1.416   .     A
C1337  H1359   1.081   .     S
C1337  N1364   1.365   .     A
C1338  N1363   1.365   .     A
C1338  H1360   1.082   .     S
C1338  C871    1.412   1_565 S
C1339  H1361   1.082   .     S
C1339  N1364   1.365   .     A
C1340  H1362   1.080   .     S
C1340  N1363   1.364   .     A
C1340  C869    1.412   1_565 S
C1341  C1346   1.434   .     S
C1341  O1369   1.284   .     A
C1341  O1372   1.277   .     A
C1342  O1370   1.283   .     A
C1342  O1371   1.279   .     A
C1342  C1345   1.438   .     S
C1343  C1353   1.419   .     A
C1343  C1375   1.478   .     S
C1343  C1345   1.408   .     A
C1344  C1354   1.409   .     A
C1344  C1386   1.478   .     S
C1344  C1346   1.402   .     A
C1345  C1347   1.389   .     A
C1346  C1348   1.393   .     A
C1347  Cl1397  1.776   .     S
C1347  C1349   1.390   .     A
C1348  Cl1398  1.773   .     S
C1348  C1350   1.394   .     A
C1349  C1355   1.397   .     A
C1349  C1351   1.417   .     A
C1350  C1352   1.411   .     A
C1350  C1356   1.392   .     A
C1351  C1353   1.428   .     A
C1351  C650    1.409   1_556 S
C1352  C1354   1.421   .     A
C1355  H1357   1.082   .     S
C1355  C627    1.379   1_556 S
C1356  H1358   1.083   .     S
N1363  Zn1373  1.998   .     S
N1364  Zn1374  1.998   .     S
O1365  Zn1373  2.034   .     S
O1366  Zn1374  2.034   .     S
O1367  Zn1373  2.026   .     S
O1368  Zn1374  2.026   .     S
O1369  Zn1373  2.023   .     S
O1370  Zn1374  2.023   .     S
O1371  Zn1373  2.020   .     S
O1372  Zn1374  2.020   .     S
C1375  C1380   1.404   .     A
C1375  C1376   1.402   .     A
C1376  C1377   1.396   .     A
C1376  H1381   1.083   .     S
C1377  C1378   1.399   .     A
C1377  H1226   1.081   1_655 S
C1378  C1379   1.397   .     A
C1378  H1227   1.081   1_655 S
C1379  C1380   1.397   .     A
C1379  H1384   1.082   .     S
C1380  H1385   1.083   .     S
C1386  C1387   1.403   .     A
C1386  C1391   1.405   .     A
C1387  H1392   1.083   .     S
C1387  C1388   1.397   .     A
C1388  H1393   1.082   .     S
C1388  C1389   1.399   .     A
C1389  C1390   1.394   .     A
C1390  H1395   1.082   .     S
C1390  C1391   1.393   .     A
C1391  H1396   1.083   .     S
H1394  C1233   1.078   1_655 S
