data_str_m3_o2_o5_pcu_sym.63
_audit_creation_date              2020-01-03
_audit_creation_method            'Materials Studio'
_symmetry_space_group_name_H-M    'P1'
_symmetry_Int_Tables_number       1
_symmetry_cell_setting            triclinic
loop_
_symmetry_equiv_pos_as_xyz
  x,y,z
_cell_length_a                    29.8636
_cell_length_b                    28.3225
_cell_length_c                    26.7403
_cell_angle_alpha                 89.9999
_cell_angle_beta                  89.9971
_cell_angle_gamma                 89.7837
loop_
_atom_site_label
_atom_site_type_symbol
_atom_site_fract_x
_atom_site_fract_y
_atom_site_fract_z
_atom_site_U_iso_or_equiv
_atom_site_adp_type
_atom_site_occupancy
C1     C     0.16385   0.25010   0.16739   0.00000  Uiso   1.00
C2     C     0.27219   0.44772   0.12871   0.00000  Uiso   1.00
C3     C     0.25000   0.25000   0.07283   0.00000  Uiso   1.00
C4     C     0.25000   0.25000   0.26050   0.00000  Uiso   1.00
C5     C     0.25000   0.02667   0.16668   0.00000  Uiso   1.00
C6     C     0.25000   0.47333   0.16668   0.00000  Uiso   1.00
C7     C     0.25000   0.25000   0.02178   0.00000  Uiso   1.00
C8     C     0.25000   0.25000   0.31155   0.00000  Uiso   1.00
C9     C     0.04390   0.28258   0.15035   0.00000  Uiso   1.00
C10    C     0.45610   0.21741   0.15036   0.00000  Uiso   1.00
C11    C     0.44963   0.27680   0.21755   0.00000  Uiso   1.00
C12    C     0.33615   0.24990   0.16739   0.00000  Uiso   1.00
C13    C     0.05036   0.22322   0.21756   0.00000  Uiso   1.00
C14    C     0.09006   0.28097   0.14376   0.00000  Uiso   1.00
C15    C     0.40995   0.21902   0.14377   0.00000  Uiso   1.00
C16    C     0.40345   0.27760   0.21072   0.00000  Uiso   1.00
C17    C     0.09654   0.22241   0.21074   0.00000  Uiso   1.00
C18    C     0.11596   0.25058   0.17340   0.00000  Uiso   1.00
C19    C     0.38404   0.24942   0.17340   0.00000  Uiso   1.00
C20    C     0.02408   0.25257   0.18637   0.00000  Uiso   1.00
C21    C     0.47592   0.24744   0.18637   0.00000  Uiso   1.00
C22    C     0.22814   0.10235   0.12986   0.00000  Uiso   1.00
C23    C     0.22827   0.39782   0.20357   0.00000  Uiso   1.00
C24    C     0.27186   0.10218   0.20348   0.00000  Uiso   1.00
C25    C     0.27173   0.39765   0.12977   0.00000  Uiso   1.00
C26    C     0.22767   0.05228   0.12881   0.00000  Uiso   1.00
C27    C     0.22781   0.44789   0.20465   0.00000  Uiso   1.00
C28    C     0.27232   0.05211   0.20455   0.00000  Uiso   1.00
H29    H     0.21088   0.12231   0.10119   0.00000  Uiso   1.00
H30    H     0.10344   0.34483   0.11326   0.00000  Uiso   1.00
H31    H     0.39657   0.15515   0.11329   0.00000  Uiso   1.00
H32    H     0.40310   0.19942   0.07131   0.00000  Uiso   1.00
H33    H     0.38108   0.29616   0.27953   0.00000  Uiso   1.00
H34    H     0.38594   0.34156   0.23861   0.00000  Uiso   1.00
H35    H     0.11406   0.15845   0.23864   0.00000  Uiso   1.00
H36    H     0.11891   0.20387   0.27955   0.00000  Uiso   1.00
H37    H     0.19158   0.05095   0.06835   0.00000  Uiso   1.00
H38    H     0.19194   0.44949   0.26525   0.00000  Uiso   1.00
H39    H     0.30841   0.05051   0.26501   0.00000  Uiso   1.00
H40    H     0.21111   0.37799   0.23230   0.00000  Uiso   1.00
H41    H     0.30805   0.44905   0.06809   0.00000  Uiso   1.00
H42    H     0.28912   0.12201   0.23214   0.00000  Uiso   1.00
H43    H     0.28889   0.37769   0.10103   0.00000  Uiso   1.00
H44    H     0.48844   0.31570   0.13198   0.00000  Uiso   1.00
H45    H     0.01157   0.18430   0.13199   0.00000  Uiso   1.00
H46    H     0.49975   0.29919   0.25859   0.00000  Uiso   1.00
H47    H     0.00024   0.20083   0.25860   0.00000  Uiso   1.00
H48    H     0.09692   0.30055   0.07129   0.00000  Uiso   1.00
N49    N     0.25000   0.12623   0.16667   0.00000  Uiso   1.00
N50    N     0.25000   0.37376   0.16667   0.00000  Uiso   1.00
N51    N     0.11085   0.30939   0.10591   0.00000  Uiso   1.00
N52    N     0.38916   0.19058   0.10592   0.00000  Uiso   1.00
N53    N     0.37582   0.30645   0.24243   0.00000  Uiso   1.00
N54    N     0.12417   0.19357   0.24245   0.00000  Uiso   1.00
O55    O     0.18453   0.28974   0.16667   0.00000  Uiso   1.00
O56    O     0.48051   0.18748   0.11967   0.00000  Uiso   1.00
O57    O     0.46754   0.30598   0.25392   0.00000  Uiso   1.00
O58    O     0.03245   0.19404   0.25394   0.00000  Uiso   1.00
O59    O     0.20527   0.02793   0.09180   0.00000  Uiso   1.00
O60    O     0.20555   0.47241   0.24176   0.00000  Uiso   1.00
O61    O     0.29473   0.02759   0.24157   0.00000  Uiso   1.00
O62    O     0.29446   0.47208   0.09160   0.00000  Uiso   1.00
O63    O     0.31547   0.21026   0.16666   0.00000  Uiso   1.00
O64    O     0.31547   0.28974   0.16666   0.00000  Uiso   1.00
O65    O     0.18453   0.21026   0.16667   0.00000  Uiso   1.00
O66    O     0.25000   0.28973   0.09511   0.00000  Uiso   1.00
O67    O     0.25000   0.21027   0.23822   0.00000  Uiso   1.00
O68    O     0.25000   0.28973   0.23822   0.00000  Uiso   1.00
O69    O     0.25000   0.21027   0.09511   0.00000  Uiso   1.00
O70    O     0.01950   0.31251   0.11965   0.00000  Uiso   1.00
Zn71   Zn    0.25000   0.30307   0.16667   0.00000  Uiso   1.00
Zn72   Zn    0.25000   0.19693   0.16667   0.00000  Uiso   1.00
C73    C     0.66385   0.25010   0.16739   0.00000  Uiso   1.00
C74    C     0.77219   0.44772   0.12871   0.00000  Uiso   1.00
C75    C     0.75000   0.25000   0.07283   0.00000  Uiso   1.00
C76    C     0.75000   0.25000   0.26050   0.00000  Uiso   1.00
C77    C     0.75000   0.02667   0.16668   0.00000  Uiso   1.00
C78    C     0.75000   0.47333   0.16668   0.00000  Uiso   1.00
C79    C     0.75000   0.25000   0.02178   0.00000  Uiso   1.00
C80    C     0.75000   0.25000   0.31155   0.00000  Uiso   1.00
C81    C     0.54390   0.28258   0.15035   0.00000  Uiso   1.00
C82    C     0.95610   0.21741   0.15036   0.00000  Uiso   1.00
C83    C     0.94963   0.27680   0.21755   0.00000  Uiso   1.00
C84    C     0.83615   0.24990   0.16739   0.00000  Uiso   1.00
C85    C     0.55036   0.22322   0.21756   0.00000  Uiso   1.00
C86    C     0.59006   0.28097   0.14376   0.00000  Uiso   1.00
C87    C     0.90995   0.21902   0.14377   0.00000  Uiso   1.00
C88    C     0.90345   0.27760   0.21072   0.00000  Uiso   1.00
C89    C     0.59654   0.22241   0.21074   0.00000  Uiso   1.00
C90    C     0.61596   0.25058   0.17340   0.00000  Uiso   1.00
C91    C     0.88404   0.24942   0.17340   0.00000  Uiso   1.00
C92    C     0.52408   0.25257   0.18637   0.00000  Uiso   1.00
C93    C     0.97592   0.24744   0.18637   0.00000  Uiso   1.00
C94    C     0.72814   0.10235   0.12986   0.00000  Uiso   1.00
C95    C     0.72827   0.39782   0.20357   0.00000  Uiso   1.00
C96    C     0.77186   0.10218   0.20348   0.00000  Uiso   1.00
C97    C     0.77173   0.39765   0.12977   0.00000  Uiso   1.00
C98    C     0.72767   0.05228   0.12881   0.00000  Uiso   1.00
C99    C     0.72781   0.44789   0.20465   0.00000  Uiso   1.00
C100   C     0.77232   0.05211   0.20455   0.00000  Uiso   1.00
H101   H     0.71088   0.12231   0.10119   0.00000  Uiso   1.00
H102   H     0.60344   0.34483   0.11326   0.00000  Uiso   1.00
H103   H     0.89657   0.15515   0.11329   0.00000  Uiso   1.00
H104   H     0.90310   0.19942   0.07131   0.00000  Uiso   1.00
H105   H     0.88108   0.29616   0.27953   0.00000  Uiso   1.00
H106   H     0.88594   0.34156   0.23861   0.00000  Uiso   1.00
H107   H     0.61406   0.15845   0.23864   0.00000  Uiso   1.00
H108   H     0.61891   0.20387   0.27955   0.00000  Uiso   1.00
H109   H     0.69158   0.05095   0.06835   0.00000  Uiso   1.00
H110   H     0.69194   0.44949   0.26525   0.00000  Uiso   1.00
H111   H     0.80841   0.05051   0.26501   0.00000  Uiso   1.00
H112   H     0.71111   0.37799   0.23230   0.00000  Uiso   1.00
H113   H     0.80805   0.44905   0.06809   0.00000  Uiso   1.00
H114   H     0.78912   0.12201   0.23214   0.00000  Uiso   1.00
H115   H     0.78889   0.37769   0.10103   0.00000  Uiso   1.00
H116   H     0.98844   0.31570   0.13198   0.00000  Uiso   1.00
H117   H     0.51157   0.18430   0.13199   0.00000  Uiso   1.00
H118   H     0.99975   0.29919   0.25859   0.00000  Uiso   1.00
H119   H     0.50024   0.20083   0.25860   0.00000  Uiso   1.00
H120   H     0.59692   0.30055   0.07129   0.00000  Uiso   1.00
N121   N     0.75000   0.12623   0.16667   0.00000  Uiso   1.00
N122   N     0.75000   0.37376   0.16667   0.00000  Uiso   1.00
N123   N     0.61085   0.30939   0.10591   0.00000  Uiso   1.00
N124   N     0.88916   0.19058   0.10592   0.00000  Uiso   1.00
N125   N     0.87582   0.30645   0.24243   0.00000  Uiso   1.00
N126   N     0.62417   0.19357   0.24245   0.00000  Uiso   1.00
O127   O     0.68453   0.28974   0.16667   0.00000  Uiso   1.00
O128   O     0.98051   0.18748   0.11967   0.00000  Uiso   1.00
O129   O     0.96754   0.30598   0.25392   0.00000  Uiso   1.00
O130   O     0.53245   0.19404   0.25394   0.00000  Uiso   1.00
O131   O     0.70527   0.02793   0.09180   0.00000  Uiso   1.00
O132   O     0.70555   0.47241   0.24176   0.00000  Uiso   1.00
O133   O     0.79473   0.02759   0.24157   0.00000  Uiso   1.00
O134   O     0.79446   0.47208   0.09160   0.00000  Uiso   1.00
O135   O     0.81547   0.21026   0.16666   0.00000  Uiso   1.00
O136   O     0.81547   0.28974   0.16666   0.00000  Uiso   1.00
O137   O     0.68453   0.21026   0.16667   0.00000  Uiso   1.00
O138   O     0.75000   0.28973   0.09511   0.00000  Uiso   1.00
O139   O     0.75000   0.21027   0.23822   0.00000  Uiso   1.00
O140   O     0.75000   0.28973   0.23822   0.00000  Uiso   1.00
O141   O     0.75000   0.21027   0.09511   0.00000  Uiso   1.00
O142   O     0.51950   0.31251   0.11965   0.00000  Uiso   1.00
Zn143  Zn    0.75000   0.30307   0.16667   0.00000  Uiso   1.00
Zn144  Zn    0.75000   0.19693   0.16667   0.00000  Uiso   1.00
C145   C     0.16385   0.75010   0.16739   0.00000  Uiso   1.00
C146   C     0.27219   0.94772   0.12871   0.00000  Uiso   1.00
C147   C     0.25000   0.75000   0.07283   0.00000  Uiso   1.00
C148   C     0.25000   0.75000   0.26050   0.00000  Uiso   1.00
C149   C     0.25000   0.52667   0.16668   0.00000  Uiso   1.00
C150   C     0.25000   0.97333   0.16668   0.00000  Uiso   1.00
C151   C     0.25000   0.75000   0.02178   0.00000  Uiso   1.00
C152   C     0.25000   0.75000   0.31155   0.00000  Uiso   1.00
C153   C     0.04390   0.78258   0.15035   0.00000  Uiso   1.00
C154   C     0.45610   0.71741   0.15036   0.00000  Uiso   1.00
C155   C     0.44963   0.77680   0.21755   0.00000  Uiso   1.00
C156   C     0.33615   0.74990   0.16739   0.00000  Uiso   1.00
C157   C     0.05036   0.72322   0.21756   0.00000  Uiso   1.00
C158   C     0.09006   0.78097   0.14376   0.00000  Uiso   1.00
C159   C     0.40995   0.71902   0.14377   0.00000  Uiso   1.00
C160   C     0.40345   0.77760   0.21072   0.00000  Uiso   1.00
C161   C     0.09654   0.72241   0.21074   0.00000  Uiso   1.00
C162   C     0.11596   0.75058   0.17340   0.00000  Uiso   1.00
C163   C     0.38404   0.74942   0.17340   0.00000  Uiso   1.00
C164   C     0.02408   0.75257   0.18637   0.00000  Uiso   1.00
C165   C     0.47592   0.74744   0.18637   0.00000  Uiso   1.00
C166   C     0.22814   0.60235   0.12986   0.00000  Uiso   1.00
C167   C     0.22827   0.89782   0.20357   0.00000  Uiso   1.00
C168   C     0.27186   0.60218   0.20348   0.00000  Uiso   1.00
C169   C     0.27173   0.89765   0.12977   0.00000  Uiso   1.00
C170   C     0.22767   0.55228   0.12881   0.00000  Uiso   1.00
C171   C     0.22781   0.94789   0.20465   0.00000  Uiso   1.00
C172   C     0.27232   0.55211   0.20455   0.00000  Uiso   1.00
H173   H     0.21088   0.62231   0.10119   0.00000  Uiso   1.00
H174   H     0.10344   0.84483   0.11326   0.00000  Uiso   1.00
H175   H     0.39657   0.65515   0.11329   0.00000  Uiso   1.00
H176   H     0.40310   0.69942   0.07131   0.00000  Uiso   1.00
H177   H     0.38108   0.79616   0.27953   0.00000  Uiso   1.00
H178   H     0.38594   0.84156   0.23861   0.00000  Uiso   1.00
H179   H     0.11406   0.65845   0.23864   0.00000  Uiso   1.00
H180   H     0.11891   0.70387   0.27955   0.00000  Uiso   1.00
H181   H     0.19158   0.55095   0.06835   0.00000  Uiso   1.00
H182   H     0.19194   0.94949   0.26525   0.00000  Uiso   1.00
H183   H     0.30841   0.55051   0.26501   0.00000  Uiso   1.00
H184   H     0.21111   0.87799   0.23230   0.00000  Uiso   1.00
H185   H     0.30805   0.94905   0.06809   0.00000  Uiso   1.00
H186   H     0.28912   0.62201   0.23214   0.00000  Uiso   1.00
H187   H     0.28889   0.87769   0.10103   0.00000  Uiso   1.00
H188   H     0.48844   0.81570   0.13198   0.00000  Uiso   1.00
H189   H     0.01157   0.68430   0.13199   0.00000  Uiso   1.00
H190   H     0.49975   0.79919   0.25859   0.00000  Uiso   1.00
H191   H     0.00024   0.70083   0.25860   0.00000  Uiso   1.00
H192   H     0.09692   0.80055   0.07129   0.00000  Uiso   1.00
N193   N     0.25000   0.62623   0.16667   0.00000  Uiso   1.00
N194   N     0.25000   0.87376   0.16667   0.00000  Uiso   1.00
N195   N     0.11085   0.80939   0.10591   0.00000  Uiso   1.00
N196   N     0.38916   0.69058   0.10592   0.00000  Uiso   1.00
N197   N     0.37582   0.80645   0.24243   0.00000  Uiso   1.00
N198   N     0.12417   0.69357   0.24245   0.00000  Uiso   1.00
O199   O     0.18453   0.78974   0.16667   0.00000  Uiso   1.00
O200   O     0.48051   0.68748   0.11967   0.00000  Uiso   1.00
O201   O     0.46754   0.80598   0.25392   0.00000  Uiso   1.00
O202   O     0.03245   0.69404   0.25394   0.00000  Uiso   1.00
O203   O     0.20527   0.52793   0.09180   0.00000  Uiso   1.00
O204   O     0.20555   0.97241   0.24176   0.00000  Uiso   1.00
O205   O     0.29473   0.52759   0.24157   0.00000  Uiso   1.00
O206   O     0.29446   0.97208   0.09160   0.00000  Uiso   1.00
O207   O     0.31547   0.71026   0.16666   0.00000  Uiso   1.00
O208   O     0.31547   0.78974   0.16666   0.00000  Uiso   1.00
O209   O     0.18453   0.71026   0.16667   0.00000  Uiso   1.00
O210   O     0.25000   0.78973   0.09511   0.00000  Uiso   1.00
O211   O     0.25000   0.71027   0.23822   0.00000  Uiso   1.00
O212   O     0.25000   0.78973   0.23822   0.00000  Uiso   1.00
O213   O     0.25000   0.71027   0.09511   0.00000  Uiso   1.00
O214   O     0.01950   0.81251   0.11965   0.00000  Uiso   1.00
Zn215  Zn    0.25000   0.80307   0.16667   0.00000  Uiso   1.00
Zn216  Zn    0.25000   0.69693   0.16667   0.00000  Uiso   1.00
C217   C     0.66385   0.75010   0.16739   0.00000  Uiso   1.00
C218   C     0.77219   0.94772   0.12871   0.00000  Uiso   1.00
C219   C     0.75000   0.75000   0.07283   0.00000  Uiso   1.00
C220   C     0.75000   0.75000   0.26050   0.00000  Uiso   1.00
C221   C     0.75000   0.52667   0.16668   0.00000  Uiso   1.00
C222   C     0.75000   0.97333   0.16668   0.00000  Uiso   1.00
C223   C     0.75000   0.75000   0.02178   0.00000  Uiso   1.00
C224   C     0.75000   0.75000   0.31155   0.00000  Uiso   1.00
C225   C     0.54390   0.78258   0.15035   0.00000  Uiso   1.00
C226   C     0.95610   0.71741   0.15036   0.00000  Uiso   1.00
C227   C     0.94963   0.77680   0.21755   0.00000  Uiso   1.00
C228   C     0.83615   0.74990   0.16739   0.00000  Uiso   1.00
C229   C     0.55036   0.72322   0.21756   0.00000  Uiso   1.00
C230   C     0.59006   0.78097   0.14376   0.00000  Uiso   1.00
C231   C     0.90995   0.71902   0.14377   0.00000  Uiso   1.00
C232   C     0.90345   0.77760   0.21072   0.00000  Uiso   1.00
C233   C     0.59654   0.72241   0.21074   0.00000  Uiso   1.00
C234   C     0.61596   0.75058   0.17340   0.00000  Uiso   1.00
C235   C     0.88404   0.74942   0.17340   0.00000  Uiso   1.00
C236   C     0.52408   0.75257   0.18637   0.00000  Uiso   1.00
C237   C     0.97592   0.74744   0.18637   0.00000  Uiso   1.00
C238   C     0.72814   0.60235   0.12986   0.00000  Uiso   1.00
C239   C     0.72827   0.89782   0.20357   0.00000  Uiso   1.00
C240   C     0.77186   0.60218   0.20348   0.00000  Uiso   1.00
C241   C     0.77173   0.89765   0.12977   0.00000  Uiso   1.00
C242   C     0.72767   0.55228   0.12881   0.00000  Uiso   1.00
C243   C     0.72781   0.94789   0.20465   0.00000  Uiso   1.00
C244   C     0.77232   0.55211   0.20455   0.00000  Uiso   1.00
H245   H     0.71088   0.62231   0.10119   0.00000  Uiso   1.00
H246   H     0.60344   0.84483   0.11326   0.00000  Uiso   1.00
H247   H     0.89657   0.65515   0.11329   0.00000  Uiso   1.00
H248   H     0.90310   0.69942   0.07131   0.00000  Uiso   1.00
H249   H     0.88108   0.79616   0.27953   0.00000  Uiso   1.00
H250   H     0.88594   0.84156   0.23861   0.00000  Uiso   1.00
H251   H     0.61406   0.65845   0.23864   0.00000  Uiso   1.00
H252   H     0.61891   0.70387   0.27955   0.00000  Uiso   1.00
H253   H     0.69158   0.55095   0.06835   0.00000  Uiso   1.00
H254   H     0.69194   0.94949   0.26525   0.00000  Uiso   1.00
H255   H     0.80841   0.55051   0.26501   0.00000  Uiso   1.00
H256   H     0.71111   0.87799   0.23230   0.00000  Uiso   1.00
H257   H     0.80805   0.94905   0.06809   0.00000  Uiso   1.00
H258   H     0.78912   0.62201   0.23214   0.00000  Uiso   1.00
H259   H     0.78889   0.87769   0.10103   0.00000  Uiso   1.00
H260   H     0.98844   0.81570   0.13198   0.00000  Uiso   1.00
H261   H     0.51157   0.68430   0.13199   0.00000  Uiso   1.00
H262   H     0.99975   0.79919   0.25859   0.00000  Uiso   1.00
H263   H     0.50024   0.70083   0.25860   0.00000  Uiso   1.00
H264   H     0.59692   0.80055   0.07129   0.00000  Uiso   1.00
N265   N     0.75000   0.62623   0.16667   0.00000  Uiso   1.00
N266   N     0.75000   0.87376   0.16667   0.00000  Uiso   1.00
N267   N     0.61085   0.80939   0.10591   0.00000  Uiso   1.00
N268   N     0.88916   0.69058   0.10592   0.00000  Uiso   1.00
N269   N     0.87582   0.80645   0.24243   0.00000  Uiso   1.00
N270   N     0.62417   0.69357   0.24245   0.00000  Uiso   1.00
O271   O     0.68453   0.78974   0.16667   0.00000  Uiso   1.00
O272   O     0.98051   0.68748   0.11967   0.00000  Uiso   1.00
O273   O     0.96754   0.80598   0.25392   0.00000  Uiso   1.00
O274   O     0.53245   0.69404   0.25394   0.00000  Uiso   1.00
O275   O     0.70527   0.52793   0.09180   0.00000  Uiso   1.00
O276   O     0.70555   0.97241   0.24176   0.00000  Uiso   1.00
O277   O     0.79473   0.52759   0.24157   0.00000  Uiso   1.00
O278   O     0.79446   0.97208   0.09160   0.00000  Uiso   1.00
O279   O     0.81547   0.71026   0.16666   0.00000  Uiso   1.00
O280   O     0.81547   0.78974   0.16666   0.00000  Uiso   1.00
O281   O     0.68453   0.71026   0.16667   0.00000  Uiso   1.00
O282   O     0.75000   0.78973   0.09511   0.00000  Uiso   1.00
O283   O     0.75000   0.71027   0.23822   0.00000  Uiso   1.00
O284   O     0.75000   0.78973   0.23822   0.00000  Uiso   1.00
O285   O     0.75000   0.71027   0.09511   0.00000  Uiso   1.00
O286   O     0.51950   0.81251   0.11965   0.00000  Uiso   1.00
Zn287  Zn    0.75000   0.80307   0.16667   0.00000  Uiso   1.00
Zn288  Zn    0.75000   0.69693   0.16667   0.00000  Uiso   1.00
C289   C     0.16385   0.25010   0.50073   0.00000  Uiso   1.00
C290   C     0.27219   0.44772   0.46204   0.00000  Uiso   1.00
C291   C     0.25000   0.25000   0.40617   0.00000  Uiso   1.00
C292   C     0.25000   0.25000   0.59383   0.00000  Uiso   1.00
C293   C     0.25000   0.02667   0.50001   0.00000  Uiso   1.00
C294   C     0.25000   0.47333   0.50001   0.00000  Uiso   1.00
C295   C     0.25000   0.25000   0.35511   0.00000  Uiso   1.00
C296   C     0.25000   0.25000   0.64488   0.00000  Uiso   1.00
C297   C     0.04390   0.28258   0.48368   0.00000  Uiso   1.00
C298   C     0.45610   0.21741   0.48369   0.00000  Uiso   1.00
C299   C     0.44963   0.27680   0.55089   0.00000  Uiso   1.00
C300   C     0.33615   0.24990   0.50072   0.00000  Uiso   1.00
C301   C     0.05036   0.22322   0.55090   0.00000  Uiso   1.00
C302   C     0.09006   0.28097   0.47709   0.00000  Uiso   1.00
C303   C     0.40995   0.21902   0.47710   0.00000  Uiso   1.00
C304   C     0.40345   0.27760   0.54406   0.00000  Uiso   1.00
C305   C     0.09654   0.22241   0.54407   0.00000  Uiso   1.00
C306   C     0.11596   0.25058   0.50673   0.00000  Uiso   1.00
C307   C     0.38404   0.24942   0.50673   0.00000  Uiso   1.00
C308   C     0.02408   0.25257   0.51971   0.00000  Uiso   1.00
C309   C     0.47592   0.24744   0.51970   0.00000  Uiso   1.00
C310   C     0.22814   0.10235   0.46319   0.00000  Uiso   1.00
C311   C     0.22827   0.39782   0.53691   0.00000  Uiso   1.00
C312   C     0.27186   0.10218   0.53681   0.00000  Uiso   1.00
C313   C     0.27173   0.39765   0.46310   0.00000  Uiso   1.00
C314   C     0.22767   0.05228   0.46214   0.00000  Uiso   1.00
C315   C     0.22781   0.44789   0.53798   0.00000  Uiso   1.00
C316   C     0.27232   0.05211   0.53788   0.00000  Uiso   1.00
H317   H     0.21088   0.12231   0.43453   0.00000  Uiso   1.00
H318   H     0.10344   0.34483   0.44659   0.00000  Uiso   1.00
H319   H     0.39657   0.15515   0.44662   0.00000  Uiso   1.00
H320   H     0.40310   0.19942   0.40464   0.00000  Uiso   1.00
H321   H     0.38108   0.29616   0.61287   0.00000  Uiso   1.00
H322   H     0.38594   0.34156   0.57194   0.00000  Uiso   1.00
H323   H     0.11406   0.15845   0.57198   0.00000  Uiso   1.00
H324   H     0.11891   0.20387   0.61288   0.00000  Uiso   1.00
H325   H     0.19158   0.05095   0.40169   0.00000  Uiso   1.00
H326   H     0.19194   0.44949   0.59859   0.00000  Uiso   1.00
H327   H     0.30841   0.05051   0.59834   0.00000  Uiso   1.00
H328   H     0.21111   0.37799   0.56564   0.00000  Uiso   1.00
H329   H     0.30805   0.44905   0.40143   0.00000  Uiso   1.00
H330   H     0.28912   0.12201   0.56547   0.00000  Uiso   1.00
H331   H     0.28889   0.37769   0.43436   0.00000  Uiso   1.00
H332   H     0.48844   0.31570   0.46532   0.00000  Uiso   1.00
H333   H     0.01157   0.18430   0.46532   0.00000  Uiso   1.00
H334   H     0.49975   0.29919   0.59192   0.00000  Uiso   1.00
H335   H     0.00024   0.20083   0.59194   0.00000  Uiso   1.00
H336   H     0.09692   0.30055   0.40463   0.00000  Uiso   1.00
N337   N     0.25000   0.12623   0.50000   0.00000  Uiso   1.00
N338   N     0.25000   0.37376   0.50000   0.00000  Uiso   1.00
N339   N     0.11085   0.30939   0.43924   0.00000  Uiso   1.00
N340   N     0.38916   0.19058   0.43926   0.00000  Uiso   1.00
N341   N     0.37582   0.30645   0.57576   0.00000  Uiso   1.00
N342   N     0.12417   0.19357   0.57578   0.00000  Uiso   1.00
O343   O     0.18453   0.28974   0.50000   0.00000  Uiso   1.00
O344   O     0.48051   0.18748   0.45300   0.00000  Uiso   1.00
O345   O     0.46754   0.30598   0.58725   0.00000  Uiso   1.00
O346   O     0.03245   0.19404   0.58727   0.00000  Uiso   1.00
O347   O     0.20527   0.02793   0.42513   0.00000  Uiso   1.00
O348   O     0.20555   0.47241   0.57509   0.00000  Uiso   1.00
O349   O     0.29473   0.02759   0.57490   0.00000  Uiso   1.00
O350   O     0.29446   0.47208   0.42494   0.00000  Uiso   1.00
O351   O     0.31547   0.21026   0.50000   0.00000  Uiso   1.00
O352   O     0.31547   0.28974   0.50000   0.00000  Uiso   1.00
O353   O     0.18453   0.21026   0.50000   0.00000  Uiso   1.00
O354   O     0.25000   0.28973   0.42845   0.00000  Uiso   1.00
O355   O     0.25000   0.21027   0.57155   0.00000  Uiso   1.00
O356   O     0.25000   0.28973   0.57155   0.00000  Uiso   1.00
O357   O     0.25000   0.21027   0.42845   0.00000  Uiso   1.00
O358   O     0.01950   0.31251   0.45298   0.00000  Uiso   1.00
Zn359  Zn    0.25000   0.30307   0.50000   0.00000  Uiso   1.00
Zn360  Zn    0.25000   0.19693   0.50000   0.00000  Uiso   1.00
C361   C     0.66385   0.25010   0.50073   0.00000  Uiso   1.00
C362   C     0.77219   0.44772   0.46204   0.00000  Uiso   1.00
C363   C     0.75000   0.25000   0.40617   0.00000  Uiso   1.00
C364   C     0.75000   0.25000   0.59383   0.00000  Uiso   1.00
C365   C     0.75000   0.02667   0.50001   0.00000  Uiso   1.00
C366   C     0.75000   0.47333   0.50001   0.00000  Uiso   1.00
C367   C     0.75000   0.25000   0.35511   0.00000  Uiso   1.00
C368   C     0.75000   0.25000   0.64488   0.00000  Uiso   1.00
C369   C     0.54390   0.28258   0.48368   0.00000  Uiso   1.00
C370   C     0.95610   0.21741   0.48369   0.00000  Uiso   1.00
C371   C     0.94963   0.27680   0.55089   0.00000  Uiso   1.00
C372   C     0.83615   0.24990   0.50072   0.00000  Uiso   1.00
C373   C     0.55036   0.22322   0.55090   0.00000  Uiso   1.00
C374   C     0.59006   0.28097   0.47709   0.00000  Uiso   1.00
C375   C     0.90995   0.21902   0.47710   0.00000  Uiso   1.00
C376   C     0.90345   0.27760   0.54406   0.00000  Uiso   1.00
C377   C     0.59654   0.22241   0.54407   0.00000  Uiso   1.00
C378   C     0.61596   0.25058   0.50673   0.00000  Uiso   1.00
C379   C     0.88404   0.24942   0.50673   0.00000  Uiso   1.00
C380   C     0.52408   0.25257   0.51971   0.00000  Uiso   1.00
C381   C     0.97592   0.24744   0.51970   0.00000  Uiso   1.00
C382   C     0.72814   0.10235   0.46319   0.00000  Uiso   1.00
C383   C     0.72827   0.39782   0.53691   0.00000  Uiso   1.00
C384   C     0.77186   0.10218   0.53681   0.00000  Uiso   1.00
C385   C     0.77173   0.39765   0.46310   0.00000  Uiso   1.00
C386   C     0.72767   0.05228   0.46214   0.00000  Uiso   1.00
C387   C     0.72781   0.44789   0.53798   0.00000  Uiso   1.00
C388   C     0.77232   0.05211   0.53788   0.00000  Uiso   1.00
H389   H     0.71088   0.12231   0.43453   0.00000  Uiso   1.00
H390   H     0.60344   0.34483   0.44659   0.00000  Uiso   1.00
H391   H     0.89657   0.15515   0.44662   0.00000  Uiso   1.00
H392   H     0.90310   0.19942   0.40464   0.00000  Uiso   1.00
H393   H     0.88108   0.29616   0.61287   0.00000  Uiso   1.00
H394   H     0.88594   0.34156   0.57194   0.00000  Uiso   1.00
H395   H     0.61406   0.15845   0.57198   0.00000  Uiso   1.00
H396   H     0.61891   0.20387   0.61288   0.00000  Uiso   1.00
H397   H     0.69158   0.05095   0.40169   0.00000  Uiso   1.00
H398   H     0.69194   0.44949   0.59859   0.00000  Uiso   1.00
H399   H     0.80841   0.05051   0.59834   0.00000  Uiso   1.00
H400   H     0.71111   0.37799   0.56564   0.00000  Uiso   1.00
H401   H     0.80805   0.44905   0.40143   0.00000  Uiso   1.00
H402   H     0.78912   0.12201   0.56547   0.00000  Uiso   1.00
H403   H     0.78889   0.37769   0.43436   0.00000  Uiso   1.00
H404   H     0.98844   0.31570   0.46532   0.00000  Uiso   1.00
H405   H     0.51157   0.18430   0.46532   0.00000  Uiso   1.00
H406   H     0.99975   0.29919   0.59192   0.00000  Uiso   1.00
H407   H     0.50024   0.20083   0.59194   0.00000  Uiso   1.00
H408   H     0.59692   0.30055   0.40463   0.00000  Uiso   1.00
N409   N     0.75000   0.12623   0.50000   0.00000  Uiso   1.00
N410   N     0.75000   0.37376   0.50000   0.00000  Uiso   1.00
N411   N     0.61085   0.30939   0.43924   0.00000  Uiso   1.00
N412   N     0.88916   0.19058   0.43926   0.00000  Uiso   1.00
N413   N     0.87582   0.30645   0.57576   0.00000  Uiso   1.00
N414   N     0.62417   0.19357   0.57578   0.00000  Uiso   1.00
O415   O     0.68453   0.28974   0.50000   0.00000  Uiso   1.00
O416   O     0.98051   0.18748   0.45300   0.00000  Uiso   1.00
O417   O     0.96754   0.30598   0.58725   0.00000  Uiso   1.00
O418   O     0.53245   0.19404   0.58727   0.00000  Uiso   1.00
O419   O     0.70527   0.02793   0.42513   0.00000  Uiso   1.00
O420   O     0.70555   0.47241   0.57509   0.00000  Uiso   1.00
O421   O     0.79473   0.02759   0.57490   0.00000  Uiso   1.00
O422   O     0.79446   0.47208   0.42494   0.00000  Uiso   1.00
O423   O     0.81547   0.21026   0.50000   0.00000  Uiso   1.00
O424   O     0.81547   0.28974   0.50000   0.00000  Uiso   1.00
O425   O     0.68453   0.21026   0.50000   0.00000  Uiso   1.00
O426   O     0.75000   0.28973   0.42845   0.00000  Uiso   1.00
O427   O     0.75000   0.21027   0.57155   0.00000  Uiso   1.00
O428   O     0.75000   0.28973   0.57155   0.00000  Uiso   1.00
O429   O     0.75000   0.21027   0.42845   0.00000  Uiso   1.00
O430   O     0.51950   0.31251   0.45298   0.00000  Uiso   1.00
Zn431  Zn    0.75000   0.30307   0.50000   0.00000  Uiso   1.00
Zn432  Zn    0.75000   0.19693   0.50000   0.00000  Uiso   1.00
C433   C     0.16385   0.75010   0.50073   0.00000  Uiso   1.00
C434   C     0.27219   0.94772   0.46204   0.00000  Uiso   1.00
C435   C     0.25000   0.75000   0.40617   0.00000  Uiso   1.00
C436   C     0.25000   0.75000   0.59383   0.00000  Uiso   1.00
C437   C     0.25000   0.52667   0.50001   0.00000  Uiso   1.00
C438   C     0.25000   0.97333   0.50001   0.00000  Uiso   1.00
C439   C     0.25000   0.75000   0.35511   0.00000  Uiso   1.00
C440   C     0.25000   0.75000   0.64488   0.00000  Uiso   1.00
C441   C     0.04390   0.78258   0.48368   0.00000  Uiso   1.00
C442   C     0.45610   0.71741   0.48369   0.00000  Uiso   1.00
C443   C     0.44963   0.77680   0.55089   0.00000  Uiso   1.00
C444   C     0.33615   0.74990   0.50072   0.00000  Uiso   1.00
C445   C     0.05036   0.72322   0.55090   0.00000  Uiso   1.00
C446   C     0.09006   0.78097   0.47709   0.00000  Uiso   1.00
C447   C     0.40995   0.71902   0.47710   0.00000  Uiso   1.00
C448   C     0.40345   0.77760   0.54406   0.00000  Uiso   1.00
C449   C     0.09654   0.72241   0.54407   0.00000  Uiso   1.00
C450   C     0.11596   0.75058   0.50673   0.00000  Uiso   1.00
C451   C     0.38404   0.74942   0.50673   0.00000  Uiso   1.00
C452   C     0.02408   0.75257   0.51971   0.00000  Uiso   1.00
C453   C     0.47592   0.74744   0.51970   0.00000  Uiso   1.00
C454   C     0.22814   0.60235   0.46319   0.00000  Uiso   1.00
C455   C     0.22827   0.89782   0.53691   0.00000  Uiso   1.00
C456   C     0.27186   0.60218   0.53681   0.00000  Uiso   1.00
C457   C     0.27173   0.89765   0.46310   0.00000  Uiso   1.00
C458   C     0.22767   0.55228   0.46214   0.00000  Uiso   1.00
C459   C     0.22781   0.94789   0.53798   0.00000  Uiso   1.00
C460   C     0.27232   0.55211   0.53788   0.00000  Uiso   1.00
H461   H     0.21088   0.62231   0.43453   0.00000  Uiso   1.00
H462   H     0.10344   0.84483   0.44659   0.00000  Uiso   1.00
H463   H     0.39657   0.65515   0.44662   0.00000  Uiso   1.00
H464   H     0.40310   0.69942   0.40464   0.00000  Uiso   1.00
H465   H     0.38108   0.79616   0.61287   0.00000  Uiso   1.00
H466   H     0.38594   0.84156   0.57194   0.00000  Uiso   1.00
H467   H     0.11406   0.65845   0.57198   0.00000  Uiso   1.00
H468   H     0.11891   0.70387   0.61288   0.00000  Uiso   1.00
H469   H     0.19158   0.55095   0.40169   0.00000  Uiso   1.00
H470   H     0.19194   0.94949   0.59859   0.00000  Uiso   1.00
H471   H     0.30841   0.55051   0.59834   0.00000  Uiso   1.00
H472   H     0.21111   0.87799   0.56564   0.00000  Uiso   1.00
H473   H     0.30805   0.94905   0.40143   0.00000  Uiso   1.00
H474   H     0.28912   0.62201   0.56547   0.00000  Uiso   1.00
H475   H     0.28889   0.87769   0.43436   0.00000  Uiso   1.00
H476   H     0.48844   0.81570   0.46532   0.00000  Uiso   1.00
H477   H     0.01157   0.68430   0.46532   0.00000  Uiso   1.00
H478   H     0.49975   0.79919   0.59192   0.00000  Uiso   1.00
H479   H     0.00024   0.70083   0.59194   0.00000  Uiso   1.00
H480   H     0.09692   0.80055   0.40463   0.00000  Uiso   1.00
N481   N     0.25000   0.62623   0.50000   0.00000  Uiso   1.00
N482   N     0.25000   0.87376   0.50000   0.00000  Uiso   1.00
N483   N     0.11085   0.80939   0.43924   0.00000  Uiso   1.00
N484   N     0.38916   0.69058   0.43926   0.00000  Uiso   1.00
N485   N     0.37582   0.80645   0.57576   0.00000  Uiso   1.00
N486   N     0.12417   0.69357   0.57578   0.00000  Uiso   1.00
O487   O     0.18453   0.78974   0.50000   0.00000  Uiso   1.00
O488   O     0.48051   0.68748   0.45300   0.00000  Uiso   1.00
O489   O     0.46754   0.80598   0.58725   0.00000  Uiso   1.00
O490   O     0.03245   0.69404   0.58727   0.00000  Uiso   1.00
O491   O     0.20527   0.52793   0.42513   0.00000  Uiso   1.00
O492   O     0.20555   0.97241   0.57509   0.00000  Uiso   1.00
O493   O     0.29473   0.52759   0.57490   0.00000  Uiso   1.00
O494   O     0.29446   0.97208   0.42494   0.00000  Uiso   1.00
O495   O     0.31547   0.71026   0.50000   0.00000  Uiso   1.00
O496   O     0.31547   0.78974   0.50000   0.00000  Uiso   1.00
O497   O     0.18453   0.71026   0.50000   0.00000  Uiso   1.00
O498   O     0.25000   0.78973   0.42845   0.00000  Uiso   1.00
O499   O     0.25000   0.71027   0.57155   0.00000  Uiso   1.00
O500   O     0.25000   0.78973   0.57155   0.00000  Uiso   1.00
O501   O     0.25000   0.71027   0.42845   0.00000  Uiso   1.00
O502   O     0.01950   0.81251   0.45298   0.00000  Uiso   1.00
Zn503  Zn    0.25000   0.80307   0.50000   0.00000  Uiso   1.00
Zn504  Zn    0.25000   0.69693   0.50000   0.00000  Uiso   1.00
C505   C     0.66385   0.75010   0.50073   0.00000  Uiso   1.00
C506   C     0.77219   0.94772   0.46204   0.00000  Uiso   1.00
C507   C     0.75000   0.75000   0.40617   0.00000  Uiso   1.00
C508   C     0.75000   0.75000   0.59383   0.00000  Uiso   1.00
C509   C     0.75000   0.52667   0.50001   0.00000  Uiso   1.00
C510   C     0.75000   0.97333   0.50001   0.00000  Uiso   1.00
C511   C     0.75000   0.75000   0.35511   0.00000  Uiso   1.00
C512   C     0.75000   0.75000   0.64488   0.00000  Uiso   1.00
C513   C     0.54390   0.78258   0.48368   0.00000  Uiso   1.00
C514   C     0.95610   0.71741   0.48369   0.00000  Uiso   1.00
C515   C     0.94963   0.77680   0.55089   0.00000  Uiso   1.00
C516   C     0.83615   0.74990   0.50072   0.00000  Uiso   1.00
C517   C     0.55036   0.72322   0.55090   0.00000  Uiso   1.00
C518   C     0.59006   0.78097   0.47709   0.00000  Uiso   1.00
C519   C     0.90995   0.71902   0.47710   0.00000  Uiso   1.00
C520   C     0.90345   0.77760   0.54406   0.00000  Uiso   1.00
C521   C     0.59654   0.72241   0.54407   0.00000  Uiso   1.00
C522   C     0.61596   0.75058   0.50673   0.00000  Uiso   1.00
C523   C     0.88404   0.74942   0.50673   0.00000  Uiso   1.00
C524   C     0.52408   0.75257   0.51971   0.00000  Uiso   1.00
C525   C     0.97592   0.74744   0.51970   0.00000  Uiso   1.00
C526   C     0.72814   0.60235   0.46319   0.00000  Uiso   1.00
C527   C     0.72827   0.89782   0.53691   0.00000  Uiso   1.00
C528   C     0.77186   0.60218   0.53681   0.00000  Uiso   1.00
C529   C     0.77173   0.89765   0.46310   0.00000  Uiso   1.00
C530   C     0.72767   0.55228   0.46214   0.00000  Uiso   1.00
C531   C     0.72781   0.94789   0.53798   0.00000  Uiso   1.00
C532   C     0.77232   0.55211   0.53788   0.00000  Uiso   1.00
H533   H     0.71088   0.62231   0.43453   0.00000  Uiso   1.00
H534   H     0.60344   0.84483   0.44659   0.00000  Uiso   1.00
H535   H     0.89657   0.65515   0.44662   0.00000  Uiso   1.00
H536   H     0.90310   0.69942   0.40464   0.00000  Uiso   1.00
H537   H     0.88108   0.79616   0.61287   0.00000  Uiso   1.00
H538   H     0.88594   0.84156   0.57194   0.00000  Uiso   1.00
H539   H     0.61406   0.65845   0.57198   0.00000  Uiso   1.00
H540   H     0.61891   0.70387   0.61288   0.00000  Uiso   1.00
H541   H     0.69158   0.55095   0.40169   0.00000  Uiso   1.00
H542   H     0.69194   0.94949   0.59859   0.00000  Uiso   1.00
H543   H     0.80841   0.55051   0.59834   0.00000  Uiso   1.00
H544   H     0.71111   0.87799   0.56564   0.00000  Uiso   1.00
H545   H     0.80805   0.94905   0.40143   0.00000  Uiso   1.00
H546   H     0.78912   0.62201   0.56547   0.00000  Uiso   1.00
H547   H     0.78889   0.87769   0.43436   0.00000  Uiso   1.00
H548   H     0.98844   0.81570   0.46532   0.00000  Uiso   1.00
H549   H     0.51157   0.68430   0.46532   0.00000  Uiso   1.00
H550   H     0.99975   0.79919   0.59192   0.00000  Uiso   1.00
H551   H     0.50024   0.70083   0.59194   0.00000  Uiso   1.00
H552   H     0.59692   0.80055   0.40463   0.00000  Uiso   1.00
N553   N     0.75000   0.62623   0.50000   0.00000  Uiso   1.00
N554   N     0.75000   0.87376   0.50000   0.00000  Uiso   1.00
N555   N     0.61085   0.80939   0.43924   0.00000  Uiso   1.00
N556   N     0.88916   0.69058   0.43926   0.00000  Uiso   1.00
N557   N     0.87582   0.80645   0.57576   0.00000  Uiso   1.00
N558   N     0.62417   0.69357   0.57578   0.00000  Uiso   1.00
O559   O     0.68453   0.78974   0.50000   0.00000  Uiso   1.00
O560   O     0.98051   0.68748   0.45300   0.00000  Uiso   1.00
O561   O     0.96754   0.80598   0.58725   0.00000  Uiso   1.00
O562   O     0.53245   0.69404   0.58727   0.00000  Uiso   1.00
O563   O     0.70527   0.52793   0.42513   0.00000  Uiso   1.00
O564   O     0.70555   0.97241   0.57509   0.00000  Uiso   1.00
O565   O     0.79473   0.52759   0.57490   0.00000  Uiso   1.00
O566   O     0.79446   0.97208   0.42494   0.00000  Uiso   1.00
O567   O     0.81547   0.71026   0.50000   0.00000  Uiso   1.00
O568   O     0.81547   0.78974   0.50000   0.00000  Uiso   1.00
O569   O     0.68453   0.71026   0.50000   0.00000  Uiso   1.00
O570   O     0.75000   0.78973   0.42845   0.00000  Uiso   1.00
O571   O     0.75000   0.71027   0.57155   0.00000  Uiso   1.00
O572   O     0.75000   0.78973   0.57155   0.00000  Uiso   1.00
O573   O     0.75000   0.71027   0.42845   0.00000  Uiso   1.00
O574   O     0.51950   0.81251   0.45298   0.00000  Uiso   1.00
Zn575  Zn    0.75000   0.80307   0.50000   0.00000  Uiso   1.00
Zn576  Zn    0.75000   0.69693   0.50000   0.00000  Uiso   1.00
C577   C     0.16385   0.25010   0.83406   0.00000  Uiso   1.00
C578   C     0.27219   0.44772   0.79538   0.00000  Uiso   1.00
C579   C     0.25000   0.25000   0.73950   0.00000  Uiso   1.00
C580   C     0.25000   0.25000   0.92717   0.00000  Uiso   1.00
C581   C     0.25000   0.02667   0.83335   0.00000  Uiso   1.00
C582   C     0.25000   0.47333   0.83335   0.00000  Uiso   1.00
C583   C     0.25000   0.25000   0.68844   0.00000  Uiso   1.00
C584   C     0.25000   0.25000   0.97822   0.00000  Uiso   1.00
C585   C     0.04390   0.28258   0.81702   0.00000  Uiso   1.00
C586   C     0.45610   0.21741   0.81702   0.00000  Uiso   1.00
C587   C     0.44963   0.27680   0.88422   0.00000  Uiso   1.00
C588   C     0.33615   0.24990   0.83405   0.00000  Uiso   1.00
C589   C     0.05036   0.22322   0.88423   0.00000  Uiso   1.00
C590   C     0.09006   0.28097   0.81042   0.00000  Uiso   1.00
C591   C     0.40995   0.21902   0.81043   0.00000  Uiso   1.00
C592   C     0.40345   0.27760   0.87739   0.00000  Uiso   1.00
C593   C     0.09654   0.22241   0.87740   0.00000  Uiso   1.00
C594   C     0.11596   0.25058   0.84007   0.00000  Uiso   1.00
C595   C     0.38404   0.24942   0.84006   0.00000  Uiso   1.00
C596   C     0.02408   0.25257   0.85304   0.00000  Uiso   1.00
C597   C     0.47592   0.24744   0.85304   0.00000  Uiso   1.00
C598   C     0.22814   0.10235   0.79653   0.00000  Uiso   1.00
C599   C     0.22827   0.39782   0.87024   0.00000  Uiso   1.00
C600   C     0.27186   0.10218   0.87015   0.00000  Uiso   1.00
C601   C     0.27173   0.39765   0.79643   0.00000  Uiso   1.00
C602   C     0.22767   0.05228   0.79547   0.00000  Uiso   1.00
C603   C     0.22781   0.44789   0.87131   0.00000  Uiso   1.00
C604   C     0.27232   0.05211   0.87122   0.00000  Uiso   1.00
H605   H     0.21088   0.12231   0.76786   0.00000  Uiso   1.00
H606   H     0.10344   0.34483   0.77993   0.00000  Uiso   1.00
H607   H     0.39657   0.15515   0.77996   0.00000  Uiso   1.00
H608   H     0.40310   0.19942   0.73797   0.00000  Uiso   1.00
H609   H     0.38108   0.29616   0.94620   0.00000  Uiso   1.00
H610   H     0.38594   0.34156   0.90528   0.00000  Uiso   1.00
H611   H     0.11406   0.15845   0.90531   0.00000  Uiso   1.00
H612   H     0.11891   0.20387   0.94622   0.00000  Uiso   1.00
H613   H     0.19158   0.05095   0.73502   0.00000  Uiso   1.00
H614   H     0.19194   0.44949   0.93192   0.00000  Uiso   1.00
H615   H     0.30841   0.05051   0.93167   0.00000  Uiso   1.00
H616   H     0.21111   0.37799   0.89897   0.00000  Uiso   1.00
H617   H     0.30805   0.44905   0.73476   0.00000  Uiso   1.00
H618   H     0.28912   0.12201   0.89880   0.00000  Uiso   1.00
H619   H     0.28889   0.37769   0.76770   0.00000  Uiso   1.00
H620   H     0.48844   0.31570   0.79865   0.00000  Uiso   1.00
H621   H     0.01157   0.18430   0.79866   0.00000  Uiso   1.00
H622   H     0.49975   0.29919   0.92526   0.00000  Uiso   1.00
H623   H     0.00024   0.20083   0.92527   0.00000  Uiso   1.00
H624   H     0.09692   0.30055   0.73796   0.00000  Uiso   1.00
N625   N     0.25000   0.12623   0.83333   0.00000  Uiso   1.00
N626   N     0.25000   0.37376   0.83333   0.00000  Uiso   1.00
N627   N     0.11085   0.30939   0.77257   0.00000  Uiso   1.00
N628   N     0.38916   0.19058   0.77259   0.00000  Uiso   1.00
N629   N     0.37582   0.30645   0.90910   0.00000  Uiso   1.00
N630   N     0.12417   0.19357   0.90912   0.00000  Uiso   1.00
O631   O     0.18453   0.28974   0.83334   0.00000  Uiso   1.00
O632   O     0.48051   0.18748   0.78634   0.00000  Uiso   1.00
O633   O     0.46754   0.30598   0.92059   0.00000  Uiso   1.00
O634   O     0.03245   0.19404   0.92061   0.00000  Uiso   1.00
O635   O     0.20527   0.02793   0.75846   0.00000  Uiso   1.00
O636   O     0.20555   0.47241   0.90842   0.00000  Uiso   1.00
O637   O     0.29473   0.02759   0.90823   0.00000  Uiso   1.00
O638   O     0.29446   0.47208   0.75827   0.00000  Uiso   1.00
O639   O     0.31547   0.21026   0.83333   0.00000  Uiso   1.00
O640   O     0.31547   0.28974   0.83333   0.00000  Uiso   1.00
O641   O     0.18453   0.21026   0.83334   0.00000  Uiso   1.00
O642   O     0.25000   0.28973   0.76178   0.00000  Uiso   1.00
O643   O     0.25000   0.21027   0.90489   0.00000  Uiso   1.00
O644   O     0.25000   0.28973   0.90489   0.00000  Uiso   1.00
O645   O     0.25000   0.21027   0.76178   0.00000  Uiso   1.00
O646   O     0.01950   0.31251   0.78632   0.00000  Uiso   1.00
Zn647  Zn    0.25000   0.30307   0.83333   0.00000  Uiso   1.00
Zn648  Zn    0.25000   0.19693   0.83333   0.00000  Uiso   1.00
C649   C     0.66385   0.25010   0.83406   0.00000  Uiso   1.00
C650   C     0.77219   0.44772   0.79538   0.00000  Uiso   1.00
C651   C     0.75000   0.25000   0.73950   0.00000  Uiso   1.00
C652   C     0.75000   0.25000   0.92717   0.00000  Uiso   1.00
C653   C     0.75000   0.02667   0.83335   0.00000  Uiso   1.00
C654   C     0.75000   0.47333   0.83335   0.00000  Uiso   1.00
C655   C     0.75000   0.25000   0.68844   0.00000  Uiso   1.00
C656   C     0.75000   0.25000   0.97822   0.00000  Uiso   1.00
C657   C     0.54390   0.28258   0.81702   0.00000  Uiso   1.00
C658   C     0.95610   0.21741   0.81702   0.00000  Uiso   1.00
C659   C     0.94963   0.27680   0.88422   0.00000  Uiso   1.00
C660   C     0.83615   0.24990   0.83405   0.00000  Uiso   1.00
C661   C     0.55036   0.22322   0.88423   0.00000  Uiso   1.00
C662   C     0.59006   0.28097   0.81042   0.00000  Uiso   1.00
C663   C     0.90995   0.21902   0.81043   0.00000  Uiso   1.00
C664   C     0.90345   0.27760   0.87739   0.00000  Uiso   1.00
C665   C     0.59654   0.22241   0.87740   0.00000  Uiso   1.00
C666   C     0.61596   0.25058   0.84007   0.00000  Uiso   1.00
C667   C     0.88404   0.24942   0.84006   0.00000  Uiso   1.00
C668   C     0.52408   0.25257   0.85304   0.00000  Uiso   1.00
C669   C     0.97592   0.24744   0.85304   0.00000  Uiso   1.00
C670   C     0.72814   0.10235   0.79653   0.00000  Uiso   1.00
C671   C     0.72827   0.39782   0.87024   0.00000  Uiso   1.00
C672   C     0.77186   0.10218   0.87015   0.00000  Uiso   1.00
C673   C     0.77173   0.39765   0.79643   0.00000  Uiso   1.00
C674   C     0.72767   0.05228   0.79547   0.00000  Uiso   1.00
C675   C     0.72781   0.44789   0.87131   0.00000  Uiso   1.00
C676   C     0.77232   0.05211   0.87122   0.00000  Uiso   1.00
H677   H     0.71088   0.12231   0.76786   0.00000  Uiso   1.00
H678   H     0.60344   0.34483   0.77993   0.00000  Uiso   1.00
H679   H     0.89657   0.15515   0.77996   0.00000  Uiso   1.00
H680   H     0.90310   0.19942   0.73797   0.00000  Uiso   1.00
H681   H     0.88108   0.29616   0.94620   0.00000  Uiso   1.00
H682   H     0.88594   0.34156   0.90528   0.00000  Uiso   1.00
H683   H     0.61406   0.15845   0.90531   0.00000  Uiso   1.00
H684   H     0.61891   0.20387   0.94622   0.00000  Uiso   1.00
H685   H     0.69158   0.05095   0.73502   0.00000  Uiso   1.00
H686   H     0.69194   0.44949   0.93192   0.00000  Uiso   1.00
H687   H     0.80841   0.05051   0.93167   0.00000  Uiso   1.00
H688   H     0.71111   0.37799   0.89897   0.00000  Uiso   1.00
H689   H     0.80805   0.44905   0.73476   0.00000  Uiso   1.00
H690   H     0.78912   0.12201   0.89880   0.00000  Uiso   1.00
H691   H     0.78889   0.37769   0.76770   0.00000  Uiso   1.00
H692   H     0.98844   0.31570   0.79865   0.00000  Uiso   1.00
H693   H     0.51157   0.18430   0.79866   0.00000  Uiso   1.00
H694   H     0.99975   0.29919   0.92526   0.00000  Uiso   1.00
H695   H     0.50024   0.20083   0.92527   0.00000  Uiso   1.00
H696   H     0.59692   0.30055   0.73796   0.00000  Uiso   1.00
N697   N     0.75000   0.12623   0.83333   0.00000  Uiso   1.00
N698   N     0.75000   0.37376   0.83333   0.00000  Uiso   1.00
N699   N     0.61085   0.30939   0.77257   0.00000  Uiso   1.00
N700   N     0.88916   0.19058   0.77259   0.00000  Uiso   1.00
N701   N     0.87582   0.30645   0.90910   0.00000  Uiso   1.00
N702   N     0.62417   0.19357   0.90912   0.00000  Uiso   1.00
O703   O     0.68453   0.28974   0.83334   0.00000  Uiso   1.00
O704   O     0.98051   0.18748   0.78634   0.00000  Uiso   1.00
O705   O     0.96754   0.30598   0.92059   0.00000  Uiso   1.00
O706   O     0.53245   0.19404   0.92061   0.00000  Uiso   1.00
O707   O     0.70527   0.02793   0.75846   0.00000  Uiso   1.00
O708   O     0.70555   0.47241   0.90842   0.00000  Uiso   1.00
O709   O     0.79473   0.02759   0.90823   0.00000  Uiso   1.00
O710   O     0.79446   0.47208   0.75827   0.00000  Uiso   1.00
O711   O     0.81547   0.21026   0.83333   0.00000  Uiso   1.00
O712   O     0.81547   0.28974   0.83333   0.00000  Uiso   1.00
O713   O     0.68453   0.21026   0.83334   0.00000  Uiso   1.00
O714   O     0.75000   0.28973   0.76178   0.00000  Uiso   1.00
O715   O     0.75000   0.21027   0.90489   0.00000  Uiso   1.00
O716   O     0.75000   0.28973   0.90489   0.00000  Uiso   1.00
O717   O     0.75000   0.21027   0.76178   0.00000  Uiso   1.00
O718   O     0.51950   0.31251   0.78632   0.00000  Uiso   1.00
Zn719  Zn    0.75000   0.30307   0.83333   0.00000  Uiso   1.00
Zn720  Zn    0.75000   0.19693   0.83333   0.00000  Uiso   1.00
C721   C     0.16385   0.75010   0.83406   0.00000  Uiso   1.00
C722   C     0.27219   0.94772   0.79538   0.00000  Uiso   1.00
C723   C     0.25000   0.75000   0.73950   0.00000  Uiso   1.00
C724   C     0.25000   0.75000   0.92717   0.00000  Uiso   1.00
C725   C     0.25000   0.52667   0.83335   0.00000  Uiso   1.00
C726   C     0.25000   0.97333   0.83335   0.00000  Uiso   1.00
C727   C     0.25000   0.75000   0.68844   0.00000  Uiso   1.00
C728   C     0.25000   0.75000   0.97822   0.00000  Uiso   1.00
C729   C     0.04390   0.78258   0.81702   0.00000  Uiso   1.00
C730   C     0.45610   0.71741   0.81702   0.00000  Uiso   1.00
C731   C     0.44963   0.77680   0.88422   0.00000  Uiso   1.00
C732   C     0.33615   0.74990   0.83405   0.00000  Uiso   1.00
C733   C     0.05036   0.72322   0.88423   0.00000  Uiso   1.00
C734   C     0.09006   0.78097   0.81042   0.00000  Uiso   1.00
C735   C     0.40995   0.71902   0.81043   0.00000  Uiso   1.00
C736   C     0.40345   0.77760   0.87739   0.00000  Uiso   1.00
C737   C     0.09654   0.72241   0.87740   0.00000  Uiso   1.00
C738   C     0.11596   0.75058   0.84007   0.00000  Uiso   1.00
C739   C     0.38404   0.74942   0.84006   0.00000  Uiso   1.00
C740   C     0.02408   0.75257   0.85304   0.00000  Uiso   1.00
C741   C     0.47592   0.74744   0.85304   0.00000  Uiso   1.00
C742   C     0.22814   0.60235   0.79653   0.00000  Uiso   1.00
C743   C     0.22827   0.89782   0.87024   0.00000  Uiso   1.00
C744   C     0.27186   0.60218   0.87015   0.00000  Uiso   1.00
C745   C     0.27173   0.89765   0.79643   0.00000  Uiso   1.00
C746   C     0.22767   0.55228   0.79547   0.00000  Uiso   1.00
C747   C     0.22781   0.94789   0.87131   0.00000  Uiso   1.00
C748   C     0.27232   0.55211   0.87122   0.00000  Uiso   1.00
H749   H     0.21088   0.62231   0.76786   0.00000  Uiso   1.00
H750   H     0.10344   0.84483   0.77993   0.00000  Uiso   1.00
H751   H     0.39657   0.65515   0.77996   0.00000  Uiso   1.00
H752   H     0.40310   0.69942   0.73797   0.00000  Uiso   1.00
H753   H     0.38108   0.79616   0.94620   0.00000  Uiso   1.00
H754   H     0.38594   0.84156   0.90528   0.00000  Uiso   1.00
H755   H     0.11406   0.65845   0.90531   0.00000  Uiso   1.00
H756   H     0.11891   0.70387   0.94622   0.00000  Uiso   1.00
H757   H     0.19158   0.55095   0.73502   0.00000  Uiso   1.00
H758   H     0.19194   0.94949   0.93192   0.00000  Uiso   1.00
H759   H     0.30841   0.55051   0.93167   0.00000  Uiso   1.00
H760   H     0.21111   0.87799   0.89897   0.00000  Uiso   1.00
H761   H     0.30805   0.94905   0.73476   0.00000  Uiso   1.00
H762   H     0.28912   0.62201   0.89880   0.00000  Uiso   1.00
H763   H     0.28889   0.87769   0.76770   0.00000  Uiso   1.00
H764   H     0.48844   0.81570   0.79865   0.00000  Uiso   1.00
H765   H     0.01157   0.68430   0.79866   0.00000  Uiso   1.00
H766   H     0.49975   0.79919   0.92526   0.00000  Uiso   1.00
H767   H     0.00024   0.70083   0.92527   0.00000  Uiso   1.00
H768   H     0.09692   0.80055   0.73796   0.00000  Uiso   1.00
N769   N     0.25000   0.62623   0.83333   0.00000  Uiso   1.00
N770   N     0.25000   0.87376   0.83333   0.00000  Uiso   1.00
N771   N     0.11085   0.80939   0.77257   0.00000  Uiso   1.00
N772   N     0.38916   0.69058   0.77259   0.00000  Uiso   1.00
N773   N     0.37582   0.80645   0.90910   0.00000  Uiso   1.00
N774   N     0.12417   0.69357   0.90912   0.00000  Uiso   1.00
O775   O     0.18453   0.78974   0.83334   0.00000  Uiso   1.00
O776   O     0.48051   0.68748   0.78634   0.00000  Uiso   1.00
O777   O     0.46754   0.80598   0.92059   0.00000  Uiso   1.00
O778   O     0.03245   0.69404   0.92061   0.00000  Uiso   1.00
O779   O     0.20527   0.52793   0.75846   0.00000  Uiso   1.00
O780   O     0.20555   0.97241   0.90842   0.00000  Uiso   1.00
O781   O     0.29473   0.52759   0.90823   0.00000  Uiso   1.00
O782   O     0.29446   0.97208   0.75827   0.00000  Uiso   1.00
O783   O     0.31547   0.71026   0.83333   0.00000  Uiso   1.00
O784   O     0.31547   0.78974   0.83333   0.00000  Uiso   1.00
O785   O     0.18453   0.71026   0.83334   0.00000  Uiso   1.00
O786   O     0.25000   0.78973   0.76178   0.00000  Uiso   1.00
O787   O     0.25000   0.71027   0.90489   0.00000  Uiso   1.00
O788   O     0.25000   0.78973   0.90489   0.00000  Uiso   1.00
O789   O     0.25000   0.71027   0.76178   0.00000  Uiso   1.00
O790   O     0.01950   0.81251   0.78632   0.00000  Uiso   1.00
Zn791  Zn    0.25000   0.80307   0.83333   0.00000  Uiso   1.00
Zn792  Zn    0.25000   0.69693   0.83333   0.00000  Uiso   1.00
C793   C     0.66385   0.75010   0.83406   0.00000  Uiso   1.00
C794   C     0.77219   0.94772   0.79538   0.00000  Uiso   1.00
C795   C     0.75000   0.75000   0.73950   0.00000  Uiso   1.00
C796   C     0.75000   0.75000   0.92717   0.00000  Uiso   1.00
C797   C     0.75000   0.52667   0.83335   0.00000  Uiso   1.00
C798   C     0.75000   0.97333   0.83335   0.00000  Uiso   1.00
C799   C     0.75000   0.75000   0.68844   0.00000  Uiso   1.00
C800   C     0.75000   0.75000   0.97822   0.00000  Uiso   1.00
C801   C     0.54390   0.78258   0.81702   0.00000  Uiso   1.00
C802   C     0.95610   0.71741   0.81702   0.00000  Uiso   1.00
C803   C     0.94963   0.77680   0.88422   0.00000  Uiso   1.00
C804   C     0.83615   0.74990   0.83405   0.00000  Uiso   1.00
C805   C     0.55036   0.72322   0.88423   0.00000  Uiso   1.00
C806   C     0.59006   0.78097   0.81042   0.00000  Uiso   1.00
C807   C     0.90995   0.71902   0.81043   0.00000  Uiso   1.00
C808   C     0.90345   0.77760   0.87739   0.00000  Uiso   1.00
C809   C     0.59654   0.72241   0.87740   0.00000  Uiso   1.00
C810   C     0.61596   0.75058   0.84007   0.00000  Uiso   1.00
C811   C     0.88404   0.74942   0.84006   0.00000  Uiso   1.00
C812   C     0.52408   0.75257   0.85304   0.00000  Uiso   1.00
C813   C     0.97592   0.74744   0.85304   0.00000  Uiso   1.00
C814   C     0.72814   0.60235   0.79653   0.00000  Uiso   1.00
C815   C     0.72827   0.89782   0.87024   0.00000  Uiso   1.00
C816   C     0.77186   0.60218   0.87015   0.00000  Uiso   1.00
C817   C     0.77173   0.89765   0.79643   0.00000  Uiso   1.00
C818   C     0.72767   0.55228   0.79547   0.00000  Uiso   1.00
C819   C     0.72781   0.94789   0.87131   0.00000  Uiso   1.00
C820   C     0.77232   0.55211   0.87122   0.00000  Uiso   1.00
H821   H     0.71088   0.62231   0.76786   0.00000  Uiso   1.00
H822   H     0.60344   0.84483   0.77993   0.00000  Uiso   1.00
H823   H     0.89657   0.65515   0.77996   0.00000  Uiso   1.00
H824   H     0.90310   0.69942   0.73797   0.00000  Uiso   1.00
H825   H     0.88108   0.79616   0.94620   0.00000  Uiso   1.00
H826   H     0.88594   0.84156   0.90528   0.00000  Uiso   1.00
H827   H     0.61406   0.65845   0.90531   0.00000  Uiso   1.00
H828   H     0.61891   0.70387   0.94622   0.00000  Uiso   1.00
H829   H     0.69158   0.55095   0.73502   0.00000  Uiso   1.00
H830   H     0.69194   0.94949   0.93192   0.00000  Uiso   1.00
H831   H     0.80841   0.55051   0.93167   0.00000  Uiso   1.00
H832   H     0.71111   0.87799   0.89897   0.00000  Uiso   1.00
H833   H     0.80805   0.94905   0.73476   0.00000  Uiso   1.00
H834   H     0.78912   0.62201   0.89880   0.00000  Uiso   1.00
H835   H     0.78889   0.87769   0.76770   0.00000  Uiso   1.00
H836   H     0.98844   0.81570   0.79865   0.00000  Uiso   1.00
H837   H     0.51157   0.68430   0.79866   0.00000  Uiso   1.00
H838   H     0.99975   0.79919   0.92526   0.00000  Uiso   1.00
H839   H     0.50024   0.70083   0.92527   0.00000  Uiso   1.00
H840   H     0.59692   0.80055   0.73796   0.00000  Uiso   1.00
N841   N     0.75000   0.62623   0.83333   0.00000  Uiso   1.00
N842   N     0.75000   0.87376   0.83333   0.00000  Uiso   1.00
N843   N     0.61085   0.80939   0.77257   0.00000  Uiso   1.00
N844   N     0.88916   0.69058   0.77259   0.00000  Uiso   1.00
N845   N     0.87582   0.80645   0.90910   0.00000  Uiso   1.00
N846   N     0.62417   0.69357   0.90912   0.00000  Uiso   1.00
O847   O     0.68453   0.78974   0.83334   0.00000  Uiso   1.00
O848   O     0.98051   0.68748   0.78634   0.00000  Uiso   1.00
O849   O     0.96754   0.80598   0.92059   0.00000  Uiso   1.00
O850   O     0.53245   0.69404   0.92061   0.00000  Uiso   1.00
O851   O     0.70527   0.52793   0.75846   0.00000  Uiso   1.00
O852   O     0.70555   0.97241   0.90842   0.00000  Uiso   1.00
O853   O     0.79473   0.52759   0.90823   0.00000  Uiso   1.00
O854   O     0.79446   0.97208   0.75827   0.00000  Uiso   1.00
O855   O     0.81547   0.71026   0.83333   0.00000  Uiso   1.00
O856   O     0.81547   0.78974   0.83333   0.00000  Uiso   1.00
O857   O     0.68453   0.71026   0.83334   0.00000  Uiso   1.00
O858   O     0.75000   0.78973   0.76178   0.00000  Uiso   1.00
O859   O     0.75000   0.71027   0.90489   0.00000  Uiso   1.00
O860   O     0.75000   0.78973   0.90489   0.00000  Uiso   1.00
O861   O     0.75000   0.71027   0.76178   0.00000  Uiso   1.00
O862   O     0.51950   0.81251   0.78632   0.00000  Uiso   1.00
Zn863  Zn    0.75000   0.80307   0.83333   0.00000  Uiso   1.00
Zn864  Zn    0.75000   0.69693   0.83333   0.00000  Uiso   1.00
loop_
_geom_bond_atom_site_label_1
_geom_bond_atom_site_label_2
_geom_bond_distance
_geom_bond_site_symmetry_2
_ccdc_geom_bond_type
C1     O65     1.284   .     A
C1     O55     1.283   .     A
C1     C18     1.439   .     S
C2     C6      1.412   .     A
C2     C25     1.418   .     A
C2     O62     1.381   .     S
C3     O69     1.273   .     A
C3     C7      1.365   .     S
C3     O66     1.273   .     A
C4     O67     1.273   .     A
C4     C8      1.365   .     S
C4     O68     1.273   .     A
C5     C28     1.412   .     A
C5     C26     1.412   .     A
C5     C150    1.511   1_545 S
C6     C27     1.412   .     A
C6     C149    1.511   .     S
C7     C584    1.165   1_554 S
C8     C295    1.165   .     S
C9     C14     1.390   .     A
C9     C20     1.416   .     A
C9     O70     1.385   .     S
C10    O56     1.385   .     S
C10    C15     1.390   .     A
C10    C21     1.416   .     A
C11    C21     1.413   .     A
C11    O57     1.385   .     S
C11    C16     1.391   .     A
C12    C19     1.439   .     S
C12    O63     1.283   .     A
C12    O64     1.284   .     A
C13    C17     1.391   .     A
C13    O58     1.385   .     S
C13    C20     1.413   .     A
C14    C18     1.401   .     A
C14    N51     1.436   .     S
C15    N52     1.436   .     S
C15    C19     1.401   .     A
C16    N53     1.436   .     S
C16    C19     1.405   .     A
C17    C18     1.405   .     A
C17    N54     1.436   .     S
C20    C93     1.446   1_455 S
C21    C92     1.446   .     S
C22    H29     1.082   .     S
C22    N49     1.362   .     A
C22    C26     1.418   .     A
C23    H40     1.082   .     S
C23    C27     1.418   .     A
C23    N50     1.362   .     A
C24    H42     1.082   .     S
C24    N49     1.362   .     A
C24    C28     1.418   .     A
C25    N50     1.362   .     A
C25    H43     1.082   .     S
C26    O59     1.381   .     S
C27    O60     1.381   .     S
C28    O61     1.381   .     S
H30    N51     1.046   .     S
H31    N52     1.046   .     S
H32    N52     1.046   .     S
H33    N53     1.046   .     S
H34    N53     1.046   .     S
H35    N54     1.046   .     S
H36    N54     1.046   .     S
H37    O59     0.992   .     S
H38    O60     0.992   .     S
H39    O61     0.992   .     S
H41    O62     0.992   .     S
H44    O142    0.988   .     S
H45    O128    0.988   1_455 S
H46    O57     0.988   .     S
H47    O58     0.988   .     S
H48    N51     1.046   .     S
N49    Zn72    2.002   .     S
N50    Zn71    2.002   .     S
O55    Zn71    1.993   .     S
O56    H117    0.988   .     S
O63    Zn72    1.993   .     S
O64    Zn71    1.990   .     S
O65    Zn72    1.990   .     S
O66    Zn71    1.950   .     S
O67    Zn72    1.950   .     S
O68    Zn71    1.950   .     S
O69    Zn72    1.950   .     S
O70    H116    0.988   1_455 S
C73    O137    1.284   .     A
C73    O127    1.283   .     A
C73    C90     1.439   .     S
C74    C78     1.412   .     A
C74    C97     1.418   .     A
C74    O134    1.381   .     S
C75    O141    1.273   .     A
C75    C79     1.365   .     S
C75    O138    1.273   .     A
C76    O139    1.273   .     A
C76    C80     1.365   .     S
C76    O140    1.273   .     A
C77    C100    1.412   .     A
C77    C98     1.412   .     A
C77    C222    1.511   1_545 S
C78    C99     1.412   .     A
C78    C221    1.511   .     S
C79    C656    1.165   1_554 S
C80    C367    1.165   .     S
C81    C86     1.390   .     A
C81    C92     1.416   .     A
C81    O142    1.385   .     S
C82    O128    1.385   .     S
C82    C87     1.390   .     A
C82    C93     1.416   .     A
C83    C93     1.413   .     A
C83    O129    1.385   .     S
C83    C88     1.391   .     A
C84    C91     1.439   .     S
C84    O135    1.283   .     A
C84    O136    1.284   .     A
C85    C89     1.391   .     A
C85    O130    1.385   .     S
C85    C92     1.413   .     A
C86    C90     1.401   .     A
C86    N123    1.436   .     S
C87    N124    1.436   .     S
C87    C91     1.401   .     A
C88    N125    1.436   .     S
C88    C91     1.405   .     A
C89    C90     1.405   .     A
C89    N126    1.436   .     S
C93    C20     1.446   1_655 S
C94    H101    1.082   .     S
C94    N121    1.362   .     A
C94    C98     1.418   .     A
C95    H112    1.082   .     S
C95    C99     1.418   .     A
C95    N122    1.362   .     A
C96    H114    1.082   .     S
C96    N121    1.362   .     A
C96    C100    1.418   .     A
C97    N122    1.362   .     A
C97    H115    1.082   .     S
C98    O131    1.381   .     S
C99    O132    1.381   .     S
C100   O133    1.381   .     S
H102   N123    1.046   .     S
H103   N124    1.046   .     S
H104   N124    1.046   .     S
H105   N125    1.046   .     S
H106   N125    1.046   .     S
H107   N126    1.046   .     S
H108   N126    1.046   .     S
H109   O131    0.992   .     S
H110   O132    0.992   .     S
H111   O133    0.992   .     S
H113   O134    0.992   .     S
H116   O70     0.988   1_655 S
H118   O129    0.988   .     S
H119   O130    0.988   .     S
H120   N123    1.046   .     S
N121   Zn144   2.002   .     S
N122   Zn143   2.002   .     S
O127   Zn143   1.993   .     S
O128   H45     0.988   1_655 S
O135   Zn144   1.993   .     S
O136   Zn143   1.990   .     S
O137   Zn144   1.990   .     S
O138   Zn143   1.950   .     S
O139   Zn144   1.950   .     S
O140   Zn143   1.950   .     S
O141   Zn144   1.950   .     S
C145   O209    1.284   .     A
C145   O199    1.283   .     A
C145   C162    1.439   .     S
C146   C150    1.412   .     A
C146   C169    1.418   .     A
C146   O206    1.381   .     S
C147   O213    1.273   .     A
C147   C151    1.365   .     S
C147   O210    1.273   .     A
C148   O211    1.273   .     A
C148   C152    1.365   .     S
C148   O212    1.273   .     A
C149   C172    1.412   .     A
C149   C170    1.412   .     A
C150   C171    1.412   .     A
C150   C5      1.511   1_565 S
C151   C728    1.165   1_554 S
C152   C439    1.165   .     S
C153   C158    1.390   .     A
C153   C164    1.416   .     A
C153   O214    1.385   .     S
C154   O200    1.385   .     S
C154   C159    1.390   .     A
C154   C165    1.416   .     A
C155   C165    1.413   .     A
C155   O201    1.385   .     S
C155   C160    1.391   .     A
C156   C163    1.439   .     S
C156   O207    1.283   .     A
C156   O208    1.284   .     A
C157   C161    1.391   .     A
C157   O202    1.385   .     S
C157   C164    1.413   .     A
C158   C162    1.401   .     A
C158   N195    1.436   .     S
C159   N196    1.436   .     S
C159   C163    1.401   .     A
C160   N197    1.436   .     S
C160   C163    1.405   .     A
C161   C162    1.405   .     A
C161   N198    1.436   .     S
C164   C237    1.446   1_455 S
C165   C236    1.446   .     S
C166   H173    1.082   .     S
C166   N193    1.362   .     A
C166   C170    1.418   .     A
C167   H184    1.082   .     S
C167   C171    1.418   .     A
C167   N194    1.362   .     A
C168   H186    1.082   .     S
C168   N193    1.362   .     A
C168   C172    1.418   .     A
C169   N194    1.362   .     A
C169   H187    1.082   .     S
C170   O203    1.381   .     S
C171   O204    1.381   .     S
C172   O205    1.381   .     S
H174   N195    1.046   .     S
H175   N196    1.046   .     S
H176   N196    1.046   .     S
H177   N197    1.046   .     S
H178   N197    1.046   .     S
H179   N198    1.046   .     S
H180   N198    1.046   .     S
H181   O203    0.992   .     S
H182   O204    0.992   .     S
H183   O205    0.992   .     S
H185   O206    0.992   .     S
H188   O286    0.988   .     S
H189   O272    0.988   1_455 S
H190   O201    0.988   .     S
H191   O202    0.988   .     S
H192   N195    1.046   .     S
N193   Zn216   2.002   .     S
N194   Zn215   2.002   .     S
O199   Zn215   1.993   .     S
O200   H261    0.988   .     S
O207   Zn216   1.993   .     S
O208   Zn215   1.990   .     S
O209   Zn216   1.990   .     S
O210   Zn215   1.950   .     S
O211   Zn216   1.950   .     S
O212   Zn215   1.950   .     S
O213   Zn216   1.950   .     S
O214   H260    0.988   1_455 S
C217   O281    1.284   .     A
C217   O271    1.283   .     A
C217   C234    1.439   .     S
C218   C222    1.412   .     A
C218   C241    1.418   .     A
C218   O278    1.381   .     S
C219   O285    1.273   .     A
C219   C223    1.365   .     S
C219   O282    1.273   .     A
C220   O283    1.273   .     A
C220   C224    1.365   .     S
C220   O284    1.273   .     A
C221   C244    1.412   .     A
C221   C242    1.412   .     A
C222   C243    1.412   .     A
C222   C77     1.511   1_565 S
C223   C800    1.165   1_554 S
C224   C511    1.165   .     S
C225   C230    1.390   .     A
C225   C236    1.416   .     A
C225   O286    1.385   .     S
C226   O272    1.385   .     S
C226   C231    1.390   .     A
C226   C237    1.416   .     A
C227   C237    1.413   .     A
C227   O273    1.385   .     S
C227   C232    1.391   .     A
C228   C235    1.439   .     S
C228   O279    1.283   .     A
C228   O280    1.284   .     A
C229   C233    1.391   .     A
C229   O274    1.385   .     S
C229   C236    1.413   .     A
C230   C234    1.401   .     A
C230   N267    1.436   .     S
C231   N268    1.436   .     S
C231   C235    1.401   .     A
C232   N269    1.436   .     S
C232   C235    1.405   .     A
C233   C234    1.405   .     A
C233   N270    1.436   .     S
C237   C164    1.446   1_655 S
C238   H245    1.082   .     S
C238   N265    1.362   .     A
C238   C242    1.418   .     A
C239   H256    1.082   .     S
C239   C243    1.418   .     A
C239   N266    1.362   .     A
C240   H258    1.082   .     S
C240   N265    1.362   .     A
C240   C244    1.418   .     A
C241   N266    1.362   .     A
C241   H259    1.082   .     S
C242   O275    1.381   .     S
C243   O276    1.381   .     S
C244   O277    1.381   .     S
H246   N267    1.046   .     S
H247   N268    1.046   .     S
H248   N268    1.046   .     S
H249   N269    1.046   .     S
H250   N269    1.046   .     S
H251   N270    1.046   .     S
H252   N270    1.046   .     S
H253   O275    0.992   .     S
H254   O276    0.992   .     S
H255   O277    0.992   .     S
H257   O278    0.992   .     S
H260   O214    0.988   1_655 S
H262   O273    0.988   .     S
H263   O274    0.988   .     S
H264   N267    1.046   .     S
N265   Zn288   2.002   .     S
N266   Zn287   2.002   .     S
O271   Zn287   1.993   .     S
O272   H189    0.988   1_655 S
O279   Zn288   1.993   .     S
O280   Zn287   1.990   .     S
O281   Zn288   1.990   .     S
O282   Zn287   1.950   .     S
O283   Zn288   1.950   .     S
O284   Zn287   1.950   .     S
O285   Zn288   1.950   .     S
C289   O353    1.284   .     A
C289   O343    1.283   .     A
C289   C306    1.439   .     S
C290   C294    1.412   .     A
C290   C313    1.418   .     A
C290   O350    1.381   .     S
C291   O357    1.273   .     A
C291   C295    1.365   .     S
C291   O354    1.273   .     A
C292   O355    1.273   .     A
C292   C296    1.365   .     S
C292   O356    1.273   .     A
C293   C316    1.412   .     A
C293   C314    1.412   .     A
C293   C438    1.511   1_545 S
C294   C315    1.412   .     A
C294   C437    1.511   .     S
C296   C583    1.165   .     S
C297   C302    1.390   .     A
C297   C308    1.416   .     A
C297   O358    1.385   .     S
C298   O344    1.385   .     S
C298   C303    1.390   .     A
C298   C309    1.416   .     A
C299   C309    1.413   .     A
C299   O345    1.385   .     S
C299   C304    1.391   .     A
C300   C307    1.439   .     S
C300   O351    1.283   .     A
C300   O352    1.284   .     A
C301   C305    1.391   .     A
C301   O346    1.385   .     S
C301   C308    1.413   .     A
C302   C306    1.401   .     A
C302   N339    1.436   .     S
C303   N340    1.436   .     S
C303   C307    1.401   .     A
C304   N341    1.436   .     S
C304   C307    1.405   .     A
C305   C306    1.405   .     A
C305   N342    1.436   .     S
C308   C381    1.446   1_455 S
C309   C380    1.446   .     S
C310   H317    1.082   .     S
C310   N337    1.362   .     A
C310   C314    1.418   .     A
C311   H328    1.082   .     S
C311   C315    1.418   .     A
C311   N338    1.362   .     A
C312   H330    1.082   .     S
C312   N337    1.362   .     A
C312   C316    1.418   .     A
C313   N338    1.362   .     A
C313   H331    1.082   .     S
C314   O347    1.381   .     S
C315   O348    1.381   .     S
C316   O349    1.381   .     S
H318   N339    1.046   .     S
H319   N340    1.046   .     S
H320   N340    1.046   .     S
H321   N341    1.046   .     S
H322   N341    1.046   .     S
H323   N342    1.046   .     S
H324   N342    1.046   .     S
H325   O347    0.992   .     S
H326   O348    0.992   .     S
H327   O349    0.992   .     S
H329   O350    0.992   .     S
H332   O430    0.988   .     S
H333   O416    0.988   1_455 S
H334   O345    0.988   .     S
H335   O346    0.988   .     S
H336   N339    1.046   .     S
N337   Zn360   2.002   .     S
N338   Zn359   2.002   .     S
O343   Zn359   1.993   .     S
O344   H405    0.988   .     S
O351   Zn360   1.993   .     S
O352   Zn359   1.990   .     S
O353   Zn360   1.990   .     S
O354   Zn359   1.950   .     S
O355   Zn360   1.950   .     S
O356   Zn359   1.950   .     S
O357   Zn360   1.950   .     S
O358   H404    0.988   1_455 S
C361   O425    1.284   .     A
C361   O415    1.283   .     A
C361   C378    1.439   .     S
C362   C366    1.412   .     A
C362   C385    1.418   .     A
C362   O422    1.381   .     S
C363   O429    1.273   .     A
C363   C367    1.365   .     S
C363   O426    1.273   .     A
C364   O427    1.273   .     A
C364   C368    1.365   .     S
C364   O428    1.273   .     A
C365   C388    1.412   .     A
C365   C386    1.412   .     A
C365   C510    1.511   1_545 S
C366   C387    1.412   .     A
C366   C509    1.511   .     S
C368   C655    1.165   .     S
C369   C374    1.390   .     A
C369   C380    1.416   .     A
C369   O430    1.385   .     S
C370   O416    1.385   .     S
C370   C375    1.390   .     A
C370   C381    1.416   .     A
C371   C381    1.413   .     A
C371   O417    1.385   .     S
C371   C376    1.391   .     A
C372   C379    1.439   .     S
C372   O423    1.283   .     A
C372   O424    1.284   .     A
C373   C377    1.391   .     A
C373   O418    1.385   .     S
C373   C380    1.413   .     A
C374   C378    1.401   .     A
C374   N411    1.436   .     S
C375   N412    1.436   .     S
C375   C379    1.401   .     A
C376   N413    1.436   .     S
C376   C379    1.405   .     A
C377   C378    1.405   .     A
C377   N414    1.436   .     S
C381   C308    1.446   1_655 S
C382   H389    1.082   .     S
C382   N409    1.362   .     A
C382   C386    1.418   .     A
C383   H400    1.082   .     S
C383   C387    1.418   .     A
C383   N410    1.362   .     A
C384   H402    1.082   .     S
C384   N409    1.362   .     A
C384   C388    1.418   .     A
C385   N410    1.362   .     A
C385   H403    1.082   .     S
C386   O419    1.381   .     S
C387   O420    1.381   .     S
C388   O421    1.381   .     S
H390   N411    1.046   .     S
H391   N412    1.046   .     S
H392   N412    1.046   .     S
H393   N413    1.046   .     S
H394   N413    1.046   .     S
H395   N414    1.046   .     S
H396   N414    1.046   .     S
H397   O419    0.992   .     S
H398   O420    0.992   .     S
H399   O421    0.992   .     S
H401   O422    0.992   .     S
H404   O358    0.988   1_655 S
H406   O417    0.988   .     S
H407   O418    0.988   .     S
H408   N411    1.046   .     S
N409   Zn432   2.002   .     S
N410   Zn431   2.002   .     S
O415   Zn431   1.993   .     S
O416   H333    0.988   1_655 S
O423   Zn432   1.993   .     S
O424   Zn431   1.990   .     S
O425   Zn432   1.990   .     S
O426   Zn431   1.950   .     S
O427   Zn432   1.950   .     S
O428   Zn431   1.950   .     S
O429   Zn432   1.950   .     S
C433   O497    1.284   .     A
C433   O487    1.283   .     A
C433   C450    1.439   .     S
C434   C438    1.412   .     A
C434   C457    1.418   .     A
C434   O494    1.381   .     S
C435   O501    1.273   .     A
C435   C439    1.365   .     S
C435   O498    1.273   .     A
C436   O499    1.273   .     A
C436   C440    1.365   .     S
C436   O500    1.273   .     A
C437   C460    1.412   .     A
C437   C458    1.412   .     A
C438   C459    1.412   .     A
C438   C293    1.511   1_565 S
C440   C727    1.165   .     S
C441   C446    1.390   .     A
C441   C452    1.416   .     A
C441   O502    1.385   .     S
C442   O488    1.385   .     S
C442   C447    1.390   .     A
C442   C453    1.416   .     A
C443   C453    1.413   .     A
C443   O489    1.385   .     S
C443   C448    1.391   .     A
C444   C451    1.439   .     S
C444   O495    1.283   .     A
C444   O496    1.284   .     A
C445   C449    1.391   .     A
C445   O490    1.385   .     S
C445   C452    1.413   .     A
C446   C450    1.401   .     A
C446   N483    1.436   .     S
C447   N484    1.436   .     S
C447   C451    1.401   .     A
C448   N485    1.436   .     S
C448   C451    1.405   .     A
C449   C450    1.405   .     A
C449   N486    1.436   .     S
C452   C525    1.446   1_455 S
C453   C524    1.446   .     S
C454   H461    1.082   .     S
C454   N481    1.362   .     A
C454   C458    1.418   .     A
C455   H472    1.082   .     S
C455   C459    1.418   .     A
C455   N482    1.362   .     A
C456   H474    1.082   .     S
C456   N481    1.362   .     A
C456   C460    1.418   .     A
C457   N482    1.362   .     A
C457   H475    1.082   .     S
C458   O491    1.381   .     S
C459   O492    1.381   .     S
C460   O493    1.381   .     S
H462   N483    1.046   .     S
H463   N484    1.046   .     S
H464   N484    1.046   .     S
H465   N485    1.046   .     S
H466   N485    1.046   .     S
H467   N486    1.046   .     S
H468   N486    1.046   .     S
H469   O491    0.992   .     S
H470   O492    0.992   .     S
H471   O493    0.992   .     S
H473   O494    0.992   .     S
H476   O574    0.988   .     S
H477   O560    0.988   1_455 S
H478   O489    0.988   .     S
H479   O490    0.988   .     S
H480   N483    1.046   .     S
N481   Zn504   2.002   .     S
N482   Zn503   2.002   .     S
O487   Zn503   1.993   .     S
O488   H549    0.988   .     S
O495   Zn504   1.993   .     S
O496   Zn503   1.990   .     S
O497   Zn504   1.990   .     S
O498   Zn503   1.950   .     S
O499   Zn504   1.950   .     S
O500   Zn503   1.950   .     S
O501   Zn504   1.950   .     S
O502   H548    0.988   1_455 S
C505   O569    1.284   .     A
C505   O559    1.283   .     A
C505   C522    1.439   .     S
C506   C510    1.412   .     A
C506   C529    1.418   .     A
C506   O566    1.381   .     S
C507   O573    1.273   .     A
C507   C511    1.365   .     S
C507   O570    1.273   .     A
C508   O571    1.273   .     A
C508   C512    1.365   .     S
C508   O572    1.273   .     A
C509   C532    1.412   .     A
C509   C530    1.412   .     A
C510   C531    1.412   .     A
C510   C365    1.511   1_565 S
C512   C799    1.165   .     S
C513   C518    1.390   .     A
C513   C524    1.416   .     A
C513   O574    1.385   .     S
C514   O560    1.385   .     S
C514   C519    1.390   .     A
C514   C525    1.416   .     A
C515   C525    1.413   .     A
C515   O561    1.385   .     S
C515   C520    1.391   .     A
C516   C523    1.439   .     S
C516   O567    1.283   .     A
C516   O568    1.284   .     A
C517   C521    1.391   .     A
C517   O562    1.385   .     S
C517   C524    1.413   .     A
C518   C522    1.401   .     A
C518   N555    1.436   .     S
C519   N556    1.436   .     S
C519   C523    1.401   .     A
C520   N557    1.436   .     S
C520   C523    1.405   .     A
C521   C522    1.405   .     A
C521   N558    1.436   .     S
C525   C452    1.446   1_655 S
C526   H533    1.082   .     S
C526   N553    1.362   .     A
C526   C530    1.418   .     A
C527   H544    1.082   .     S
C527   C531    1.418   .     A
C527   N554    1.362   .     A
C528   H546    1.082   .     S
C528   N553    1.362   .     A
C528   C532    1.418   .     A
C529   N554    1.362   .     A
C529   H547    1.082   .     S
C530   O563    1.381   .     S
C531   O564    1.381   .     S
C532   O565    1.381   .     S
H534   N555    1.046   .     S
H535   N556    1.046   .     S
H536   N556    1.046   .     S
H537   N557    1.046   .     S
H538   N557    1.046   .     S
H539   N558    1.046   .     S
H540   N558    1.046   .     S
H541   O563    0.992   .     S
H542   O564    0.992   .     S
H543   O565    0.992   .     S
H545   O566    0.992   .     S
H548   O502    0.988   1_655 S
H550   O561    0.988   .     S
H551   O562    0.988   .     S
H552   N555    1.046   .     S
N553   Zn576   2.002   .     S
N554   Zn575   2.002   .     S
O559   Zn575   1.993   .     S
O560   H477    0.988   1_655 S
O567   Zn576   1.993   .     S
O568   Zn575   1.990   .     S
O569   Zn576   1.990   .     S
O570   Zn575   1.950   .     S
O571   Zn576   1.950   .     S
O572   Zn575   1.950   .     S
O573   Zn576   1.950   .     S
C577   O641    1.284   .     A
C577   O631    1.283   .     A
C577   C594    1.439   .     S
C578   C582    1.412   .     A
C578   C601    1.418   .     A
C578   O638    1.381   .     S
C579   O645    1.273   .     A
C579   C583    1.365   .     S
C579   O642    1.273   .     A
C580   O643    1.273   .     A
C580   C584    1.365   .     S
C580   O644    1.273   .     A
C581   C604    1.412   .     A
C581   C602    1.412   .     A
C581   C726    1.511   1_545 S
C582   C603    1.412   .     A
C582   C725    1.511   .     S
C584   C7      1.165   1_556 S
C585   C590    1.390   .     A
C585   C596    1.416   .     A
C585   O646    1.385   .     S
C586   O632    1.385   .     S
C586   C591    1.390   .     A
C586   C597    1.416   .     A
C587   C597    1.413   .     A
C587   O633    1.385   .     S
C587   C592    1.391   .     A
C588   C595    1.439   .     S
C588   O639    1.283   .     A
C588   O640    1.284   .     A
C589   C593    1.391   .     A
C589   O634    1.385   .     S
C589   C596    1.413   .     A
C590   C594    1.401   .     A
C590   N627    1.436   .     S
C591   N628    1.436   .     S
C591   C595    1.401   .     A
C592   N629    1.436   .     S
C592   C595    1.405   .     A
C593   C594    1.405   .     A
C593   N630    1.436   .     S
C596   C669    1.446   1_455 S
C597   C668    1.446   .     S
C598   H605    1.082   .     S
C598   N625    1.362   .     A
C598   C602    1.418   .     A
C599   H616    1.082   .     S
C599   C603    1.418   .     A
C599   N626    1.362   .     A
C600   H618    1.082   .     S
C600   N625    1.362   .     A
C600   C604    1.418   .     A
C601   N626    1.362   .     A
C601   H619    1.082   .     S
C602   O635    1.381   .     S
C603   O636    1.381   .     S
C604   O637    1.381   .     S
H606   N627    1.046   .     S
H607   N628    1.046   .     S
H608   N628    1.046   .     S
H609   N629    1.046   .     S
H610   N629    1.046   .     S
H611   N630    1.046   .     S
H612   N630    1.046   .     S
H613   O635    0.992   .     S
H614   O636    0.992   .     S
H615   O637    0.992   .     S
H617   O638    0.992   .     S
H620   O718    0.988   .     S
H621   O704    0.988   1_455 S
H622   O633    0.988   .     S
H623   O634    0.988   .     S
H624   N627    1.046   .     S
N625   Zn648   2.002   .     S
N626   Zn647   2.002   .     S
O631   Zn647   1.993   .     S
O632   H693    0.988   .     S
O639   Zn648   1.993   .     S
O640   Zn647   1.990   .     S
O641   Zn648   1.990   .     S
O642   Zn647   1.950   .     S
O643   Zn648   1.950   .     S
O644   Zn647   1.950   .     S
O645   Zn648   1.950   .     S
O646   H692    0.988   1_455 S
C649   O713    1.284   .     A
C649   O703    1.283   .     A
C649   C666    1.439   .     S
C650   C654    1.412   .     A
C650   C673    1.418   .     A
C650   O710    1.381   .     S
C651   O717    1.273   .     A
C651   C655    1.365   .     S
C651   O714    1.273   .     A
C652   O715    1.273   .     A
C652   C656    1.365   .     S
C652   O716    1.273   .     A
C653   C676    1.412   .     A
C653   C674    1.412   .     A
C653   C798    1.511   1_545 S
C654   C675    1.412   .     A
C654   C797    1.511   .     S
C656   C79     1.165   1_556 S
C657   C662    1.390   .     A
C657   C668    1.416   .     A
C657   O718    1.385   .     S
C658   O704    1.385   .     S
C658   C663    1.390   .     A
C658   C669    1.416   .     A
C659   C669    1.413   .     A
C659   O705    1.385   .     S
C659   C664    1.391   .     A
C660   C667    1.439   .     S
C660   O711    1.283   .     A
C660   O712    1.284   .     A
C661   C665    1.391   .     A
C661   O706    1.385   .     S
C661   C668    1.413   .     A
C662   C666    1.401   .     A
C662   N699    1.436   .     S
C663   N700    1.436   .     S
C663   C667    1.401   .     A
C664   N701    1.436   .     S
C664   C667    1.405   .     A
C665   C666    1.405   .     A
C665   N702    1.436   .     S
C669   C596    1.446   1_655 S
C670   H677    1.082   .     S
C670   N697    1.362   .     A
C670   C674    1.418   .     A
C671   H688    1.082   .     S
C671   C675    1.418   .     A
C671   N698    1.362   .     A
C672   H690    1.082   .     S
C672   N697    1.362   .     A
C672   C676    1.418   .     A
C673   N698    1.362   .     A
C673   H691    1.082   .     S
C674   O707    1.381   .     S
C675   O708    1.381   .     S
C676   O709    1.381   .     S
H678   N699    1.046   .     S
H679   N700    1.046   .     S
H680   N700    1.046   .     S
H681   N701    1.046   .     S
H682   N701    1.046   .     S
H683   N702    1.046   .     S
H684   N702    1.046   .     S
H685   O707    0.992   .     S
H686   O708    0.992   .     S
H687   O709    0.992   .     S
H689   O710    0.992   .     S
H692   O646    0.988   1_655 S
H694   O705    0.988   .     S
H695   O706    0.988   .     S
H696   N699    1.046   .     S
N697   Zn720   2.002   .     S
N698   Zn719   2.002   .     S
O703   Zn719   1.993   .     S
O704   H621    0.988   1_655 S
O711   Zn720   1.993   .     S
O712   Zn719   1.990   .     S
O713   Zn720   1.990   .     S
O714   Zn719   1.950   .     S
O715   Zn720   1.950   .     S
O716   Zn719   1.950   .     S
O717   Zn720   1.950   .     S
C721   O785    1.284   .     A
C721   O775    1.283   .     A
C721   C738    1.439   .     S
C722   C726    1.412   .     A
C722   C745    1.418   .     A
C722   O782    1.381   .     S
C723   O789    1.273   .     A
C723   C727    1.365   .     S
C723   O786    1.273   .     A
C724   O787    1.273   .     A
C724   C728    1.365   .     S
C724   O788    1.273   .     A
C725   C748    1.412   .     A
C725   C746    1.412   .     A
C726   C747    1.412   .     A
C726   C581    1.511   1_565 S
C728   C151    1.165   1_556 S
C729   C734    1.390   .     A
C729   C740    1.416   .     A
C729   O790    1.385   .     S
C730   O776    1.385   .     S
C730   C735    1.390   .     A
C730   C741    1.416   .     A
C731   C741    1.413   .     A
C731   O777    1.385   .     S
C731   C736    1.391   .     A
C732   C739    1.439   .     S
C732   O783    1.283   .     A
C732   O784    1.284   .     A
C733   C737    1.391   .     A
C733   O778    1.385   .     S
C733   C740    1.413   .     A
C734   C738    1.401   .     A
C734   N771    1.436   .     S
C735   N772    1.436   .     S
C735   C739    1.401   .     A
C736   N773    1.436   .     S
C736   C739    1.405   .     A
C737   C738    1.405   .     A
C737   N774    1.436   .     S
C740   C813    1.446   1_455 S
C741   C812    1.446   .     S
C742   H749    1.082   .     S
C742   N769    1.362   .     A
C742   C746    1.418   .     A
C743   H760    1.082   .     S
C743   C747    1.418   .     A
C743   N770    1.362   .     A
C744   H762    1.082   .     S
C744   N769    1.362   .     A
C744   C748    1.418   .     A
C745   N770    1.362   .     A
C745   H763    1.082   .     S
C746   O779    1.381   .     S
C747   O780    1.381   .     S
C748   O781    1.381   .     S
H750   N771    1.046   .     S
H751   N772    1.046   .     S
H752   N772    1.046   .     S
H753   N773    1.046   .     S
H754   N773    1.046   .     S
H755   N774    1.046   .     S
H756   N774    1.046   .     S
H757   O779    0.992   .     S
H758   O780    0.992   .     S
H759   O781    0.992   .     S
H761   O782    0.992   .     S
H764   O862    0.988   .     S
H765   O848    0.988   1_455 S
H766   O777    0.988   .     S
H767   O778    0.988   .     S
H768   N771    1.046   .     S
N769   Zn792   2.002   .     S
N770   Zn791   2.002   .     S
O775   Zn791   1.993   .     S
O776   H837    0.988   .     S
O783   Zn792   1.993   .     S
O784   Zn791   1.990   .     S
O785   Zn792   1.990   .     S
O786   Zn791   1.950   .     S
O787   Zn792   1.950   .     S
O788   Zn791   1.950   .     S
O789   Zn792   1.950   .     S
O790   H836    0.988   1_455 S
C793   O857    1.284   .     A
C793   O847    1.283   .     A
C793   C810    1.439   .     S
C794   C798    1.412   .     A
C794   C817    1.418   .     A
C794   O854    1.381   .     S
C795   O861    1.273   .     A
C795   C799    1.365   .     S
C795   O858    1.273   .     A
C796   O859    1.273   .     A
C796   C800    1.365   .     S
C796   O860    1.273   .     A
C797   C820    1.412   .     A
C797   C818    1.412   .     A
C798   C819    1.412   .     A
C798   C653    1.511   1_565 S
C800   C223    1.165   1_556 S
C801   C806    1.390   .     A
C801   C812    1.416   .     A
C801   O862    1.385   .     S
C802   O848    1.385   .     S
C802   C807    1.390   .     A
C802   C813    1.416   .     A
C803   C813    1.413   .     A
C803   O849    1.385   .     S
C803   C808    1.391   .     A
C804   C811    1.439   .     S
C804   O855    1.283   .     A
C804   O856    1.284   .     A
C805   C809    1.391   .     A
C805   O850    1.385   .     S
C805   C812    1.413   .     A
C806   C810    1.401   .     A
C806   N843    1.436   .     S
C807   N844    1.436   .     S
C807   C811    1.401   .     A
C808   N845    1.436   .     S
C808   C811    1.405   .     A
C809   C810    1.405   .     A
C809   N846    1.436   .     S
C813   C740    1.446   1_655 S
C814   H821    1.082   .     S
C814   N841    1.362   .     A
C814   C818    1.418   .     A
C815   H832    1.082   .     S
C815   C819    1.418   .     A
C815   N842    1.362   .     A
C816   H834    1.082   .     S
C816   N841    1.362   .     A
C816   C820    1.418   .     A
C817   N842    1.362   .     A
C817   H835    1.082   .     S
C818   O851    1.381   .     S
C819   O852    1.381   .     S
C820   O853    1.381   .     S
H822   N843    1.046   .     S
H823   N844    1.046   .     S
H824   N844    1.046   .     S
H825   N845    1.046   .     S
H826   N845    1.046   .     S
H827   N846    1.046   .     S
H828   N846    1.046   .     S
H829   O851    0.992   .     S
H830   O852    0.992   .     S
H831   O853    0.992   .     S
H833   O854    0.992   .     S
H836   O790    0.988   1_655 S
H838   O849    0.988   .     S
H839   O850    0.988   .     S
H840   N843    1.046   .     S
N841   Zn864   2.002   .     S
N842   Zn863   2.002   .     S
O847   Zn863   1.993   .     S
O848   H765    0.988   1_655 S
O855   Zn864   1.993   .     S
O856   Zn863   1.990   .     S
O857   Zn864   1.990   .     S
O858   Zn863   1.950   .     S
O859   Zn864   1.950   .     S
O860   Zn863   1.950   .     S
O861   Zn864   1.950   .     S
