data_str_m3_o1_o17_pcu_sym.185
_audit_creation_date              2020-01-03
_audit_creation_method            'Materials Studio'
_symmetry_space_group_name_H-M    'P1'
_symmetry_Int_Tables_number       1
_symmetry_cell_setting            triclinic
loop_
_symmetry_equiv_pos_as_xyz
  x,y,z
_cell_length_a                    32.0759
_cell_length_b                    29.5438
_cell_length_c                    29.8378
_cell_angle_alpha                 90.3581
_cell_angle_beta                  90.4327
_cell_angle_gamma                 89.9780
loop_
_atom_site_label
_atom_site_type_symbol
_atom_site_fract_x
_atom_site_fract_y
_atom_site_fract_z
_atom_site_U_iso_or_equiv
_atom_site_adp_type
_atom_site_occupancy
C1     C     0.08665   0.16667   0.24991   0.00000  Uiso   1.00
C2     C     0.24669   0.16666   0.25009   0.00000  Uiso   1.00
C3     C     0.09318   0.18377   0.02565   0.00000  Uiso   1.00
C4     C     0.24012   0.14943   0.47435   0.00000  Uiso   1.00
C5     C     0.02126   0.12743   0.23695   0.00000  Uiso   1.00
C6     C     0.31207   0.20591   0.26303   0.00000  Uiso   1.00
C7     C     0.31189   0.12742   0.23701   0.00000  Uiso   1.00
C8     C     0.02144   0.20592   0.26298   0.00000  Uiso   1.00
C9     C     0.29083   0.16666   0.25006   0.00000  Uiso   1.00
C10    C     0.04250   0.16668   0.24993   0.00000  Uiso   1.00
C11    C     0.19402   0.02413   0.27640   0.00000  Uiso   1.00
C12    C     0.13931   0.30920   0.22360   0.00000  Uiso   1.00
C13    C     0.13931   0.02382   0.22360   0.00000  Uiso   1.00
C14    C     0.19402   0.30951   0.27640   0.00000  Uiso   1.00
C15    C     0.16755   0.16651   0.16362   0.00000  Uiso   1.00
C16    C     0.16578   0.16682   0.33638   0.00000  Uiso   1.00
C17    C     0.20117   0.15778   0.40620   0.00000  Uiso   1.00
C18    C     0.13215   0.17549   0.09380   0.00000  Uiso   1.00
C19    C     0.16414   0.16732   0.38395   0.00000  Uiso   1.00
C20    C     0.16919   0.16601   0.11605   0.00000  Uiso   1.00
C21    C     0.12676   0.17708   0.40663   0.00000  Uiso   1.00
C22    C     0.20657   0.15625   0.09337   0.00000  Uiso   1.00
C23    C     0.12753   0.17605   0.45390   0.00000  Uiso   1.00
C24    C     0.20579   0.15721   0.04610   0.00000  Uiso   1.00
C25    C     0.16580   0.16683   0.47653   0.00000  Uiso   1.00
C26    C     0.16751   0.16642   0.02347   0.00000  Uiso   1.00
C27    C     0.20246   0.15794   0.45232   0.00000  Uiso   1.00
C28    C     0.13085   0.17530   0.04768   0.00000  Uiso   1.00
C29    C     0.09139   0.18393   0.47929   0.00000  Uiso   1.00
C30    C     0.24192   0.14927   0.02071   0.00000  Uiso   1.00
H31    H     0.22924   0.15067   0.38724   0.00000  Uiso   1.00
H32    H     0.10408   0.18258   0.11276   0.00000  Uiso   1.00
H33    H     0.06128   0.19005   0.46412   0.00000  Uiso   1.00
H34    H     0.27202   0.14310   0.03588   0.00000  Uiso   1.00
H35    H     0.06491   0.19017   0.04436   0.00000  Uiso   1.00
H36    H     0.26839   0.14299   0.45564   0.00000  Uiso   1.00
H37    H     0.03754   0.09706   0.22644   0.00000  Uiso   1.00
H38    H     0.29579   0.23628   0.27355   0.00000  Uiso   1.00
H39    H     0.29547   0.09707   0.22647   0.00000  Uiso   1.00
H40    H     0.03786   0.23627   0.27351   0.00000  Uiso   1.00
H41    H     0.21589   0.04241   0.29752   0.00000  Uiso   1.00
H42    H     0.11744   0.29092   0.20248   0.00000  Uiso   1.00
H43    H     0.11744   0.04186   0.20248   0.00000  Uiso   1.00
H44    H     0.21590   0.29148   0.29752   0.00000  Uiso   1.00
N45    N     0.16667   0.28573   0.25000   0.00000  Uiso   1.00
N46    N     0.16667   0.04760   0.25000   0.00000  Uiso   1.00
O47    O     0.10559   0.20487   0.24999   0.00000  Uiso   1.00
O48    O     0.22774   0.12846   0.25000   0.00000  Uiso   1.00
O49    O     0.22774   0.20487   0.25000   0.00000  Uiso   1.00
O50    O     0.10559   0.12846   0.24999   0.00000  Uiso   1.00
O51    O     0.16666   0.20489   0.18392   0.00000  Uiso   1.00
O52    O     0.16667   0.12844   0.31607   0.00000  Uiso   1.00
O53    O     0.16667   0.20489   0.31607   0.00000  Uiso   1.00
O54    O     0.16666   0.12844   0.18392   0.00000  Uiso   1.00
Zn55   Zn    0.16667   0.21771   0.25000   0.00000  Uiso   1.00
Zn56   Zn    0.16667   0.11563   0.25000   0.00000  Uiso   1.00
C57    C     0.08691   0.18766   0.38031   0.00000  Uiso   1.00
C58    C     0.06000   0.14544   0.37422   0.00000  Uiso   1.00
H59    H     0.07712   0.11948   0.35452   0.00000  Uiso   1.00
H60    H     0.05144   0.13099   0.40715   0.00000  Uiso   1.00
H61    H     0.03095   0.15431   0.35578   0.00000  Uiso   1.00
H62    H     0.06890   0.21517   0.39661   0.00000  Uiso   1.00
H63    H     0.09369   0.20135   0.34667   0.00000  Uiso   1.00
C64    C     0.24644   0.14573   0.11969   0.00000  Uiso   1.00
C65    C     0.27340   0.18795   0.12557   0.00000  Uiso   1.00
H66    H     0.28202   0.20218   0.09258   0.00000  Uiso   1.00
H67    H     0.25629   0.21405   0.14511   0.00000  Uiso   1.00
H68    H     0.30241   0.17913   0.14411   0.00000  Uiso   1.00
H69    H     0.23969   0.13221   0.15340   0.00000  Uiso   1.00
H70    H     0.26440   0.11813   0.10348   0.00000  Uiso   1.00
C71    C     0.41998   0.16667   0.24991   0.00000  Uiso   1.00
C72    C     0.58002   0.16666   0.25009   0.00000  Uiso   1.00
C73    C     0.42651   0.18377   0.02565   0.00000  Uiso   1.00
C74    C     0.57346   0.14943   0.47435   0.00000  Uiso   1.00
C75    C     0.35459   0.12743   0.23695   0.00000  Uiso   1.00
C76    C     0.64541   0.20591   0.26303   0.00000  Uiso   1.00
C77    C     0.64523   0.12742   0.23701   0.00000  Uiso   1.00
C78    C     0.35477   0.20592   0.26298   0.00000  Uiso   1.00
C79    C     0.62416   0.16666   0.25006   0.00000  Uiso   1.00
C80    C     0.37584   0.16668   0.24993   0.00000  Uiso   1.00
C81    C     0.52736   0.02413   0.27640   0.00000  Uiso   1.00
C82    C     0.47264   0.30920   0.22360   0.00000  Uiso   1.00
C83    C     0.47264   0.02382   0.22360   0.00000  Uiso   1.00
C84    C     0.52735   0.30951   0.27640   0.00000  Uiso   1.00
C85    C     0.50088   0.16651   0.16362   0.00000  Uiso   1.00
C86    C     0.49912   0.16682   0.33638   0.00000  Uiso   1.00
C87    C     0.53450   0.15778   0.40620   0.00000  Uiso   1.00
C88    C     0.46548   0.17549   0.09380   0.00000  Uiso   1.00
C89    C     0.49748   0.16732   0.38395   0.00000  Uiso   1.00
C90    C     0.50252   0.16601   0.11605   0.00000  Uiso   1.00
C91    C     0.46010   0.17708   0.40663   0.00000  Uiso   1.00
C92    C     0.53990   0.15625   0.09337   0.00000  Uiso   1.00
C93    C     0.46086   0.17605   0.45390   0.00000  Uiso   1.00
C94    C     0.53912   0.15721   0.04610   0.00000  Uiso   1.00
C95    C     0.49914   0.16683   0.47653   0.00000  Uiso   1.00
C96    C     0.50085   0.16642   0.02347   0.00000  Uiso   1.00
C97    C     0.53580   0.15794   0.45232   0.00000  Uiso   1.00
C98    C     0.46418   0.17530   0.04768   0.00000  Uiso   1.00
C99    C     0.42472   0.18393   0.47929   0.00000  Uiso   1.00
C100   C     0.57525   0.14927   0.02071   0.00000  Uiso   1.00
H101   H     0.56257   0.15067   0.38724   0.00000  Uiso   1.00
H102   H     0.43741   0.18258   0.11276   0.00000  Uiso   1.00
H103   H     0.39461   0.19005   0.46412   0.00000  Uiso   1.00
H104   H     0.60535   0.14310   0.03588   0.00000  Uiso   1.00
H105   H     0.39824   0.19017   0.04436   0.00000  Uiso   1.00
H106   H     0.60172   0.14299   0.45564   0.00000  Uiso   1.00
H107   H     0.37087   0.09706   0.22644   0.00000  Uiso   1.00
H108   H     0.62913   0.23628   0.27355   0.00000  Uiso   1.00
H109   H     0.62880   0.09707   0.22647   0.00000  Uiso   1.00
H110   H     0.37119   0.23627   0.27351   0.00000  Uiso   1.00
H111   H     0.54923   0.04241   0.29752   0.00000  Uiso   1.00
H112   H     0.45077   0.29092   0.20248   0.00000  Uiso   1.00
H113   H     0.45077   0.04186   0.20248   0.00000  Uiso   1.00
H114   H     0.54923   0.29148   0.29752   0.00000  Uiso   1.00
N115   N     0.50000   0.28573   0.25000   0.00000  Uiso   1.00
N116   N     0.50000   0.04760   0.25000   0.00000  Uiso   1.00
O117   O     0.43892   0.20487   0.24999   0.00000  Uiso   1.00
O118   O     0.56108   0.12846   0.25000   0.00000  Uiso   1.00
O119   O     0.56108   0.20487   0.25000   0.00000  Uiso   1.00
O120   O     0.43892   0.12846   0.24999   0.00000  Uiso   1.00
O121   O     0.49999   0.20489   0.18392   0.00000  Uiso   1.00
O122   O     0.50001   0.12844   0.31607   0.00000  Uiso   1.00
O123   O     0.50001   0.20489   0.31607   0.00000  Uiso   1.00
O124   O     0.49999   0.12844   0.18392   0.00000  Uiso   1.00
Zn125  Zn    0.50000   0.21771   0.25000   0.00000  Uiso   1.00
Zn126  Zn    0.50000   0.11563   0.25000   0.00000  Uiso   1.00
C127   C     0.42024   0.18766   0.38031   0.00000  Uiso   1.00
C128   C     0.39333   0.14544   0.37422   0.00000  Uiso   1.00
H129   H     0.41046   0.11948   0.35452   0.00000  Uiso   1.00
H130   H     0.38478   0.13099   0.40715   0.00000  Uiso   1.00
H131   H     0.36429   0.15431   0.35578   0.00000  Uiso   1.00
H132   H     0.40223   0.21517   0.39661   0.00000  Uiso   1.00
H133   H     0.42702   0.20135   0.34667   0.00000  Uiso   1.00
C134   C     0.57977   0.14573   0.11969   0.00000  Uiso   1.00
C135   C     0.60674   0.18795   0.12557   0.00000  Uiso   1.00
H136   H     0.61536   0.20218   0.09258   0.00000  Uiso   1.00
H137   H     0.58963   0.21405   0.14511   0.00000  Uiso   1.00
H138   H     0.63575   0.17913   0.14411   0.00000  Uiso   1.00
H139   H     0.57302   0.13221   0.15340   0.00000  Uiso   1.00
H140   H     0.59773   0.11813   0.10348   0.00000  Uiso   1.00
C141   C     0.75331   0.16667   0.24991   0.00000  Uiso   1.00
C142   C     0.91335   0.16666   0.25009   0.00000  Uiso   1.00
C143   C     0.75985   0.18377   0.02565   0.00000  Uiso   1.00
C144   C     0.90679   0.14943   0.47435   0.00000  Uiso   1.00
C145   C     0.68793   0.12743   0.23695   0.00000  Uiso   1.00
C146   C     0.97874   0.20591   0.26303   0.00000  Uiso   1.00
C147   C     0.97856   0.12742   0.23701   0.00000  Uiso   1.00
C148   C     0.68810   0.20592   0.26298   0.00000  Uiso   1.00
C149   C     0.95750   0.16666   0.25006   0.00000  Uiso   1.00
C150   C     0.70917   0.16668   0.24993   0.00000  Uiso   1.00
C151   C     0.86069   0.02413   0.27640   0.00000  Uiso   1.00
C152   C     0.80598   0.30920   0.22360   0.00000  Uiso   1.00
C153   C     0.80598   0.02382   0.22360   0.00000  Uiso   1.00
C154   C     0.86069   0.30951   0.27640   0.00000  Uiso   1.00
C155   C     0.83421   0.16651   0.16362   0.00000  Uiso   1.00
C156   C     0.83245   0.16682   0.33638   0.00000  Uiso   1.00
C157   C     0.86783   0.15778   0.40620   0.00000  Uiso   1.00
C158   C     0.79882   0.17549   0.09380   0.00000  Uiso   1.00
C159   C     0.83081   0.16732   0.38395   0.00000  Uiso   1.00
C160   C     0.83585   0.16601   0.11605   0.00000  Uiso   1.00
C161   C     0.79343   0.17708   0.40663   0.00000  Uiso   1.00
C162   C     0.87323   0.15625   0.09337   0.00000  Uiso   1.00
C163   C     0.79420   0.17605   0.45390   0.00000  Uiso   1.00
C164   C     0.87245   0.15721   0.04610   0.00000  Uiso   1.00
C165   C     0.83247   0.16683   0.47653   0.00000  Uiso   1.00
C166   C     0.83418   0.16642   0.02347   0.00000  Uiso   1.00
C167   C     0.86913   0.15794   0.45232   0.00000  Uiso   1.00
C168   C     0.79752   0.17530   0.04768   0.00000  Uiso   1.00
C169   C     0.75806   0.18393   0.47929   0.00000  Uiso   1.00
C170   C     0.90858   0.14927   0.02071   0.00000  Uiso   1.00
H171   H     0.89590   0.15067   0.38724   0.00000  Uiso   1.00
H172   H     0.77074   0.18258   0.11276   0.00000  Uiso   1.00
H173   H     0.72794   0.19005   0.46412   0.00000  Uiso   1.00
H174   H     0.93869   0.14310   0.03588   0.00000  Uiso   1.00
H175   H     0.73158   0.19017   0.04436   0.00000  Uiso   1.00
H176   H     0.93505   0.14299   0.45564   0.00000  Uiso   1.00
H177   H     0.70421   0.09706   0.22644   0.00000  Uiso   1.00
H178   H     0.96246   0.23628   0.27355   0.00000  Uiso   1.00
H179   H     0.96214   0.09707   0.22647   0.00000  Uiso   1.00
H180   H     0.70453   0.23627   0.27351   0.00000  Uiso   1.00
H181   H     0.88256   0.04241   0.29752   0.00000  Uiso   1.00
H182   H     0.78411   0.29092   0.20248   0.00000  Uiso   1.00
H183   H     0.78410   0.04186   0.20248   0.00000  Uiso   1.00
H184   H     0.88256   0.29148   0.29752   0.00000  Uiso   1.00
N185   N     0.83333   0.28573   0.25000   0.00000  Uiso   1.00
N186   N     0.83333   0.04760   0.25000   0.00000  Uiso   1.00
O187   O     0.77226   0.20487   0.24999   0.00000  Uiso   1.00
O188   O     0.89441   0.12846   0.25000   0.00000  Uiso   1.00
O189   O     0.89441   0.20487   0.25000   0.00000  Uiso   1.00
O190   O     0.77226   0.12846   0.24999   0.00000  Uiso   1.00
O191   O     0.83333   0.20489   0.18392   0.00000  Uiso   1.00
O192   O     0.83334   0.12844   0.31607   0.00000  Uiso   1.00
O193   O     0.83334   0.20489   0.31607   0.00000  Uiso   1.00
O194   O     0.83333   0.12844   0.18392   0.00000  Uiso   1.00
Zn195  Zn    0.83333   0.21771   0.25000   0.00000  Uiso   1.00
Zn196  Zn    0.83333   0.11563   0.25000   0.00000  Uiso   1.00
C197   C     0.75358   0.18766   0.38031   0.00000  Uiso   1.00
C198   C     0.72666   0.14544   0.37422   0.00000  Uiso   1.00
H199   H     0.74379   0.11948   0.35452   0.00000  Uiso   1.00
H200   H     0.71811   0.13099   0.40715   0.00000  Uiso   1.00
H201   H     0.69762   0.15431   0.35578   0.00000  Uiso   1.00
H202   H     0.73557   0.21517   0.39661   0.00000  Uiso   1.00
H203   H     0.76035   0.20135   0.34667   0.00000  Uiso   1.00
C204   C     0.91311   0.14573   0.11969   0.00000  Uiso   1.00
C205   C     0.94007   0.18795   0.12557   0.00000  Uiso   1.00
H206   H     0.94869   0.20218   0.09258   0.00000  Uiso   1.00
H207   H     0.92296   0.21405   0.14511   0.00000  Uiso   1.00
H208   H     0.96908   0.17913   0.14411   0.00000  Uiso   1.00
H209   H     0.90636   0.13221   0.15340   0.00000  Uiso   1.00
H210   H     0.93107   0.11813   0.10348   0.00000  Uiso   1.00
C211   C     0.08665   0.50000   0.24991   0.00000  Uiso   1.00
C212   C     0.24669   0.50000   0.25009   0.00000  Uiso   1.00
C213   C     0.09318   0.51710   0.02565   0.00000  Uiso   1.00
C214   C     0.24012   0.48276   0.47435   0.00000  Uiso   1.00
C215   C     0.02126   0.46076   0.23695   0.00000  Uiso   1.00
C216   C     0.31207   0.53924   0.26303   0.00000  Uiso   1.00
C217   C     0.31189   0.46075   0.23701   0.00000  Uiso   1.00
C218   C     0.02144   0.53925   0.26298   0.00000  Uiso   1.00
C219   C     0.29083   0.49999   0.25006   0.00000  Uiso   1.00
C220   C     0.04250   0.50001   0.24993   0.00000  Uiso   1.00
C221   C     0.19402   0.35746   0.27640   0.00000  Uiso   1.00
C222   C     0.13931   0.64254   0.22360   0.00000  Uiso   1.00
C223   C     0.13931   0.35716   0.22360   0.00000  Uiso   1.00
C224   C     0.19402   0.64284   0.27640   0.00000  Uiso   1.00
C225   C     0.16755   0.49984   0.16362   0.00000  Uiso   1.00
C226   C     0.16578   0.50016   0.33638   0.00000  Uiso   1.00
C227   C     0.20117   0.49111   0.40620   0.00000  Uiso   1.00
C228   C     0.13215   0.50883   0.09380   0.00000  Uiso   1.00
C229   C     0.16414   0.50065   0.38395   0.00000  Uiso   1.00
C230   C     0.16919   0.49934   0.11605   0.00000  Uiso   1.00
C231   C     0.12676   0.51041   0.40663   0.00000  Uiso   1.00
C232   C     0.20657   0.48958   0.09337   0.00000  Uiso   1.00
C233   C     0.12753   0.50939   0.45390   0.00000  Uiso   1.00
C234   C     0.20579   0.49054   0.04610   0.00000  Uiso   1.00
C235   C     0.16580   0.50016   0.47653   0.00000  Uiso   1.00
C236   C     0.16751   0.49975   0.02347   0.00000  Uiso   1.00
C237   C     0.20246   0.49127   0.45232   0.00000  Uiso   1.00
C238   C     0.13085   0.50863   0.04768   0.00000  Uiso   1.00
C239   C     0.09139   0.51726   0.47929   0.00000  Uiso   1.00
C240   C     0.24192   0.48260   0.02071   0.00000  Uiso   1.00
H241   H     0.22924   0.48401   0.38724   0.00000  Uiso   1.00
H242   H     0.10408   0.51591   0.11276   0.00000  Uiso   1.00
H243   H     0.06128   0.52338   0.46412   0.00000  Uiso   1.00
H244   H     0.27202   0.47643   0.03588   0.00000  Uiso   1.00
H245   H     0.06491   0.52350   0.04436   0.00000  Uiso   1.00
H246   H     0.26839   0.47632   0.45564   0.00000  Uiso   1.00
H247   H     0.03754   0.43039   0.22644   0.00000  Uiso   1.00
H248   H     0.29579   0.56961   0.27355   0.00000  Uiso   1.00
H249   H     0.29547   0.43040   0.22647   0.00000  Uiso   1.00
H250   H     0.03786   0.56960   0.27351   0.00000  Uiso   1.00
H251   H     0.21589   0.37574   0.29752   0.00000  Uiso   1.00
H252   H     0.11744   0.62426   0.20248   0.00000  Uiso   1.00
H253   H     0.11744   0.37519   0.20248   0.00000  Uiso   1.00
H254   H     0.21590   0.62481   0.29752   0.00000  Uiso   1.00
N255   N     0.16667   0.61907   0.25000   0.00000  Uiso   1.00
N256   N     0.16667   0.38093   0.25000   0.00000  Uiso   1.00
O257   O     0.10559   0.53821   0.24999   0.00000  Uiso   1.00
O258   O     0.22774   0.46179   0.25000   0.00000  Uiso   1.00
O259   O     0.22774   0.53821   0.25000   0.00000  Uiso   1.00
O260   O     0.10559   0.46179   0.24999   0.00000  Uiso   1.00
O261   O     0.16666   0.53823   0.18392   0.00000  Uiso   1.00
O262   O     0.16667   0.46177   0.31607   0.00000  Uiso   1.00
O263   O     0.16667   0.53823   0.31607   0.00000  Uiso   1.00
O264   O     0.16666   0.46177   0.18392   0.00000  Uiso   1.00
Zn265  Zn    0.16667   0.55104   0.25000   0.00000  Uiso   1.00
Zn266  Zn    0.16667   0.44896   0.25000   0.00000  Uiso   1.00
C267   C     0.08691   0.52100   0.38031   0.00000  Uiso   1.00
C268   C     0.06000   0.47877   0.37422   0.00000  Uiso   1.00
H269   H     0.07712   0.45282   0.35452   0.00000  Uiso   1.00
H270   H     0.05144   0.46433   0.40715   0.00000  Uiso   1.00
H271   H     0.03095   0.48764   0.35578   0.00000  Uiso   1.00
H272   H     0.06890   0.54850   0.39661   0.00000  Uiso   1.00
H273   H     0.09369   0.53468   0.34667   0.00000  Uiso   1.00
C274   C     0.24644   0.47906   0.11969   0.00000  Uiso   1.00
C275   C     0.27340   0.52128   0.12557   0.00000  Uiso   1.00
H276   H     0.28202   0.53552   0.09258   0.00000  Uiso   1.00
H277   H     0.25629   0.54738   0.14511   0.00000  Uiso   1.00
H278   H     0.30241   0.51246   0.14411   0.00000  Uiso   1.00
H279   H     0.23969   0.46555   0.15340   0.00000  Uiso   1.00
H280   H     0.26440   0.45147   0.10348   0.00000  Uiso   1.00
C281   C     0.41998   0.50000   0.24991   0.00000  Uiso   1.00
C282   C     0.58002   0.50000   0.25009   0.00000  Uiso   1.00
C283   C     0.42651   0.51710   0.02565   0.00000  Uiso   1.00
C284   C     0.57346   0.48276   0.47435   0.00000  Uiso   1.00
C285   C     0.35459   0.46076   0.23695   0.00000  Uiso   1.00
C286   C     0.64541   0.53924   0.26303   0.00000  Uiso   1.00
C287   C     0.64523   0.46075   0.23701   0.00000  Uiso   1.00
C288   C     0.35477   0.53925   0.26298   0.00000  Uiso   1.00
C289   C     0.62416   0.49999   0.25006   0.00000  Uiso   1.00
C290   C     0.37584   0.50001   0.24993   0.00000  Uiso   1.00
C291   C     0.52736   0.35746   0.27640   0.00000  Uiso   1.00
C292   C     0.47264   0.64254   0.22360   0.00000  Uiso   1.00
C293   C     0.47264   0.35716   0.22360   0.00000  Uiso   1.00
C294   C     0.52735   0.64284   0.27640   0.00000  Uiso   1.00
C295   C     0.50088   0.49984   0.16362   0.00000  Uiso   1.00
C296   C     0.49912   0.50016   0.33638   0.00000  Uiso   1.00
C297   C     0.53450   0.49111   0.40620   0.00000  Uiso   1.00
C298   C     0.46548   0.50883   0.09380   0.00000  Uiso   1.00
C299   C     0.49748   0.50065   0.38395   0.00000  Uiso   1.00
C300   C     0.50252   0.49934   0.11605   0.00000  Uiso   1.00
C301   C     0.46010   0.51041   0.40663   0.00000  Uiso   1.00
C302   C     0.53990   0.48958   0.09337   0.00000  Uiso   1.00
C303   C     0.46086   0.50939   0.45390   0.00000  Uiso   1.00
C304   C     0.53912   0.49054   0.04610   0.00000  Uiso   1.00
C305   C     0.49914   0.50016   0.47653   0.00000  Uiso   1.00
C306   C     0.50085   0.49975   0.02347   0.00000  Uiso   1.00
C307   C     0.53580   0.49127   0.45232   0.00000  Uiso   1.00
C308   C     0.46418   0.50863   0.04768   0.00000  Uiso   1.00
C309   C     0.42472   0.51726   0.47929   0.00000  Uiso   1.00
C310   C     0.57525   0.48260   0.02071   0.00000  Uiso   1.00
H311   H     0.56257   0.48401   0.38724   0.00000  Uiso   1.00
H312   H     0.43741   0.51591   0.11276   0.00000  Uiso   1.00
H313   H     0.39461   0.52338   0.46412   0.00000  Uiso   1.00
H314   H     0.60535   0.47643   0.03588   0.00000  Uiso   1.00
H315   H     0.39824   0.52350   0.04436   0.00000  Uiso   1.00
H316   H     0.60172   0.47632   0.45564   0.00000  Uiso   1.00
H317   H     0.37087   0.43039   0.22644   0.00000  Uiso   1.00
H318   H     0.62913   0.56961   0.27355   0.00000  Uiso   1.00
H319   H     0.62880   0.43040   0.22647   0.00000  Uiso   1.00
H320   H     0.37119   0.56960   0.27351   0.00000  Uiso   1.00
H321   H     0.54923   0.37574   0.29752   0.00000  Uiso   1.00
H322   H     0.45077   0.62426   0.20248   0.00000  Uiso   1.00
H323   H     0.45077   0.37519   0.20248   0.00000  Uiso   1.00
H324   H     0.54923   0.62481   0.29752   0.00000  Uiso   1.00
N325   N     0.50000   0.61907   0.25000   0.00000  Uiso   1.00
N326   N     0.50000   0.38093   0.25000   0.00000  Uiso   1.00
O327   O     0.43892   0.53821   0.24999   0.00000  Uiso   1.00
O328   O     0.56108   0.46179   0.25000   0.00000  Uiso   1.00
O329   O     0.56108   0.53821   0.25000   0.00000  Uiso   1.00
O330   O     0.43892   0.46179   0.24999   0.00000  Uiso   1.00
O331   O     0.49999   0.53823   0.18392   0.00000  Uiso   1.00
O332   O     0.50001   0.46177   0.31607   0.00000  Uiso   1.00
O333   O     0.50001   0.53823   0.31607   0.00000  Uiso   1.00
O334   O     0.49999   0.46177   0.18392   0.00000  Uiso   1.00
Zn335  Zn    0.50000   0.55104   0.25000   0.00000  Uiso   1.00
Zn336  Zn    0.50000   0.44896   0.25000   0.00000  Uiso   1.00
C337   C     0.42024   0.52100   0.38031   0.00000  Uiso   1.00
C338   C     0.39333   0.47877   0.37422   0.00000  Uiso   1.00
H339   H     0.41046   0.45282   0.35452   0.00000  Uiso   1.00
H340   H     0.38478   0.46433   0.40715   0.00000  Uiso   1.00
H341   H     0.36429   0.48764   0.35578   0.00000  Uiso   1.00
H342   H     0.40223   0.54850   0.39661   0.00000  Uiso   1.00
H343   H     0.42702   0.53468   0.34667   0.00000  Uiso   1.00
C344   C     0.57977   0.47906   0.11969   0.00000  Uiso   1.00
C345   C     0.60674   0.52128   0.12557   0.00000  Uiso   1.00
H346   H     0.61536   0.53552   0.09258   0.00000  Uiso   1.00
H347   H     0.58963   0.54738   0.14511   0.00000  Uiso   1.00
H348   H     0.63575   0.51246   0.14411   0.00000  Uiso   1.00
H349   H     0.57302   0.46555   0.15340   0.00000  Uiso   1.00
H350   H     0.59773   0.45147   0.10348   0.00000  Uiso   1.00
C351   C     0.75331   0.50000   0.24991   0.00000  Uiso   1.00
C352   C     0.91335   0.50000   0.25009   0.00000  Uiso   1.00
C353   C     0.75985   0.51710   0.02565   0.00000  Uiso   1.00
C354   C     0.90679   0.48276   0.47435   0.00000  Uiso   1.00
C355   C     0.68793   0.46076   0.23695   0.00000  Uiso   1.00
C356   C     0.97874   0.53924   0.26303   0.00000  Uiso   1.00
C357   C     0.97856   0.46075   0.23701   0.00000  Uiso   1.00
C358   C     0.68810   0.53925   0.26298   0.00000  Uiso   1.00
C359   C     0.95750   0.49999   0.25006   0.00000  Uiso   1.00
C360   C     0.70917   0.50001   0.24993   0.00000  Uiso   1.00
C361   C     0.86069   0.35746   0.27640   0.00000  Uiso   1.00
C362   C     0.80598   0.64254   0.22360   0.00000  Uiso   1.00
C363   C     0.80598   0.35716   0.22360   0.00000  Uiso   1.00
C364   C     0.86069   0.64284   0.27640   0.00000  Uiso   1.00
C365   C     0.83421   0.49984   0.16362   0.00000  Uiso   1.00
C366   C     0.83245   0.50016   0.33638   0.00000  Uiso   1.00
C367   C     0.86783   0.49111   0.40620   0.00000  Uiso   1.00
C368   C     0.79882   0.50883   0.09380   0.00000  Uiso   1.00
C369   C     0.83081   0.50065   0.38395   0.00000  Uiso   1.00
C370   C     0.83585   0.49934   0.11605   0.00000  Uiso   1.00
C371   C     0.79343   0.51041   0.40663   0.00000  Uiso   1.00
C372   C     0.87323   0.48958   0.09337   0.00000  Uiso   1.00
C373   C     0.79420   0.50939   0.45390   0.00000  Uiso   1.00
C374   C     0.87245   0.49054   0.04610   0.00000  Uiso   1.00
C375   C     0.83247   0.50016   0.47653   0.00000  Uiso   1.00
C376   C     0.83418   0.49975   0.02347   0.00000  Uiso   1.00
C377   C     0.86913   0.49127   0.45232   0.00000  Uiso   1.00
C378   C     0.79752   0.50863   0.04768   0.00000  Uiso   1.00
C379   C     0.75806   0.51726   0.47929   0.00000  Uiso   1.00
C380   C     0.90858   0.48260   0.02071   0.00000  Uiso   1.00
H381   H     0.89590   0.48401   0.38724   0.00000  Uiso   1.00
H382   H     0.77074   0.51591   0.11276   0.00000  Uiso   1.00
H383   H     0.72794   0.52338   0.46412   0.00000  Uiso   1.00
H384   H     0.93869   0.47643   0.03588   0.00000  Uiso   1.00
H385   H     0.73158   0.52350   0.04436   0.00000  Uiso   1.00
H386   H     0.93505   0.47632   0.45564   0.00000  Uiso   1.00
H387   H     0.70421   0.43039   0.22644   0.00000  Uiso   1.00
H388   H     0.96246   0.56961   0.27355   0.00000  Uiso   1.00
H389   H     0.96214   0.43040   0.22647   0.00000  Uiso   1.00
H390   H     0.70453   0.56960   0.27351   0.00000  Uiso   1.00
H391   H     0.88256   0.37574   0.29752   0.00000  Uiso   1.00
H392   H     0.78411   0.62426   0.20248   0.00000  Uiso   1.00
H393   H     0.78410   0.37519   0.20248   0.00000  Uiso   1.00
H394   H     0.88256   0.62481   0.29752   0.00000  Uiso   1.00
N395   N     0.83333   0.61907   0.25000   0.00000  Uiso   1.00
N396   N     0.83333   0.38093   0.25000   0.00000  Uiso   1.00
O397   O     0.77226   0.53821   0.24999   0.00000  Uiso   1.00
O398   O     0.89441   0.46179   0.25000   0.00000  Uiso   1.00
O399   O     0.89441   0.53821   0.25000   0.00000  Uiso   1.00
O400   O     0.77226   0.46179   0.24999   0.00000  Uiso   1.00
O401   O     0.83333   0.53823   0.18392   0.00000  Uiso   1.00
O402   O     0.83334   0.46177   0.31607   0.00000  Uiso   1.00
O403   O     0.83334   0.53823   0.31607   0.00000  Uiso   1.00
O404   O     0.83333   0.46177   0.18392   0.00000  Uiso   1.00
Zn405  Zn    0.83333   0.55104   0.25000   0.00000  Uiso   1.00
Zn406  Zn    0.83333   0.44896   0.25000   0.00000  Uiso   1.00
C407   C     0.75358   0.52100   0.38031   0.00000  Uiso   1.00
C408   C     0.72666   0.47877   0.37422   0.00000  Uiso   1.00
H409   H     0.74379   0.45282   0.35452   0.00000  Uiso   1.00
H410   H     0.71811   0.46433   0.40715   0.00000  Uiso   1.00
H411   H     0.69762   0.48764   0.35578   0.00000  Uiso   1.00
H412   H     0.73557   0.54850   0.39661   0.00000  Uiso   1.00
H413   H     0.76035   0.53468   0.34667   0.00000  Uiso   1.00
C414   C     0.91311   0.47906   0.11969   0.00000  Uiso   1.00
C415   C     0.94007   0.52128   0.12557   0.00000  Uiso   1.00
H416   H     0.94869   0.53552   0.09258   0.00000  Uiso   1.00
H417   H     0.92296   0.54738   0.14511   0.00000  Uiso   1.00
H418   H     0.96908   0.51246   0.14411   0.00000  Uiso   1.00
H419   H     0.90636   0.46555   0.15340   0.00000  Uiso   1.00
H420   H     0.93107   0.45147   0.10348   0.00000  Uiso   1.00
C421   C     0.08665   0.83334   0.24991   0.00000  Uiso   1.00
C422   C     0.24669   0.83333   0.25009   0.00000  Uiso   1.00
C423   C     0.09318   0.85043   0.02565   0.00000  Uiso   1.00
C424   C     0.24012   0.81609   0.47435   0.00000  Uiso   1.00
C425   C     0.02126   0.79409   0.23695   0.00000  Uiso   1.00
C426   C     0.31207   0.87258   0.26303   0.00000  Uiso   1.00
C427   C     0.31189   0.79409   0.23701   0.00000  Uiso   1.00
C428   C     0.02144   0.87258   0.26298   0.00000  Uiso   1.00
C429   C     0.29083   0.83332   0.25006   0.00000  Uiso   1.00
C430   C     0.04250   0.83335   0.24993   0.00000  Uiso   1.00
C431   C     0.19402   0.69080   0.27640   0.00000  Uiso   1.00
C432   C     0.13931   0.97587   0.22360   0.00000  Uiso   1.00
C433   C     0.13931   0.69049   0.22360   0.00000  Uiso   1.00
C434   C     0.19402   0.97618   0.27640   0.00000  Uiso   1.00
C435   C     0.16755   0.83318   0.16362   0.00000  Uiso   1.00
C436   C     0.16578   0.83349   0.33638   0.00000  Uiso   1.00
C437   C     0.20117   0.82444   0.40620   0.00000  Uiso   1.00
C438   C     0.13215   0.84216   0.09380   0.00000  Uiso   1.00
C439   C     0.16414   0.83398   0.38395   0.00000  Uiso   1.00
C440   C     0.16919   0.83267   0.11605   0.00000  Uiso   1.00
C441   C     0.12676   0.84374   0.40663   0.00000  Uiso   1.00
C442   C     0.20657   0.82292   0.09337   0.00000  Uiso   1.00
C443   C     0.12753   0.84272   0.45390   0.00000  Uiso   1.00
C444   C     0.20579   0.82388   0.04610   0.00000  Uiso   1.00
C445   C     0.16580   0.83350   0.47653   0.00000  Uiso   1.00
C446   C     0.16751   0.83309   0.02347   0.00000  Uiso   1.00
C447   C     0.20246   0.82461   0.45232   0.00000  Uiso   1.00
C448   C     0.13085   0.84197   0.04768   0.00000  Uiso   1.00
C449   C     0.09139   0.85060   0.47929   0.00000  Uiso   1.00
C450   C     0.24192   0.81594   0.02071   0.00000  Uiso   1.00
H451   H     0.22924   0.81734   0.38724   0.00000  Uiso   1.00
H452   H     0.10408   0.84925   0.11276   0.00000  Uiso   1.00
H453   H     0.06128   0.85672   0.46412   0.00000  Uiso   1.00
H454   H     0.27202   0.80976   0.03588   0.00000  Uiso   1.00
H455   H     0.06491   0.85683   0.04436   0.00000  Uiso   1.00
H456   H     0.26839   0.80966   0.45564   0.00000  Uiso   1.00
H457   H     0.03754   0.76373   0.22644   0.00000  Uiso   1.00
H458   H     0.29579   0.90294   0.27355   0.00000  Uiso   1.00
H459   H     0.29547   0.76374   0.22647   0.00000  Uiso   1.00
H460   H     0.03786   0.90293   0.27351   0.00000  Uiso   1.00
H461   H     0.21589   0.70908   0.29752   0.00000  Uiso   1.00
H462   H     0.11744   0.95759   0.20248   0.00000  Uiso   1.00
H463   H     0.11744   0.70852   0.20248   0.00000  Uiso   1.00
H464   H     0.21590   0.95814   0.29752   0.00000  Uiso   1.00
N465   N     0.16667   0.95240   0.25000   0.00000  Uiso   1.00
N466   N     0.16667   0.71427   0.25000   0.00000  Uiso   1.00
O467   O     0.10559   0.87154   0.24999   0.00000  Uiso   1.00
O468   O     0.22774   0.79513   0.25000   0.00000  Uiso   1.00
O469   O     0.22774   0.87154   0.25000   0.00000  Uiso   1.00
O470   O     0.10559   0.79513   0.24999   0.00000  Uiso   1.00
O471   O     0.16666   0.87156   0.18392   0.00000  Uiso   1.00
O472   O     0.16667   0.79511   0.31607   0.00000  Uiso   1.00
O473   O     0.16667   0.87156   0.31607   0.00000  Uiso   1.00
O474   O     0.16666   0.79511   0.18392   0.00000  Uiso   1.00
Zn475  Zn    0.16667   0.88437   0.25000   0.00000  Uiso   1.00
Zn476  Zn    0.16667   0.78229   0.25000   0.00000  Uiso   1.00
C477   C     0.08691   0.85433   0.38031   0.00000  Uiso   1.00
C478   C     0.06000   0.81210   0.37422   0.00000  Uiso   1.00
H479   H     0.07712   0.78615   0.35452   0.00000  Uiso   1.00
H480   H     0.05144   0.79766   0.40715   0.00000  Uiso   1.00
H481   H     0.03095   0.82098   0.35578   0.00000  Uiso   1.00
H482   H     0.06890   0.88184   0.39661   0.00000  Uiso   1.00
H483   H     0.09369   0.86801   0.34667   0.00000  Uiso   1.00
C484   C     0.24644   0.81240   0.11969   0.00000  Uiso   1.00
C485   C     0.27340   0.85461   0.12557   0.00000  Uiso   1.00
H486   H     0.28202   0.86885   0.09258   0.00000  Uiso   1.00
H487   H     0.25629   0.88071   0.14511   0.00000  Uiso   1.00
H488   H     0.30241   0.84579   0.14411   0.00000  Uiso   1.00
H489   H     0.23969   0.79888   0.15340   0.00000  Uiso   1.00
H490   H     0.26440   0.78480   0.10348   0.00000  Uiso   1.00
C491   C     0.41998   0.83334   0.24991   0.00000  Uiso   1.00
C492   C     0.58002   0.83333   0.25009   0.00000  Uiso   1.00
C493   C     0.42651   0.85043   0.02565   0.00000  Uiso   1.00
C494   C     0.57346   0.81609   0.47435   0.00000  Uiso   1.00
C495   C     0.35459   0.79409   0.23695   0.00000  Uiso   1.00
C496   C     0.64541   0.87258   0.26303   0.00000  Uiso   1.00
C497   C     0.64523   0.79409   0.23701   0.00000  Uiso   1.00
C498   C     0.35477   0.87258   0.26298   0.00000  Uiso   1.00
C499   C     0.62416   0.83332   0.25006   0.00000  Uiso   1.00
C500   C     0.37584   0.83335   0.24993   0.00000  Uiso   1.00
C501   C     0.52736   0.69080   0.27640   0.00000  Uiso   1.00
C502   C     0.47264   0.97587   0.22360   0.00000  Uiso   1.00
C503   C     0.47264   0.69049   0.22360   0.00000  Uiso   1.00
C504   C     0.52735   0.97618   0.27640   0.00000  Uiso   1.00
C505   C     0.50088   0.83318   0.16362   0.00000  Uiso   1.00
C506   C     0.49912   0.83349   0.33638   0.00000  Uiso   1.00
C507   C     0.53450   0.82444   0.40620   0.00000  Uiso   1.00
C508   C     0.46548   0.84216   0.09380   0.00000  Uiso   1.00
C509   C     0.49748   0.83398   0.38395   0.00000  Uiso   1.00
C510   C     0.50252   0.83267   0.11605   0.00000  Uiso   1.00
C511   C     0.46010   0.84374   0.40663   0.00000  Uiso   1.00
C512   C     0.53990   0.82292   0.09337   0.00000  Uiso   1.00
C513   C     0.46086   0.84272   0.45390   0.00000  Uiso   1.00
C514   C     0.53912   0.82388   0.04610   0.00000  Uiso   1.00
C515   C     0.49914   0.83350   0.47653   0.00000  Uiso   1.00
C516   C     0.50085   0.83309   0.02347   0.00000  Uiso   1.00
C517   C     0.53580   0.82461   0.45232   0.00000  Uiso   1.00
C518   C     0.46418   0.84197   0.04768   0.00000  Uiso   1.00
C519   C     0.42472   0.85060   0.47929   0.00000  Uiso   1.00
C520   C     0.57525   0.81594   0.02071   0.00000  Uiso   1.00
H521   H     0.56257   0.81734   0.38724   0.00000  Uiso   1.00
H522   H     0.43741   0.84925   0.11276   0.00000  Uiso   1.00
H523   H     0.39461   0.85672   0.46412   0.00000  Uiso   1.00
H524   H     0.60535   0.80976   0.03588   0.00000  Uiso   1.00
H525   H     0.39824   0.85683   0.04436   0.00000  Uiso   1.00
H526   H     0.60172   0.80966   0.45564   0.00000  Uiso   1.00
H527   H     0.37087   0.76373   0.22644   0.00000  Uiso   1.00
H528   H     0.62913   0.90294   0.27355   0.00000  Uiso   1.00
H529   H     0.62880   0.76374   0.22647   0.00000  Uiso   1.00
H530   H     0.37119   0.90293   0.27351   0.00000  Uiso   1.00
H531   H     0.54923   0.70908   0.29752   0.00000  Uiso   1.00
H532   H     0.45077   0.95759   0.20248   0.00000  Uiso   1.00
H533   H     0.45077   0.70852   0.20248   0.00000  Uiso   1.00
H534   H     0.54923   0.95814   0.29752   0.00000  Uiso   1.00
N535   N     0.50000   0.95240   0.25000   0.00000  Uiso   1.00
N536   N     0.50000   0.71427   0.25000   0.00000  Uiso   1.00
O537   O     0.43892   0.87154   0.24999   0.00000  Uiso   1.00
O538   O     0.56108   0.79513   0.25000   0.00000  Uiso   1.00
O539   O     0.56108   0.87154   0.25000   0.00000  Uiso   1.00
O540   O     0.43892   0.79513   0.24999   0.00000  Uiso   1.00
O541   O     0.49999   0.87156   0.18392   0.00000  Uiso   1.00
O542   O     0.50001   0.79511   0.31607   0.00000  Uiso   1.00
O543   O     0.50001   0.87156   0.31607   0.00000  Uiso   1.00
O544   O     0.49999   0.79511   0.18392   0.00000  Uiso   1.00
Zn545  Zn    0.50000   0.88437   0.25000   0.00000  Uiso   1.00
Zn546  Zn    0.50000   0.78229   0.25000   0.00000  Uiso   1.00
C547   C     0.42024   0.85433   0.38031   0.00000  Uiso   1.00
C548   C     0.39333   0.81210   0.37422   0.00000  Uiso   1.00
H549   H     0.41046   0.78615   0.35452   0.00000  Uiso   1.00
H550   H     0.38478   0.79766   0.40715   0.00000  Uiso   1.00
H551   H     0.36429   0.82098   0.35578   0.00000  Uiso   1.00
H552   H     0.40223   0.88184   0.39661   0.00000  Uiso   1.00
H553   H     0.42702   0.86801   0.34667   0.00000  Uiso   1.00
C554   C     0.57977   0.81240   0.11969   0.00000  Uiso   1.00
C555   C     0.60674   0.85461   0.12557   0.00000  Uiso   1.00
H556   H     0.61536   0.86885   0.09258   0.00000  Uiso   1.00
H557   H     0.58963   0.88071   0.14511   0.00000  Uiso   1.00
H558   H     0.63575   0.84579   0.14411   0.00000  Uiso   1.00
H559   H     0.57302   0.79888   0.15340   0.00000  Uiso   1.00
H560   H     0.59773   0.78480   0.10348   0.00000  Uiso   1.00
C561   C     0.75331   0.83334   0.24991   0.00000  Uiso   1.00
C562   C     0.91335   0.83333   0.25009   0.00000  Uiso   1.00
C563   C     0.75985   0.85043   0.02565   0.00000  Uiso   1.00
C564   C     0.90679   0.81609   0.47435   0.00000  Uiso   1.00
C565   C     0.68793   0.79409   0.23695   0.00000  Uiso   1.00
C566   C     0.97874   0.87258   0.26303   0.00000  Uiso   1.00
C567   C     0.97856   0.79409   0.23701   0.00000  Uiso   1.00
C568   C     0.68810   0.87258   0.26298   0.00000  Uiso   1.00
C569   C     0.95750   0.83332   0.25006   0.00000  Uiso   1.00
C570   C     0.70917   0.83335   0.24993   0.00000  Uiso   1.00
C571   C     0.86069   0.69080   0.27640   0.00000  Uiso   1.00
C572   C     0.80598   0.97587   0.22360   0.00000  Uiso   1.00
C573   C     0.80598   0.69049   0.22360   0.00000  Uiso   1.00
C574   C     0.86069   0.97618   0.27640   0.00000  Uiso   1.00
C575   C     0.83421   0.83318   0.16362   0.00000  Uiso   1.00
C576   C     0.83245   0.83349   0.33638   0.00000  Uiso   1.00
C577   C     0.86783   0.82444   0.40620   0.00000  Uiso   1.00
C578   C     0.79882   0.84216   0.09380   0.00000  Uiso   1.00
C579   C     0.83081   0.83398   0.38395   0.00000  Uiso   1.00
C580   C     0.83585   0.83267   0.11605   0.00000  Uiso   1.00
C581   C     0.79343   0.84374   0.40663   0.00000  Uiso   1.00
C582   C     0.87323   0.82292   0.09337   0.00000  Uiso   1.00
C583   C     0.79420   0.84272   0.45390   0.00000  Uiso   1.00
C584   C     0.87245   0.82388   0.04610   0.00000  Uiso   1.00
C585   C     0.83247   0.83350   0.47653   0.00000  Uiso   1.00
C586   C     0.83418   0.83309   0.02347   0.00000  Uiso   1.00
C587   C     0.86913   0.82461   0.45232   0.00000  Uiso   1.00
C588   C     0.79752   0.84197   0.04768   0.00000  Uiso   1.00
C589   C     0.75806   0.85060   0.47929   0.00000  Uiso   1.00
C590   C     0.90858   0.81594   0.02071   0.00000  Uiso   1.00
H591   H     0.89590   0.81734   0.38724   0.00000  Uiso   1.00
H592   H     0.77074   0.84925   0.11276   0.00000  Uiso   1.00
H593   H     0.72794   0.85672   0.46412   0.00000  Uiso   1.00
H594   H     0.93869   0.80976   0.03588   0.00000  Uiso   1.00
H595   H     0.73158   0.85683   0.04436   0.00000  Uiso   1.00
H596   H     0.93505   0.80966   0.45564   0.00000  Uiso   1.00
H597   H     0.70421   0.76373   0.22644   0.00000  Uiso   1.00
H598   H     0.96246   0.90294   0.27355   0.00000  Uiso   1.00
H599   H     0.96214   0.76374   0.22647   0.00000  Uiso   1.00
H600   H     0.70453   0.90293   0.27351   0.00000  Uiso   1.00
H601   H     0.88256   0.70908   0.29752   0.00000  Uiso   1.00
H602   H     0.78411   0.95759   0.20248   0.00000  Uiso   1.00
H603   H     0.78410   0.70852   0.20248   0.00000  Uiso   1.00
H604   H     0.88256   0.95814   0.29752   0.00000  Uiso   1.00
N605   N     0.83333   0.95240   0.25000   0.00000  Uiso   1.00
N606   N     0.83333   0.71427   0.25000   0.00000  Uiso   1.00
O607   O     0.77226   0.87154   0.24999   0.00000  Uiso   1.00
O608   O     0.89441   0.79513   0.25000   0.00000  Uiso   1.00
O609   O     0.89441   0.87154   0.25000   0.00000  Uiso   1.00
O610   O     0.77226   0.79513   0.24999   0.00000  Uiso   1.00
O611   O     0.83333   0.87156   0.18392   0.00000  Uiso   1.00
O612   O     0.83334   0.79511   0.31607   0.00000  Uiso   1.00
O613   O     0.83334   0.87156   0.31607   0.00000  Uiso   1.00
O614   O     0.83333   0.79511   0.18392   0.00000  Uiso   1.00
Zn615  Zn    0.83333   0.88437   0.25000   0.00000  Uiso   1.00
Zn616  Zn    0.83333   0.78229   0.25000   0.00000  Uiso   1.00
C617   C     0.75358   0.85433   0.38031   0.00000  Uiso   1.00
C618   C     0.72666   0.81210   0.37422   0.00000  Uiso   1.00
H619   H     0.74379   0.78615   0.35452   0.00000  Uiso   1.00
H620   H     0.71811   0.79766   0.40715   0.00000  Uiso   1.00
H621   H     0.69762   0.82098   0.35578   0.00000  Uiso   1.00
H622   H     0.73557   0.88184   0.39661   0.00000  Uiso   1.00
H623   H     0.76035   0.86801   0.34667   0.00000  Uiso   1.00
C624   C     0.91311   0.81240   0.11969   0.00000  Uiso   1.00
C625   C     0.94007   0.85461   0.12557   0.00000  Uiso   1.00
H626   H     0.94869   0.86885   0.09258   0.00000  Uiso   1.00
H627   H     0.92296   0.88071   0.14511   0.00000  Uiso   1.00
H628   H     0.96908   0.84579   0.14411   0.00000  Uiso   1.00
H629   H     0.90636   0.79888   0.15340   0.00000  Uiso   1.00
H630   H     0.93107   0.78480   0.10348   0.00000  Uiso   1.00
C631   C     0.08665   0.16667   0.74991   0.00000  Uiso   1.00
C632   C     0.24669   0.16666   0.75009   0.00000  Uiso   1.00
C633   C     0.09318   0.18377   0.52565   0.00000  Uiso   1.00
C634   C     0.24012   0.14943   0.97435   0.00000  Uiso   1.00
C635   C     0.02126   0.12743   0.73695   0.00000  Uiso   1.00
C636   C     0.31207   0.20591   0.76303   0.00000  Uiso   1.00
C637   C     0.31189   0.12742   0.73701   0.00000  Uiso   1.00
C638   C     0.02144   0.20592   0.76298   0.00000  Uiso   1.00
C639   C     0.29083   0.16666   0.75006   0.00000  Uiso   1.00
C640   C     0.04250   0.16668   0.74993   0.00000  Uiso   1.00
C641   C     0.19402   0.02413   0.77640   0.00000  Uiso   1.00
C642   C     0.13931   0.30920   0.72360   0.00000  Uiso   1.00
C643   C     0.13931   0.02382   0.72360   0.00000  Uiso   1.00
C644   C     0.19402   0.30951   0.77640   0.00000  Uiso   1.00
C645   C     0.16755   0.16651   0.66362   0.00000  Uiso   1.00
C646   C     0.16578   0.16682   0.83638   0.00000  Uiso   1.00
C647   C     0.20117   0.15778   0.90620   0.00000  Uiso   1.00
C648   C     0.13215   0.17549   0.59380   0.00000  Uiso   1.00
C649   C     0.16414   0.16732   0.88395   0.00000  Uiso   1.00
C650   C     0.16919   0.16601   0.61605   0.00000  Uiso   1.00
C651   C     0.12676   0.17708   0.90663   0.00000  Uiso   1.00
C652   C     0.20657   0.15625   0.59337   0.00000  Uiso   1.00
C653   C     0.12753   0.17605   0.95390   0.00000  Uiso   1.00
C654   C     0.20579   0.15721   0.54610   0.00000  Uiso   1.00
C655   C     0.16580   0.16683   0.97653   0.00000  Uiso   1.00
C656   C     0.16751   0.16642   0.52347   0.00000  Uiso   1.00
C657   C     0.20246   0.15794   0.95232   0.00000  Uiso   1.00
C658   C     0.13085   0.17530   0.54768   0.00000  Uiso   1.00
C659   C     0.09139   0.18393   0.97929   0.00000  Uiso   1.00
C660   C     0.24192   0.14927   0.52071   0.00000  Uiso   1.00
H661   H     0.22924   0.15067   0.88724   0.00000  Uiso   1.00
H662   H     0.10408   0.18258   0.61276   0.00000  Uiso   1.00
H663   H     0.06128   0.19005   0.96412   0.00000  Uiso   1.00
H664   H     0.27202   0.14310   0.53588   0.00000  Uiso   1.00
H665   H     0.06491   0.19017   0.54436   0.00000  Uiso   1.00
H666   H     0.26839   0.14299   0.95564   0.00000  Uiso   1.00
H667   H     0.03754   0.09706   0.72644   0.00000  Uiso   1.00
H668   H     0.29579   0.23628   0.77355   0.00000  Uiso   1.00
H669   H     0.29547   0.09707   0.72647   0.00000  Uiso   1.00
H670   H     0.03786   0.23627   0.77351   0.00000  Uiso   1.00
H671   H     0.21589   0.04241   0.79752   0.00000  Uiso   1.00
H672   H     0.11744   0.29092   0.70248   0.00000  Uiso   1.00
H673   H     0.11744   0.04186   0.70248   0.00000  Uiso   1.00
H674   H     0.21590   0.29148   0.79752   0.00000  Uiso   1.00
N675   N     0.16667   0.28573   0.75000   0.00000  Uiso   1.00
N676   N     0.16667   0.04760   0.75000   0.00000  Uiso   1.00
O677   O     0.10559   0.20487   0.74999   0.00000  Uiso   1.00
O678   O     0.22774   0.12846   0.75000   0.00000  Uiso   1.00
O679   O     0.22774   0.20487   0.75000   0.00000  Uiso   1.00
O680   O     0.10559   0.12846   0.74999   0.00000  Uiso   1.00
O681   O     0.16666   0.20489   0.68392   0.00000  Uiso   1.00
O682   O     0.16667   0.12844   0.81607   0.00000  Uiso   1.00
O683   O     0.16667   0.20489   0.81607   0.00000  Uiso   1.00
O684   O     0.16666   0.12844   0.68392   0.00000  Uiso   1.00
Zn685  Zn    0.16667   0.21771   0.75000   0.00000  Uiso   1.00
Zn686  Zn    0.16667   0.11563   0.75000   0.00000  Uiso   1.00
C687   C     0.08691   0.18766   0.88031   0.00000  Uiso   1.00
C688   C     0.06000   0.14544   0.87422   0.00000  Uiso   1.00
H689   H     0.07712   0.11948   0.85452   0.00000  Uiso   1.00
H690   H     0.05144   0.13099   0.90715   0.00000  Uiso   1.00
H691   H     0.03095   0.15431   0.85578   0.00000  Uiso   1.00
H692   H     0.06890   0.21517   0.89661   0.00000  Uiso   1.00
H693   H     0.09369   0.20135   0.84667   0.00000  Uiso   1.00
C694   C     0.24644   0.14573   0.61969   0.00000  Uiso   1.00
C695   C     0.27340   0.18795   0.62557   0.00000  Uiso   1.00
H696   H     0.28202   0.20218   0.59258   0.00000  Uiso   1.00
H697   H     0.25629   0.21405   0.64511   0.00000  Uiso   1.00
H698   H     0.30241   0.17913   0.64411   0.00000  Uiso   1.00
H699   H     0.23969   0.13221   0.65340   0.00000  Uiso   1.00
H700   H     0.26440   0.11813   0.60348   0.00000  Uiso   1.00
C701   C     0.41998   0.16667   0.74991   0.00000  Uiso   1.00
C702   C     0.58002   0.16666   0.75009   0.00000  Uiso   1.00
C703   C     0.42651   0.18377   0.52565   0.00000  Uiso   1.00
C704   C     0.57346   0.14943   0.97435   0.00000  Uiso   1.00
C705   C     0.35459   0.12743   0.73695   0.00000  Uiso   1.00
C706   C     0.64541   0.20591   0.76303   0.00000  Uiso   1.00
C707   C     0.64523   0.12742   0.73701   0.00000  Uiso   1.00
C708   C     0.35477   0.20592   0.76298   0.00000  Uiso   1.00
C709   C     0.62416   0.16666   0.75006   0.00000  Uiso   1.00
C710   C     0.37584   0.16668   0.74993   0.00000  Uiso   1.00
C711   C     0.52736   0.02413   0.77640   0.00000  Uiso   1.00
C712   C     0.47264   0.30920   0.72360   0.00000  Uiso   1.00
C713   C     0.47264   0.02382   0.72360   0.00000  Uiso   1.00
C714   C     0.52735   0.30951   0.77640   0.00000  Uiso   1.00
C715   C     0.50088   0.16651   0.66362   0.00000  Uiso   1.00
C716   C     0.49912   0.16682   0.83638   0.00000  Uiso   1.00
C717   C     0.53450   0.15778   0.90620   0.00000  Uiso   1.00
C718   C     0.46548   0.17549   0.59380   0.00000  Uiso   1.00
C719   C     0.49748   0.16732   0.88395   0.00000  Uiso   1.00
C720   C     0.50252   0.16601   0.61605   0.00000  Uiso   1.00
C721   C     0.46010   0.17708   0.90663   0.00000  Uiso   1.00
C722   C     0.53990   0.15625   0.59337   0.00000  Uiso   1.00
C723   C     0.46086   0.17605   0.95390   0.00000  Uiso   1.00
C724   C     0.53912   0.15721   0.54610   0.00000  Uiso   1.00
C725   C     0.49914   0.16683   0.97653   0.00000  Uiso   1.00
C726   C     0.50085   0.16642   0.52347   0.00000  Uiso   1.00
C727   C     0.53580   0.15794   0.95232   0.00000  Uiso   1.00
C728   C     0.46418   0.17530   0.54768   0.00000  Uiso   1.00
C729   C     0.42472   0.18393   0.97929   0.00000  Uiso   1.00
C730   C     0.57525   0.14927   0.52071   0.00000  Uiso   1.00
H731   H     0.56257   0.15067   0.88724   0.00000  Uiso   1.00
H732   H     0.43741   0.18258   0.61276   0.00000  Uiso   1.00
H733   H     0.39461   0.19005   0.96412   0.00000  Uiso   1.00
H734   H     0.60535   0.14310   0.53588   0.00000  Uiso   1.00
H735   H     0.39824   0.19017   0.54436   0.00000  Uiso   1.00
H736   H     0.60172   0.14299   0.95564   0.00000  Uiso   1.00
H737   H     0.37087   0.09706   0.72644   0.00000  Uiso   1.00
H738   H     0.62913   0.23628   0.77355   0.00000  Uiso   1.00
H739   H     0.62880   0.09707   0.72647   0.00000  Uiso   1.00
H740   H     0.37119   0.23627   0.77351   0.00000  Uiso   1.00
H741   H     0.54923   0.04241   0.79752   0.00000  Uiso   1.00
H742   H     0.45077   0.29092   0.70248   0.00000  Uiso   1.00
H743   H     0.45077   0.04186   0.70248   0.00000  Uiso   1.00
H744   H     0.54923   0.29148   0.79752   0.00000  Uiso   1.00
N745   N     0.50000   0.28573   0.75000   0.00000  Uiso   1.00
N746   N     0.50000   0.04760   0.75000   0.00000  Uiso   1.00
O747   O     0.43892   0.20487   0.74999   0.00000  Uiso   1.00
O748   O     0.56108   0.12846   0.75000   0.00000  Uiso   1.00
O749   O     0.56108   0.20487   0.75000   0.00000  Uiso   1.00
O750   O     0.43892   0.12846   0.74999   0.00000  Uiso   1.00
O751   O     0.49999   0.20489   0.68392   0.00000  Uiso   1.00
O752   O     0.50001   0.12844   0.81607   0.00000  Uiso   1.00
O753   O     0.50001   0.20489   0.81607   0.00000  Uiso   1.00
O754   O     0.49999   0.12844   0.68392   0.00000  Uiso   1.00
Zn755  Zn    0.50000   0.21771   0.75000   0.00000  Uiso   1.00
Zn756  Zn    0.50000   0.11563   0.75000   0.00000  Uiso   1.00
C757   C     0.42024   0.18766   0.88031   0.00000  Uiso   1.00
C758   C     0.39333   0.14544   0.87422   0.00000  Uiso   1.00
H759   H     0.41046   0.11948   0.85452   0.00000  Uiso   1.00
H760   H     0.38478   0.13099   0.90715   0.00000  Uiso   1.00
H761   H     0.36429   0.15431   0.85578   0.00000  Uiso   1.00
H762   H     0.40223   0.21517   0.89661   0.00000  Uiso   1.00
H763   H     0.42702   0.20135   0.84667   0.00000  Uiso   1.00
C764   C     0.57977   0.14573   0.61969   0.00000  Uiso   1.00
C765   C     0.60674   0.18795   0.62557   0.00000  Uiso   1.00
H766   H     0.61536   0.20218   0.59258   0.00000  Uiso   1.00
H767   H     0.58963   0.21405   0.64511   0.00000  Uiso   1.00
H768   H     0.63575   0.17913   0.64411   0.00000  Uiso   1.00
H769   H     0.57302   0.13221   0.65340   0.00000  Uiso   1.00
H770   H     0.59773   0.11813   0.60348   0.00000  Uiso   1.00
C771   C     0.75331   0.16667   0.74991   0.00000  Uiso   1.00
C772   C     0.91335   0.16666   0.75009   0.00000  Uiso   1.00
C773   C     0.75985   0.18377   0.52565   0.00000  Uiso   1.00
C774   C     0.90679   0.14943   0.97435   0.00000  Uiso   1.00
C775   C     0.68793   0.12743   0.73695   0.00000  Uiso   1.00
C776   C     0.97874   0.20591   0.76303   0.00000  Uiso   1.00
C777   C     0.97856   0.12742   0.73701   0.00000  Uiso   1.00
C778   C     0.68810   0.20592   0.76298   0.00000  Uiso   1.00
C779   C     0.95750   0.16666   0.75006   0.00000  Uiso   1.00
C780   C     0.70917   0.16668   0.74993   0.00000  Uiso   1.00
C781   C     0.86069   0.02413   0.77640   0.00000  Uiso   1.00
C782   C     0.80598   0.30920   0.72360   0.00000  Uiso   1.00
C783   C     0.80598   0.02382   0.72360   0.00000  Uiso   1.00
C784   C     0.86069   0.30951   0.77640   0.00000  Uiso   1.00
C785   C     0.83421   0.16651   0.66362   0.00000  Uiso   1.00
C786   C     0.83245   0.16682   0.83638   0.00000  Uiso   1.00
C787   C     0.86783   0.15778   0.90620   0.00000  Uiso   1.00
C788   C     0.79882   0.17549   0.59380   0.00000  Uiso   1.00
C789   C     0.83081   0.16732   0.88395   0.00000  Uiso   1.00
C790   C     0.83585   0.16601   0.61605   0.00000  Uiso   1.00
C791   C     0.79343   0.17708   0.90663   0.00000  Uiso   1.00
C792   C     0.87323   0.15625   0.59337   0.00000  Uiso   1.00
C793   C     0.79420   0.17605   0.95390   0.00000  Uiso   1.00
C794   C     0.87245   0.15721   0.54610   0.00000  Uiso   1.00
C795   C     0.83247   0.16683   0.97653   0.00000  Uiso   1.00
C796   C     0.83418   0.16642   0.52347   0.00000  Uiso   1.00
C797   C     0.86913   0.15794   0.95232   0.00000  Uiso   1.00
C798   C     0.79752   0.17530   0.54768   0.00000  Uiso   1.00
C799   C     0.75806   0.18393   0.97929   0.00000  Uiso   1.00
C800   C     0.90858   0.14927   0.52071   0.00000  Uiso   1.00
H801   H     0.89590   0.15067   0.88724   0.00000  Uiso   1.00
H802   H     0.77074   0.18258   0.61276   0.00000  Uiso   1.00
H803   H     0.72794   0.19005   0.96412   0.00000  Uiso   1.00
H804   H     0.93869   0.14310   0.53588   0.00000  Uiso   1.00
H805   H     0.73158   0.19017   0.54436   0.00000  Uiso   1.00
H806   H     0.93505   0.14299   0.95564   0.00000  Uiso   1.00
H807   H     0.70421   0.09706   0.72644   0.00000  Uiso   1.00
H808   H     0.96246   0.23628   0.77355   0.00000  Uiso   1.00
H809   H     0.96214   0.09707   0.72647   0.00000  Uiso   1.00
H810   H     0.70453   0.23627   0.77351   0.00000  Uiso   1.00
H811   H     0.88256   0.04241   0.79752   0.00000  Uiso   1.00
H812   H     0.78411   0.29092   0.70248   0.00000  Uiso   1.00
H813   H     0.78410   0.04186   0.70248   0.00000  Uiso   1.00
H814   H     0.88256   0.29148   0.79752   0.00000  Uiso   1.00
N815   N     0.83333   0.28573   0.75000   0.00000  Uiso   1.00
N816   N     0.83333   0.04760   0.75000   0.00000  Uiso   1.00
O817   O     0.77226   0.20487   0.74999   0.00000  Uiso   1.00
O818   O     0.89441   0.12846   0.75000   0.00000  Uiso   1.00
O819   O     0.89441   0.20487   0.75000   0.00000  Uiso   1.00
O820   O     0.77226   0.12846   0.74999   0.00000  Uiso   1.00
O821   O     0.83333   0.20489   0.68392   0.00000  Uiso   1.00
O822   O     0.83334   0.12844   0.81607   0.00000  Uiso   1.00
O823   O     0.83334   0.20489   0.81607   0.00000  Uiso   1.00
O824   O     0.83333   0.12844   0.68392   0.00000  Uiso   1.00
Zn825  Zn    0.83333   0.21771   0.75000   0.00000  Uiso   1.00
Zn826  Zn    0.83333   0.11563   0.75000   0.00000  Uiso   1.00
C827   C     0.75358   0.18766   0.88031   0.00000  Uiso   1.00
C828   C     0.72666   0.14544   0.87422   0.00000  Uiso   1.00
H829   H     0.74379   0.11948   0.85452   0.00000  Uiso   1.00
H830   H     0.71811   0.13099   0.90715   0.00000  Uiso   1.00
H831   H     0.69762   0.15431   0.85578   0.00000  Uiso   1.00
H832   H     0.73557   0.21517   0.89661   0.00000  Uiso   1.00
H833   H     0.76035   0.20135   0.84667   0.00000  Uiso   1.00
C834   C     0.91311   0.14573   0.61969   0.00000  Uiso   1.00
C835   C     0.94007   0.18795   0.62557   0.00000  Uiso   1.00
H836   H     0.94869   0.20218   0.59258   0.00000  Uiso   1.00
H837   H     0.92296   0.21405   0.64511   0.00000  Uiso   1.00
H838   H     0.96908   0.17913   0.64411   0.00000  Uiso   1.00
H839   H     0.90636   0.13221   0.65340   0.00000  Uiso   1.00
H840   H     0.93107   0.11813   0.60348   0.00000  Uiso   1.00
C841   C     0.08665   0.50000   0.74991   0.00000  Uiso   1.00
C842   C     0.24669   0.50000   0.75009   0.00000  Uiso   1.00
C843   C     0.09318   0.51710   0.52565   0.00000  Uiso   1.00
C844   C     0.24012   0.48276   0.97435   0.00000  Uiso   1.00
C845   C     0.02126   0.46076   0.73695   0.00000  Uiso   1.00
C846   C     0.31207   0.53924   0.76303   0.00000  Uiso   1.00
C847   C     0.31189   0.46075   0.73701   0.00000  Uiso   1.00
C848   C     0.02144   0.53925   0.76298   0.00000  Uiso   1.00
C849   C     0.29083   0.49999   0.75006   0.00000  Uiso   1.00
C850   C     0.04250   0.50001   0.74993   0.00000  Uiso   1.00
C851   C     0.19402   0.35746   0.77640   0.00000  Uiso   1.00
C852   C     0.13931   0.64254   0.72360   0.00000  Uiso   1.00
C853   C     0.13931   0.35716   0.72360   0.00000  Uiso   1.00
C854   C     0.19402   0.64284   0.77640   0.00000  Uiso   1.00
C855   C     0.16755   0.49984   0.66362   0.00000  Uiso   1.00
C856   C     0.16578   0.50016   0.83638   0.00000  Uiso   1.00
C857   C     0.20117   0.49111   0.90620   0.00000  Uiso   1.00
C858   C     0.13215   0.50883   0.59380   0.00000  Uiso   1.00
C859   C     0.16414   0.50065   0.88395   0.00000  Uiso   1.00
C860   C     0.16919   0.49934   0.61605   0.00000  Uiso   1.00
C861   C     0.12676   0.51041   0.90663   0.00000  Uiso   1.00
C862   C     0.20657   0.48958   0.59337   0.00000  Uiso   1.00
C863   C     0.12753   0.50939   0.95390   0.00000  Uiso   1.00
C864   C     0.20579   0.49054   0.54610   0.00000  Uiso   1.00
C865   C     0.16580   0.50016   0.97653   0.00000  Uiso   1.00
C866   C     0.16751   0.49975   0.52347   0.00000  Uiso   1.00
C867   C     0.20246   0.49127   0.95232   0.00000  Uiso   1.00
C868   C     0.13085   0.50863   0.54768   0.00000  Uiso   1.00
C869   C     0.09139   0.51726   0.97929   0.00000  Uiso   1.00
C870   C     0.24192   0.48260   0.52071   0.00000  Uiso   1.00
H871   H     0.22924   0.48401   0.88724   0.00000  Uiso   1.00
H872   H     0.10408   0.51591   0.61276   0.00000  Uiso   1.00
H873   H     0.06128   0.52338   0.96412   0.00000  Uiso   1.00
H874   H     0.27202   0.47643   0.53588   0.00000  Uiso   1.00
H875   H     0.06491   0.52350   0.54436   0.00000  Uiso   1.00
H876   H     0.26839   0.47632   0.95564   0.00000  Uiso   1.00
H877   H     0.03754   0.43039   0.72644   0.00000  Uiso   1.00
H878   H     0.29579   0.56961   0.77355   0.00000  Uiso   1.00
H879   H     0.29547   0.43040   0.72647   0.00000  Uiso   1.00
H880   H     0.03786   0.56960   0.77351   0.00000  Uiso   1.00
H881   H     0.21589   0.37574   0.79752   0.00000  Uiso   1.00
H882   H     0.11744   0.62426   0.70248   0.00000  Uiso   1.00
H883   H     0.11744   0.37519   0.70248   0.00000  Uiso   1.00
H884   H     0.21590   0.62481   0.79752   0.00000  Uiso   1.00
N885   N     0.16667   0.61907   0.75000   0.00000  Uiso   1.00
N886   N     0.16667   0.38093   0.75000   0.00000  Uiso   1.00
O887   O     0.10559   0.53821   0.74999   0.00000  Uiso   1.00
O888   O     0.22774   0.46179   0.75000   0.00000  Uiso   1.00
O889   O     0.22774   0.53821   0.75000   0.00000  Uiso   1.00
O890   O     0.10559   0.46179   0.74999   0.00000  Uiso   1.00
O891   O     0.16666   0.53823   0.68392   0.00000  Uiso   1.00
O892   O     0.16667   0.46177   0.81607   0.00000  Uiso   1.00
O893   O     0.16667   0.53823   0.81607   0.00000  Uiso   1.00
O894   O     0.16666   0.46177   0.68392   0.00000  Uiso   1.00
Zn895  Zn    0.16667   0.55104   0.75000   0.00000  Uiso   1.00
Zn896  Zn    0.16667   0.44896   0.75000   0.00000  Uiso   1.00
C897   C     0.08691   0.52100   0.88031   0.00000  Uiso   1.00
C898   C     0.06000   0.47877   0.87422   0.00000  Uiso   1.00
H899   H     0.07712   0.45282   0.85452   0.00000  Uiso   1.00
H900   H     0.05144   0.46433   0.90715   0.00000  Uiso   1.00
H901   H     0.03095   0.48764   0.85578   0.00000  Uiso   1.00
H902   H     0.06890   0.54850   0.89661   0.00000  Uiso   1.00
H903   H     0.09369   0.53468   0.84667   0.00000  Uiso   1.00
C904   C     0.24644   0.47906   0.61969   0.00000  Uiso   1.00
C905   C     0.27340   0.52128   0.62557   0.00000  Uiso   1.00
H906   H     0.28202   0.53552   0.59258   0.00000  Uiso   1.00
H907   H     0.25629   0.54738   0.64511   0.00000  Uiso   1.00
H908   H     0.30241   0.51246   0.64411   0.00000  Uiso   1.00
H909   H     0.23969   0.46555   0.65340   0.00000  Uiso   1.00
H910   H     0.26440   0.45147   0.60348   0.00000  Uiso   1.00
C911   C     0.41998   0.50000   0.74991   0.00000  Uiso   1.00
C912   C     0.58002   0.50000   0.75009   0.00000  Uiso   1.00
C913   C     0.42651   0.51710   0.52565   0.00000  Uiso   1.00
C914   C     0.57346   0.48276   0.97435   0.00000  Uiso   1.00
C915   C     0.35459   0.46076   0.73695   0.00000  Uiso   1.00
C916   C     0.64541   0.53924   0.76303   0.00000  Uiso   1.00
C917   C     0.64523   0.46075   0.73701   0.00000  Uiso   1.00
C918   C     0.35477   0.53925   0.76298   0.00000  Uiso   1.00
C919   C     0.62416   0.49999   0.75006   0.00000  Uiso   1.00
C920   C     0.37584   0.50001   0.74993   0.00000  Uiso   1.00
C921   C     0.52736   0.35746   0.77640   0.00000  Uiso   1.00
C922   C     0.47264   0.64254   0.72360   0.00000  Uiso   1.00
C923   C     0.47264   0.35716   0.72360   0.00000  Uiso   1.00
C924   C     0.52735   0.64284   0.77640   0.00000  Uiso   1.00
C925   C     0.50088   0.49984   0.66362   0.00000  Uiso   1.00
C926   C     0.49912   0.50016   0.83638   0.00000  Uiso   1.00
C927   C     0.53450   0.49111   0.90620   0.00000  Uiso   1.00
C928   C     0.46548   0.50883   0.59380   0.00000  Uiso   1.00
C929   C     0.49748   0.50065   0.88395   0.00000  Uiso   1.00
C930   C     0.50252   0.49934   0.61605   0.00000  Uiso   1.00
C931   C     0.46010   0.51041   0.90663   0.00000  Uiso   1.00
C932   C     0.53990   0.48958   0.59337   0.00000  Uiso   1.00
C933   C     0.46086   0.50939   0.95390   0.00000  Uiso   1.00
C934   C     0.53912   0.49054   0.54610   0.00000  Uiso   1.00
C935   C     0.49914   0.50016   0.97653   0.00000  Uiso   1.00
C936   C     0.50085   0.49975   0.52347   0.00000  Uiso   1.00
C937   C     0.53580   0.49127   0.95232   0.00000  Uiso   1.00
C938   C     0.46418   0.50863   0.54768   0.00000  Uiso   1.00
C939   C     0.42472   0.51726   0.97929   0.00000  Uiso   1.00
C940   C     0.57525   0.48260   0.52071   0.00000  Uiso   1.00
H941   H     0.56257   0.48401   0.88724   0.00000  Uiso   1.00
H942   H     0.43741   0.51591   0.61276   0.00000  Uiso   1.00
H943   H     0.39461   0.52338   0.96412   0.00000  Uiso   1.00
H944   H     0.60535   0.47643   0.53588   0.00000  Uiso   1.00
H945   H     0.39824   0.52350   0.54436   0.00000  Uiso   1.00
H946   H     0.60172   0.47632   0.95564   0.00000  Uiso   1.00
H947   H     0.37087   0.43039   0.72644   0.00000  Uiso   1.00
H948   H     0.62913   0.56961   0.77355   0.00000  Uiso   1.00
H949   H     0.62880   0.43040   0.72647   0.00000  Uiso   1.00
H950   H     0.37119   0.56960   0.77351   0.00000  Uiso   1.00
H951   H     0.54923   0.37574   0.79752   0.00000  Uiso   1.00
H952   H     0.45077   0.62426   0.70248   0.00000  Uiso   1.00
H953   H     0.45077   0.37519   0.70248   0.00000  Uiso   1.00
H954   H     0.54923   0.62481   0.79752   0.00000  Uiso   1.00
N955   N     0.50000   0.61907   0.75000   0.00000  Uiso   1.00
N956   N     0.50000   0.38093   0.75000   0.00000  Uiso   1.00
O957   O     0.43892   0.53821   0.74999   0.00000  Uiso   1.00
O958   O     0.56108   0.46179   0.75000   0.00000  Uiso   1.00
O959   O     0.56108   0.53821   0.75000   0.00000  Uiso   1.00
O960   O     0.43892   0.46179   0.74999   0.00000  Uiso   1.00
O961   O     0.49999   0.53823   0.68392   0.00000  Uiso   1.00
O962   O     0.50001   0.46177   0.81607   0.00000  Uiso   1.00
O963   O     0.50001   0.53823   0.81607   0.00000  Uiso   1.00
O964   O     0.49999   0.46177   0.68392   0.00000  Uiso   1.00
Zn965  Zn    0.50000   0.55104   0.75000   0.00000  Uiso   1.00
Zn966  Zn    0.50000   0.44896   0.75000   0.00000  Uiso   1.00
C967   C     0.42024   0.52100   0.88031   0.00000  Uiso   1.00
C968   C     0.39333   0.47877   0.87422   0.00000  Uiso   1.00
H969   H     0.41046   0.45282   0.85452   0.00000  Uiso   1.00
H970   H     0.38478   0.46433   0.90715   0.00000  Uiso   1.00
H971   H     0.36429   0.48764   0.85578   0.00000  Uiso   1.00
H972   H     0.40223   0.54850   0.89661   0.00000  Uiso   1.00
H973   H     0.42702   0.53468   0.84667   0.00000  Uiso   1.00
C974   C     0.57977   0.47906   0.61969   0.00000  Uiso   1.00
C975   C     0.60674   0.52128   0.62557   0.00000  Uiso   1.00
H976   H     0.61536   0.53552   0.59258   0.00000  Uiso   1.00
H977   H     0.58963   0.54738   0.64511   0.00000  Uiso   1.00
H978   H     0.63575   0.51246   0.64411   0.00000  Uiso   1.00
H979   H     0.57302   0.46555   0.65340   0.00000  Uiso   1.00
H980   H     0.59773   0.45147   0.60348   0.00000  Uiso   1.00
C981   C     0.75331   0.50000   0.74991   0.00000  Uiso   1.00
C982   C     0.91335   0.50000   0.75009   0.00000  Uiso   1.00
C983   C     0.75985   0.51710   0.52565   0.00000  Uiso   1.00
C984   C     0.90679   0.48276   0.97435   0.00000  Uiso   1.00
C985   C     0.68793   0.46076   0.73695   0.00000  Uiso   1.00
C986   C     0.97874   0.53924   0.76303   0.00000  Uiso   1.00
C987   C     0.97856   0.46075   0.73701   0.00000  Uiso   1.00
C988   C     0.68810   0.53925   0.76298   0.00000  Uiso   1.00
C989   C     0.95750   0.49999   0.75006   0.00000  Uiso   1.00
C990   C     0.70917   0.50001   0.74993   0.00000  Uiso   1.00
C991   C     0.86069   0.35746   0.77640   0.00000  Uiso   1.00
C992   C     0.80598   0.64254   0.72360   0.00000  Uiso   1.00
C993   C     0.80598   0.35716   0.72360   0.00000  Uiso   1.00
C994   C     0.86069   0.64284   0.77640   0.00000  Uiso   1.00
C995   C     0.83421   0.49984   0.66362   0.00000  Uiso   1.00
C996   C     0.83245   0.50016   0.83638   0.00000  Uiso   1.00
C997   C     0.86783   0.49111   0.90620   0.00000  Uiso   1.00
C998   C     0.79882   0.50883   0.59380   0.00000  Uiso   1.00
C999   C     0.83081   0.50065   0.88395   0.00000  Uiso   1.00
C1000  C     0.83585   0.49934   0.61605   0.00000  Uiso   1.00
C1001  C     0.79343   0.51041   0.90663   0.00000  Uiso   1.00
C1002  C     0.87323   0.48958   0.59337   0.00000  Uiso   1.00
C1003  C     0.79420   0.50939   0.95390   0.00000  Uiso   1.00
C1004  C     0.87245   0.49054   0.54610   0.00000  Uiso   1.00
C1005  C     0.83247   0.50016   0.97653   0.00000  Uiso   1.00
C1006  C     0.83418   0.49975   0.52347   0.00000  Uiso   1.00
C1007  C     0.86913   0.49127   0.95232   0.00000  Uiso   1.00
C1008  C     0.79752   0.50863   0.54768   0.00000  Uiso   1.00
C1009  C     0.75806   0.51726   0.97929   0.00000  Uiso   1.00
C1010  C     0.90858   0.48260   0.52071   0.00000  Uiso   1.00
H1011  H     0.89590   0.48401   0.88724   0.00000  Uiso   1.00
H1012  H     0.77074   0.51591   0.61276   0.00000  Uiso   1.00
H1013  H     0.72794   0.52338   0.96412   0.00000  Uiso   1.00
H1014  H     0.93869   0.47643   0.53588   0.00000  Uiso   1.00
H1015  H     0.73158   0.52350   0.54436   0.00000  Uiso   1.00
H1016  H     0.93505   0.47632   0.95564   0.00000  Uiso   1.00
H1017  H     0.70421   0.43039   0.72644   0.00000  Uiso   1.00
H1018  H     0.96246   0.56961   0.77355   0.00000  Uiso   1.00
H1019  H     0.96214   0.43040   0.72647   0.00000  Uiso   1.00
H1020  H     0.70453   0.56960   0.77351   0.00000  Uiso   1.00
H1021  H     0.88256   0.37574   0.79752   0.00000  Uiso   1.00
H1022  H     0.78411   0.62426   0.70248   0.00000  Uiso   1.00
H1023  H     0.78410   0.37519   0.70248   0.00000  Uiso   1.00
H1024  H     0.88256   0.62481   0.79752   0.00000  Uiso   1.00
N1025  N     0.83333   0.61907   0.75000   0.00000  Uiso   1.00
N1026  N     0.83333   0.38093   0.75000   0.00000  Uiso   1.00
O1027  O     0.77226   0.53821   0.74999   0.00000  Uiso   1.00
O1028  O     0.89441   0.46179   0.75000   0.00000  Uiso   1.00
O1029  O     0.89441   0.53821   0.75000   0.00000  Uiso   1.00
O1030  O     0.77226   0.46179   0.74999   0.00000  Uiso   1.00
O1031  O     0.83333   0.53823   0.68392   0.00000  Uiso   1.00
O1032  O     0.83334   0.46177   0.81607   0.00000  Uiso   1.00
O1033  O     0.83334   0.53823   0.81607   0.00000  Uiso   1.00
O1034  O     0.83333   0.46177   0.68392   0.00000  Uiso   1.00
Zn1035 Zn    0.83333   0.55104   0.75000   0.00000  Uiso   1.00
Zn1036 Zn    0.83333   0.44896   0.75000   0.00000  Uiso   1.00
C1037  C     0.75358   0.52100   0.88031   0.00000  Uiso   1.00
C1038  C     0.72666   0.47877   0.87422   0.00000  Uiso   1.00
H1039  H     0.74379   0.45282   0.85452   0.00000  Uiso   1.00
H1040  H     0.71811   0.46433   0.90715   0.00000  Uiso   1.00
H1041  H     0.69762   0.48764   0.85578   0.00000  Uiso   1.00
H1042  H     0.73557   0.54850   0.89661   0.00000  Uiso   1.00
H1043  H     0.76035   0.53468   0.84667   0.00000  Uiso   1.00
C1044  C     0.91311   0.47906   0.61969   0.00000  Uiso   1.00
C1045  C     0.94007   0.52128   0.62557   0.00000  Uiso   1.00
H1046  H     0.94869   0.53552   0.59258   0.00000  Uiso   1.00
H1047  H     0.92296   0.54738   0.64511   0.00000  Uiso   1.00
H1048  H     0.96908   0.51246   0.64411   0.00000  Uiso   1.00
H1049  H     0.90636   0.46555   0.65340   0.00000  Uiso   1.00
H1050  H     0.93107   0.45147   0.60348   0.00000  Uiso   1.00
C1051  C     0.08665   0.83334   0.74991   0.00000  Uiso   1.00
C1052  C     0.24669   0.83333   0.75009   0.00000  Uiso   1.00
C1053  C     0.09318   0.85043   0.52565   0.00000  Uiso   1.00
C1054  C     0.24012   0.81609   0.97435   0.00000  Uiso   1.00
C1055  C     0.02126   0.79409   0.73695   0.00000  Uiso   1.00
C1056  C     0.31207   0.87258   0.76303   0.00000  Uiso   1.00
C1057  C     0.31189   0.79409   0.73701   0.00000  Uiso   1.00
C1058  C     0.02144   0.87258   0.76298   0.00000  Uiso   1.00
C1059  C     0.29083   0.83332   0.75006   0.00000  Uiso   1.00
C1060  C     0.04250   0.83335   0.74993   0.00000  Uiso   1.00
C1061  C     0.19402   0.69080   0.77640   0.00000  Uiso   1.00
C1062  C     0.13931   0.97587   0.72360   0.00000  Uiso   1.00
C1063  C     0.13931   0.69049   0.72360   0.00000  Uiso   1.00
C1064  C     0.19402   0.97618   0.77640   0.00000  Uiso   1.00
C1065  C     0.16755   0.83318   0.66362   0.00000  Uiso   1.00
C1066  C     0.16578   0.83349   0.83638   0.00000  Uiso   1.00
C1067  C     0.20117   0.82444   0.90620   0.00000  Uiso   1.00
C1068  C     0.13215   0.84216   0.59380   0.00000  Uiso   1.00
C1069  C     0.16414   0.83398   0.88395   0.00000  Uiso   1.00
C1070  C     0.16919   0.83267   0.61605   0.00000  Uiso   1.00
C1071  C     0.12676   0.84374   0.90663   0.00000  Uiso   1.00
C1072  C     0.20657   0.82292   0.59337   0.00000  Uiso   1.00
C1073  C     0.12753   0.84272   0.95390   0.00000  Uiso   1.00
C1074  C     0.20579   0.82388   0.54610   0.00000  Uiso   1.00
C1075  C     0.16580   0.83350   0.97653   0.00000  Uiso   1.00
C1076  C     0.16751   0.83309   0.52347   0.00000  Uiso   1.00
C1077  C     0.20246   0.82461   0.95232   0.00000  Uiso   1.00
C1078  C     0.13085   0.84197   0.54768   0.00000  Uiso   1.00
C1079  C     0.09139   0.85060   0.97929   0.00000  Uiso   1.00
C1080  C     0.24192   0.81594   0.52071   0.00000  Uiso   1.00
H1081  H     0.22924   0.81734   0.88724   0.00000  Uiso   1.00
H1082  H     0.10408   0.84925   0.61276   0.00000  Uiso   1.00
H1083  H     0.06128   0.85672   0.96412   0.00000  Uiso   1.00
H1084  H     0.27202   0.80976   0.53588   0.00000  Uiso   1.00
H1085  H     0.06491   0.85683   0.54436   0.00000  Uiso   1.00
H1086  H     0.26839   0.80966   0.95564   0.00000  Uiso   1.00
H1087  H     0.03754   0.76373   0.72644   0.00000  Uiso   1.00
H1088  H     0.29579   0.90294   0.77355   0.00000  Uiso   1.00
H1089  H     0.29547   0.76374   0.72647   0.00000  Uiso   1.00
H1090  H     0.03786   0.90293   0.77351   0.00000  Uiso   1.00
H1091  H     0.21589   0.70908   0.79752   0.00000  Uiso   1.00
H1092  H     0.11744   0.95759   0.70248   0.00000  Uiso   1.00
H1093  H     0.11744   0.70852   0.70248   0.00000  Uiso   1.00
H1094  H     0.21590   0.95814   0.79752   0.00000  Uiso   1.00
N1095  N     0.16667   0.95240   0.75000   0.00000  Uiso   1.00
N1096  N     0.16667   0.71427   0.75000   0.00000  Uiso   1.00
O1097  O     0.10559   0.87154   0.74999   0.00000  Uiso   1.00
O1098  O     0.22774   0.79513   0.75000   0.00000  Uiso   1.00
O1099  O     0.22774   0.87154   0.75000   0.00000  Uiso   1.00
O1100  O     0.10559   0.79513   0.74999   0.00000  Uiso   1.00
O1101  O     0.16666   0.87156   0.68392   0.00000  Uiso   1.00
O1102  O     0.16667   0.79511   0.81607   0.00000  Uiso   1.00
O1103  O     0.16667   0.87156   0.81607   0.00000  Uiso   1.00
O1104  O     0.16666   0.79511   0.68392   0.00000  Uiso   1.00
Zn1105 Zn    0.16667   0.88437   0.75000   0.00000  Uiso   1.00
Zn1106 Zn    0.16667   0.78229   0.75000   0.00000  Uiso   1.00
C1107  C     0.08691   0.85433   0.88031   0.00000  Uiso   1.00
C1108  C     0.06000   0.81210   0.87422   0.00000  Uiso   1.00
H1109  H     0.07712   0.78615   0.85452   0.00000  Uiso   1.00
H1110  H     0.05144   0.79766   0.90715   0.00000  Uiso   1.00
H1111  H     0.03095   0.82098   0.85578   0.00000  Uiso   1.00
H1112  H     0.06890   0.88184   0.89661   0.00000  Uiso   1.00
H1113  H     0.09369   0.86801   0.84667   0.00000  Uiso   1.00
C1114  C     0.24644   0.81240   0.61969   0.00000  Uiso   1.00
C1115  C     0.27340   0.85461   0.62557   0.00000  Uiso   1.00
H1116  H     0.28202   0.86885   0.59258   0.00000  Uiso   1.00
H1117  H     0.25629   0.88071   0.64511   0.00000  Uiso   1.00
H1118  H     0.30241   0.84579   0.64411   0.00000  Uiso   1.00
H1119  H     0.23969   0.79888   0.65340   0.00000  Uiso   1.00
H1120  H     0.26440   0.78480   0.60348   0.00000  Uiso   1.00
C1121  C     0.41998   0.83334   0.74991   0.00000  Uiso   1.00
C1122  C     0.58002   0.83333   0.75009   0.00000  Uiso   1.00
C1123  C     0.42651   0.85043   0.52565   0.00000  Uiso   1.00
C1124  C     0.57346   0.81609   0.97435   0.00000  Uiso   1.00
C1125  C     0.35459   0.79409   0.73695   0.00000  Uiso   1.00
C1126  C     0.64541   0.87258   0.76303   0.00000  Uiso   1.00
C1127  C     0.64523   0.79409   0.73701   0.00000  Uiso   1.00
C1128  C     0.35477   0.87258   0.76298   0.00000  Uiso   1.00
C1129  C     0.62416   0.83332   0.75006   0.00000  Uiso   1.00
C1130  C     0.37584   0.83335   0.74993   0.00000  Uiso   1.00
C1131  C     0.52736   0.69080   0.77640   0.00000  Uiso   1.00
C1132  C     0.47264   0.97587   0.72360   0.00000  Uiso   1.00
C1133  C     0.47264   0.69049   0.72360   0.00000  Uiso   1.00
C1134  C     0.52735   0.97618   0.77640   0.00000  Uiso   1.00
C1135  C     0.50088   0.83318   0.66362   0.00000  Uiso   1.00
C1136  C     0.49912   0.83349   0.83638   0.00000  Uiso   1.00
C1137  C     0.53450   0.82444   0.90620   0.00000  Uiso   1.00
C1138  C     0.46548   0.84216   0.59380   0.00000  Uiso   1.00
C1139  C     0.49748   0.83398   0.88395   0.00000  Uiso   1.00
C1140  C     0.50252   0.83267   0.61605   0.00000  Uiso   1.00
C1141  C     0.46010   0.84374   0.90663   0.00000  Uiso   1.00
C1142  C     0.53990   0.82292   0.59337   0.00000  Uiso   1.00
C1143  C     0.46086   0.84272   0.95390   0.00000  Uiso   1.00
C1144  C     0.53912   0.82388   0.54610   0.00000  Uiso   1.00
C1145  C     0.49914   0.83350   0.97653   0.00000  Uiso   1.00
C1146  C     0.50085   0.83309   0.52347   0.00000  Uiso   1.00
C1147  C     0.53580   0.82461   0.95232   0.00000  Uiso   1.00
C1148  C     0.46418   0.84197   0.54768   0.00000  Uiso   1.00
C1149  C     0.42472   0.85060   0.97929   0.00000  Uiso   1.00
C1150  C     0.57525   0.81594   0.52071   0.00000  Uiso   1.00
H1151  H     0.56257   0.81734   0.88724   0.00000  Uiso   1.00
H1152  H     0.43741   0.84925   0.61276   0.00000  Uiso   1.00
H1153  H     0.39461   0.85672   0.96412   0.00000  Uiso   1.00
H1154  H     0.60535   0.80976   0.53588   0.00000  Uiso   1.00
H1155  H     0.39824   0.85683   0.54436   0.00000  Uiso   1.00
H1156  H     0.60172   0.80966   0.95564   0.00000  Uiso   1.00
H1157  H     0.37087   0.76373   0.72644   0.00000  Uiso   1.00
H1158  H     0.62913   0.90294   0.77355   0.00000  Uiso   1.00
H1159  H     0.62880   0.76374   0.72647   0.00000  Uiso   1.00
H1160  H     0.37119   0.90293   0.77351   0.00000  Uiso   1.00
H1161  H     0.54923   0.70908   0.79752   0.00000  Uiso   1.00
H1162  H     0.45077   0.95759   0.70248   0.00000  Uiso   1.00
H1163  H     0.45077   0.70852   0.70248   0.00000  Uiso   1.00
H1164  H     0.54923   0.95814   0.79752   0.00000  Uiso   1.00
N1165  N     0.50000   0.95240   0.75000   0.00000  Uiso   1.00
N1166  N     0.50000   0.71427   0.75000   0.00000  Uiso   1.00
O1167  O     0.43892   0.87154   0.74999   0.00000  Uiso   1.00
O1168  O     0.56108   0.79513   0.75000   0.00000  Uiso   1.00
O1169  O     0.56108   0.87154   0.75000   0.00000  Uiso   1.00
O1170  O     0.43892   0.79513   0.74999   0.00000  Uiso   1.00
O1171  O     0.49999   0.87156   0.68392   0.00000  Uiso   1.00
O1172  O     0.50001   0.79511   0.81607   0.00000  Uiso   1.00
O1173  O     0.50001   0.87156   0.81607   0.00000  Uiso   1.00
O1174  O     0.49999   0.79511   0.68392   0.00000  Uiso   1.00
Zn1175 Zn    0.50000   0.88437   0.75000   0.00000  Uiso   1.00
Zn1176 Zn    0.50000   0.78229   0.75000   0.00000  Uiso   1.00
C1177  C     0.42024   0.85433   0.88031   0.00000  Uiso   1.00
C1178  C     0.39333   0.81210   0.87422   0.00000  Uiso   1.00
H1179  H     0.41046   0.78615   0.85452   0.00000  Uiso   1.00
H1180  H     0.38478   0.79766   0.90715   0.00000  Uiso   1.00
H1181  H     0.36429   0.82098   0.85578   0.00000  Uiso   1.00
H1182  H     0.40223   0.88184   0.89661   0.00000  Uiso   1.00
H1183  H     0.42702   0.86801   0.84667   0.00000  Uiso   1.00
C1184  C     0.57977   0.81240   0.61969   0.00000  Uiso   1.00
C1185  C     0.60674   0.85461   0.62557   0.00000  Uiso   1.00
H1186  H     0.61536   0.86885   0.59258   0.00000  Uiso   1.00
H1187  H     0.58963   0.88071   0.64511   0.00000  Uiso   1.00
H1188  H     0.63575   0.84579   0.64411   0.00000  Uiso   1.00
H1189  H     0.57302   0.79888   0.65340   0.00000  Uiso   1.00
H1190  H     0.59773   0.78480   0.60348   0.00000  Uiso   1.00
C1191  C     0.75331   0.83334   0.74991   0.00000  Uiso   1.00
C1192  C     0.91335   0.83333   0.75009   0.00000  Uiso   1.00
C1193  C     0.75985   0.85043   0.52565   0.00000  Uiso   1.00
C1194  C     0.90679   0.81609   0.97435   0.00000  Uiso   1.00
C1195  C     0.68793   0.79409   0.73695   0.00000  Uiso   1.00
C1196  C     0.97874   0.87258   0.76303   0.00000  Uiso   1.00
C1197  C     0.97856   0.79409   0.73701   0.00000  Uiso   1.00
C1198  C     0.68810   0.87258   0.76298   0.00000  Uiso   1.00
C1199  C     0.95750   0.83332   0.75006   0.00000  Uiso   1.00
C1200  C     0.70917   0.83335   0.74993   0.00000  Uiso   1.00
C1201  C     0.86069   0.69080   0.77640   0.00000  Uiso   1.00
C1202  C     0.80598   0.97587   0.72360   0.00000  Uiso   1.00
C1203  C     0.80598   0.69049   0.72360   0.00000  Uiso   1.00
C1204  C     0.86069   0.97618   0.77640   0.00000  Uiso   1.00
C1205  C     0.83421   0.83318   0.66362   0.00000  Uiso   1.00
C1206  C     0.83245   0.83349   0.83638   0.00000  Uiso   1.00
C1207  C     0.86783   0.82444   0.90620   0.00000  Uiso   1.00
C1208  C     0.79882   0.84216   0.59380   0.00000  Uiso   1.00
C1209  C     0.83081   0.83398   0.88395   0.00000  Uiso   1.00
C1210  C     0.83585   0.83267   0.61605   0.00000  Uiso   1.00
C1211  C     0.79343   0.84374   0.90663   0.00000  Uiso   1.00
C1212  C     0.87323   0.82292   0.59337   0.00000  Uiso   1.00
C1213  C     0.79420   0.84272   0.95390   0.00000  Uiso   1.00
C1214  C     0.87245   0.82388   0.54610   0.00000  Uiso   1.00
C1215  C     0.83247   0.83350   0.97653   0.00000  Uiso   1.00
C1216  C     0.83418   0.83309   0.52347   0.00000  Uiso   1.00
C1217  C     0.86913   0.82461   0.95232   0.00000  Uiso   1.00
C1218  C     0.79752   0.84197   0.54768   0.00000  Uiso   1.00
C1219  C     0.75806   0.85060   0.97929   0.00000  Uiso   1.00
C1220  C     0.90858   0.81594   0.52071   0.00000  Uiso   1.00
H1221  H     0.89590   0.81734   0.88724   0.00000  Uiso   1.00
H1222  H     0.77074   0.84925   0.61276   0.00000  Uiso   1.00
H1223  H     0.72794   0.85672   0.96412   0.00000  Uiso   1.00
H1224  H     0.93869   0.80976   0.53588   0.00000  Uiso   1.00
H1225  H     0.73158   0.85683   0.54436   0.00000  Uiso   1.00
H1226  H     0.93505   0.80966   0.95564   0.00000  Uiso   1.00
H1227  H     0.70421   0.76373   0.72644   0.00000  Uiso   1.00
H1228  H     0.96246   0.90294   0.77355   0.00000  Uiso   1.00
H1229  H     0.96214   0.76374   0.72647   0.00000  Uiso   1.00
H1230  H     0.70453   0.90293   0.77351   0.00000  Uiso   1.00
H1231  H     0.88256   0.70908   0.79752   0.00000  Uiso   1.00
H1232  H     0.78411   0.95759   0.70248   0.00000  Uiso   1.00
H1233  H     0.78410   0.70852   0.70248   0.00000  Uiso   1.00
H1234  H     0.88256   0.95814   0.79752   0.00000  Uiso   1.00
N1235  N     0.83333   0.95240   0.75000   0.00000  Uiso   1.00
N1236  N     0.83333   0.71427   0.75000   0.00000  Uiso   1.00
O1237  O     0.77226   0.87154   0.74999   0.00000  Uiso   1.00
O1238  O     0.89441   0.79513   0.75000   0.00000  Uiso   1.00
O1239  O     0.89441   0.87154   0.75000   0.00000  Uiso   1.00
O1240  O     0.77226   0.79513   0.74999   0.00000  Uiso   1.00
O1241  O     0.83333   0.87156   0.68392   0.00000  Uiso   1.00
O1242  O     0.83334   0.79511   0.81607   0.00000  Uiso   1.00
O1243  O     0.83334   0.87156   0.81607   0.00000  Uiso   1.00
O1244  O     0.83333   0.79511   0.68392   0.00000  Uiso   1.00
Zn1245 Zn    0.83333   0.88437   0.75000   0.00000  Uiso   1.00
Zn1246 Zn    0.83333   0.78229   0.75000   0.00000  Uiso   1.00
C1247  C     0.75358   0.85433   0.88031   0.00000  Uiso   1.00
C1248  C     0.72666   0.81210   0.87422   0.00000  Uiso   1.00
H1249  H     0.74379   0.78615   0.85452   0.00000  Uiso   1.00
H1250  H     0.71811   0.79766   0.90715   0.00000  Uiso   1.00
H1251  H     0.69762   0.82098   0.85578   0.00000  Uiso   1.00
H1252  H     0.73557   0.88184   0.89661   0.00000  Uiso   1.00
H1253  H     0.76035   0.86801   0.84667   0.00000  Uiso   1.00
C1254  C     0.91311   0.81240   0.61969   0.00000  Uiso   1.00
C1255  C     0.94007   0.85461   0.62557   0.00000  Uiso   1.00
H1256  H     0.94869   0.86885   0.59258   0.00000  Uiso   1.00
H1257  H     0.92296   0.88071   0.64511   0.00000  Uiso   1.00
H1258  H     0.96908   0.84579   0.64411   0.00000  Uiso   1.00
H1259  H     0.90636   0.79888   0.65340   0.00000  Uiso   1.00
H1260  H     0.93107   0.78480   0.60348   0.00000  Uiso   1.00
loop_
_geom_bond_atom_site_label_1
_geom_bond_atom_site_label_2
_geom_bond_distance
_geom_bond_site_symmetry_2
_ccdc_geom_bond_type
C1     O50     1.282   .     A
C1     O47     1.282   .     A
C1     C10     1.416   .     S
C2     O49     1.282   .     A
C2     O48     1.282   .     A
C2     C9      1.416   .     S
C3     H35     1.084   .     S
C3     C28     1.394   .     A
C3     C659    1.384   1_554 S
C4     H36     1.084   .     S
C4     C27     1.394   .     A
C4     C660    1.384   .     S
C5     H37     1.084   .     S
C5     C10     1.396   .     A
C5     C147    1.370   1_455 S
C6     C9      1.396   .     A
C6     H38     1.084   .     S
C6     C78     1.370   .     S
C7     C9      1.396   .     A
C7     H39     1.084   .     S
C7     C75     1.370   .     S
C8     H40     1.084   .     S
C8     C10     1.396   .     A
C8     C146    1.370   1_455 S
C11    H41     1.082   .     S
C11    N46     1.366   .     A
C11    C434    1.417   1_545 S
C12    H42     1.082   .     S
C12    N45     1.366   .     A
C12    C223    1.417   .     S
C13    N46     1.366   .     A
C13    H43     1.082   .     S
C13    C432    1.417   1_545 S
C14    H44     1.082   .     S
C14    N45     1.366   .     A
C14    C221    1.417   .     S
C15    O51     1.283   .     A
C15    C20     1.421   .     S
C15    O54     1.281   .     A
C16    O52     1.283   .     A
C16    C19     1.421   .     S
C16    O53     1.281   .     A
C17    C19     1.386   .     A
C17    H31     1.087   .     S
C17    C27     1.376   .     A
C18    H32     1.087   .     S
C18    C28     1.376   .     A
C18    C20     1.386   .     A
C19    C21     1.410   .     A
C20    C22     1.410   .     A
C21    C57     1.528   .     S
C21    C23     1.411   .     A
C22    C24     1.411   .     A
C22    C64     1.528   .     S
C23    C25     1.424   .     A
C23    C29     1.408   .     A
C24    C26     1.424   .     A
C24    C30     1.408   .     A
C25    C27     1.409   .     A
C25    C656    1.401   .     S
C26    C28     1.409   .     A
C26    C655    1.401   1_554 S
C29    H33     1.079   .     S
C29    C633    1.384   .     S
C30    H34     1.079   .     S
C30    C634    1.384   1_554 S
N45    Zn55    2.010   .     S
N46    Zn56    2.010   .     S
O47    Zn55    1.996   .     S
O48    Zn56    1.996   .     S
O49    Zn55    1.995   .     S
O50    Zn56    1.995   .     S
O51    Zn55    2.005   .     S
O52    Zn56    2.005   .     S
O53    Zn55    2.010   .     S
O54    Zn56    2.010   .     S
C57    H62     1.109   .     S
C57    C58     1.526   .     S
C57    H63     1.108   .     S
C58    H60     1.110   .     S
C58    H61     1.111   .     S
C58    H59     1.111   .     S
C64    H70     1.109   .     S
C64    C65     1.527   .     S
C64    H69     1.107   .     S
C65    H67     1.111   .     S
C65    H68     1.111   .     S
C65    H66     1.110   .     S
C71    O120    1.282   .     A
C71    O117    1.282   .     A
C71    C80     1.416   .     S
C72    O119    1.282   .     A
C72    O118    1.282   .     A
C72    C79     1.416   .     S
C73    H105    1.084   .     S
C73    C98     1.394   .     A
C73    C729    1.384   1_554 S
C74    H106    1.084   .     S
C74    C97     1.394   .     A
C74    C730    1.384   .     S
C75    H107    1.084   .     S
C75    C80     1.396   .     A
C76    C79     1.396   .     A
C76    H108    1.084   .     S
C76    C148    1.370   .     S
C77    C79     1.396   .     A
C77    H109    1.084   .     S
C77    C145    1.370   .     S
C78    H110    1.084   .     S
C78    C80     1.396   .     A
C81    H111    1.082   .     S
C81    N116    1.366   .     A
C81    C504    1.417   1_545 S
C82    H112    1.082   .     S
C82    N115    1.366   .     A
C82    C293    1.417   .     S
C83    N116    1.366   .     A
C83    H113    1.082   .     S
C83    C502    1.417   1_545 S
C84    H114    1.082   .     S
C84    N115    1.366   .     A
C84    C291    1.417   .     S
C85    O121    1.283   .     A
C85    C90     1.421   .     S
C85    O124    1.281   .     A
C86    O122    1.283   .     A
C86    C89     1.421   .     S
C86    O123    1.281   .     A
C87    C89     1.386   .     A
C87    H101    1.087   .     S
C87    C97     1.376   .     A
C88    H102    1.087   .     S
C88    C98     1.376   .     A
C88    C90     1.386   .     A
C89    C91     1.410   .     A
C90    C92     1.410   .     A
C91    C127    1.528   .     S
C91    C93     1.411   .     A
C92    C94     1.411   .     A
C92    C134    1.528   .     S
C93    C95     1.424   .     A
C93    C99     1.408   .     A
C94    C96     1.424   .     A
C94    C100    1.408   .     A
C95    C97     1.409   .     A
C95    C726    1.401   .     S
C96    C98     1.409   .     A
C96    C725    1.401   1_554 S
C99    H103    1.079   .     S
C99    C703    1.384   .     S
C100   H104    1.079   .     S
C100   C704    1.384   1_554 S
N115   Zn125   2.010   .     S
N116   Zn126   2.010   .     S
O117   Zn125   1.996   .     S
O118   Zn126   1.996   .     S
O119   Zn125   1.995   .     S
O120   Zn126   1.995   .     S
O121   Zn125   2.005   .     S
O122   Zn126   2.005   .     S
O123   Zn125   2.010   .     S
O124   Zn126   2.010   .     S
C127   H132    1.109   .     S
C127   C128    1.526   .     S
C127   H133    1.108   .     S
C128   H130    1.110   .     S
C128   H131    1.111   .     S
C128   H129    1.111   .     S
C134   H140    1.109   .     S
C134   C135    1.527   .     S
C134   H139    1.107   .     S
C135   H137    1.111   .     S
C135   H138    1.111   .     S
C135   H136    1.110   .     S
C141   O190    1.282   .     A
C141   O187    1.282   .     A
C141   C150    1.416   .     S
C142   O189    1.282   .     A
C142   O188    1.282   .     A
C142   C149    1.416   .     S
C143   H175    1.084   .     S
C143   C168    1.394   .     A
C143   C799    1.384   1_554 S
C144   H176    1.084   .     S
C144   C167    1.394   .     A
C144   C800    1.384   .     S
C145   H177    1.084   .     S
C145   C150    1.396   .     A
C146   C149    1.396   .     A
C146   H178    1.084   .     S
C146   C8      1.370   1_655 S
C147   C149    1.396   .     A
C147   H179    1.084   .     S
C147   C5      1.370   1_655 S
C148   H180    1.084   .     S
C148   C150    1.396   .     A
C151   H181    1.082   .     S
C151   N186    1.366   .     A
C151   C574    1.417   1_545 S
C152   H182    1.082   .     S
C152   N185    1.366   .     A
C152   C363    1.417   .     S
C153   N186    1.366   .     A
C153   H183    1.082   .     S
C153   C572    1.417   1_545 S
C154   H184    1.082   .     S
C154   N185    1.366   .     A
C154   C361    1.417   .     S
C155   O191    1.283   .     A
C155   C160    1.421   .     S
C155   O194    1.281   .     A
C156   O192    1.283   .     A
C156   C159    1.421   .     S
C156   O193    1.281   .     A
C157   C159    1.386   .     A
C157   H171    1.087   .     S
C157   C167    1.376   .     A
C158   H172    1.087   .     S
C158   C168    1.376   .     A
C158   C160    1.386   .     A
C159   C161    1.410   .     A
C160   C162    1.410   .     A
C161   C197    1.528   .     S
C161   C163    1.411   .     A
C162   C164    1.411   .     A
C162   C204    1.528   .     S
C163   C165    1.424   .     A
C163   C169    1.408   .     A
C164   C166    1.424   .     A
C164   C170    1.408   .     A
C165   C167    1.409   .     A
C165   C796    1.401   .     S
C166   C168    1.409   .     A
C166   C795    1.401   1_554 S
C169   H173    1.079   .     S
C169   C773    1.384   .     S
C170   H174    1.079   .     S
C170   C774    1.384   1_554 S
N185   Zn195   2.010   .     S
N186   Zn196   2.010   .     S
O187   Zn195   1.996   .     S
O188   Zn196   1.996   .     S
O189   Zn195   1.995   .     S
O190   Zn196   1.995   .     S
O191   Zn195   2.005   .     S
O192   Zn196   2.005   .     S
O193   Zn195   2.010   .     S
O194   Zn196   2.010   .     S
C197   H202    1.109   .     S
C197   C198    1.526   .     S
C197   H203    1.108   .     S
C198   H200    1.110   .     S
C198   H201    1.111   .     S
C198   H199    1.111   .     S
C204   H210    1.109   .     S
C204   C205    1.527   .     S
C204   H209    1.107   .     S
C205   H207    1.111   .     S
C205   H208    1.111   .     S
C205   H206    1.110   .     S
C211   O260    1.282   .     A
C211   O257    1.282   .     A
C211   C220    1.416   .     S
C212   O259    1.282   .     A
C212   O258    1.282   .     A
C212   C219    1.416   .     S
C213   H245    1.084   .     S
C213   C238    1.394   .     A
C213   C869    1.384   1_554 S
C214   H246    1.084   .     S
C214   C237    1.394   .     A
C214   C870    1.384   .     S
C215   H247    1.084   .     S
C215   C220    1.396   .     A
C215   C357    1.370   1_455 S
C216   C219    1.396   .     A
C216   H248    1.084   .     S
C216   C288    1.370   .     S
C217   C219    1.396   .     A
C217   H249    1.084   .     S
C217   C285    1.370   .     S
C218   H250    1.084   .     S
C218   C220    1.396   .     A
C218   C356    1.370   1_455 S
C221   H251    1.082   .     S
C221   N256    1.366   .     A
C222   H252    1.082   .     S
C222   N255    1.366   .     A
C222   C433    1.417   .     S
C223   N256    1.366   .     A
C223   H253    1.082   .     S
C224   H254    1.082   .     S
C224   N255    1.366   .     A
C224   C431    1.417   .     S
C225   O261    1.283   .     A
C225   C230    1.421   .     S
C225   O264    1.281   .     A
C226   O262    1.283   .     A
C226   C229    1.421   .     S
C226   O263    1.281   .     A
C227   C229    1.386   .     A
C227   H241    1.087   .     S
C227   C237    1.376   .     A
C228   H242    1.087   .     S
C228   C238    1.376   .     A
C228   C230    1.386   .     A
C229   C231    1.410   .     A
C230   C232    1.410   .     A
C231   C267    1.528   .     S
C231   C233    1.411   .     A
C232   C234    1.411   .     A
C232   C274    1.528   .     S
C233   C235    1.424   .     A
C233   C239    1.408   .     A
C234   C236    1.424   .     A
C234   C240    1.408   .     A
C235   C237    1.409   .     A
C235   C866    1.401   .     S
C236   C238    1.409   .     A
C236   C865    1.401   1_554 S
C239   H243    1.079   .     S
C239   C843    1.384   .     S
C240   H244    1.079   .     S
C240   C844    1.384   1_554 S
N255   Zn265   2.010   .     S
N256   Zn266   2.010   .     S
O257   Zn265   1.996   .     S
O258   Zn266   1.996   .     S
O259   Zn265   1.995   .     S
O260   Zn266   1.995   .     S
O261   Zn265   2.005   .     S
O262   Zn266   2.005   .     S
O263   Zn265   2.010   .     S
O264   Zn266   2.010   .     S
C267   H272    1.109   .     S
C267   C268    1.526   .     S
C267   H273    1.108   .     S
C268   H270    1.110   .     S
C268   H271    1.111   .     S
C268   H269    1.111   .     S
C274   H280    1.109   .     S
C274   C275    1.527   .     S
C274   H279    1.107   .     S
C275   H277    1.111   .     S
C275   H278    1.111   .     S
C275   H276    1.110   .     S
C281   O330    1.282   .     A
C281   O327    1.282   .     A
C281   C290    1.416   .     S
C282   O329    1.282   .     A
C282   O328    1.282   .     A
C282   C289    1.416   .     S
C283   H315    1.084   .     S
C283   C308    1.394   .     A
C283   C939    1.384   1_554 S
C284   H316    1.084   .     S
C284   C307    1.394   .     A
C284   C940    1.384   .     S
C285   H317    1.084   .     S
C285   C290    1.396   .     A
C286   C289    1.396   .     A
C286   H318    1.084   .     S
C286   C358    1.370   .     S
C287   C289    1.396   .     A
C287   H319    1.084   .     S
C287   C355    1.370   .     S
C288   H320    1.084   .     S
C288   C290    1.396   .     A
C291   H321    1.082   .     S
C291   N326    1.366   .     A
C292   H322    1.082   .     S
C292   N325    1.366   .     A
C292   C503    1.417   .     S
C293   N326    1.366   .     A
C293   H323    1.082   .     S
C294   H324    1.082   .     S
C294   N325    1.366   .     A
C294   C501    1.417   .     S
C295   O331    1.283   .     A
C295   C300    1.421   .     S
C295   O334    1.281   .     A
C296   O332    1.283   .     A
C296   C299    1.421   .     S
C296   O333    1.281   .     A
C297   C299    1.386   .     A
C297   H311    1.087   .     S
C297   C307    1.376   .     A
C298   H312    1.087   .     S
C298   C308    1.376   .     A
C298   C300    1.386   .     A
C299   C301    1.410   .     A
C300   C302    1.410   .     A
C301   C337    1.528   .     S
C301   C303    1.411   .     A
C302   C304    1.411   .     A
C302   C344    1.528   .     S
C303   C305    1.424   .     A
C303   C309    1.408   .     A
C304   C306    1.424   .     A
C304   C310    1.408   .     A
C305   C307    1.409   .     A
C305   C936    1.401   .     S
C306   C308    1.409   .     A
C306   C935    1.401   1_554 S
C309   H313    1.079   .     S
C309   C913    1.384   .     S
C310   H314    1.079   .     S
C310   C914    1.384   1_554 S
N325   Zn335   2.010   .     S
N326   Zn336   2.010   .     S
O327   Zn335   1.996   .     S
O328   Zn336   1.996   .     S
O329   Zn335   1.995   .     S
O330   Zn336   1.995   .     S
O331   Zn335   2.005   .     S
O332   Zn336   2.005   .     S
O333   Zn335   2.010   .     S
O334   Zn336   2.010   .     S
C337   H342    1.109   .     S
C337   C338    1.526   .     S
C337   H343    1.108   .     S
C338   H340    1.110   .     S
C338   H341    1.111   .     S
C338   H339    1.111   .     S
C344   H350    1.109   .     S
C344   C345    1.527   .     S
C344   H349    1.107   .     S
C345   H347    1.111   .     S
C345   H348    1.111   .     S
C345   H346    1.110   .     S
C351   O400    1.282   .     A
C351   O397    1.282   .     A
C351   C360    1.416   .     S
C352   O399    1.282   .     A
C352   O398    1.282   .     A
C352   C359    1.416   .     S
C353   H385    1.084   .     S
C353   C378    1.394   .     A
C353   C1009   1.384   1_554 S
C354   H386    1.084   .     S
C354   C377    1.394   .     A
C354   C1010   1.384   .     S
C355   H387    1.084   .     S
C355   C360    1.396   .     A
C356   C359    1.396   .     A
C356   H388    1.084   .     S
C356   C218    1.370   1_655 S
C357   C359    1.396   .     A
C357   H389    1.084   .     S
C357   C215    1.370   1_655 S
C358   H390    1.084   .     S
C358   C360    1.396   .     A
C361   H391    1.082   .     S
C361   N396    1.366   .     A
C362   H392    1.082   .     S
C362   N395    1.366   .     A
C362   C573    1.417   .     S
C363   N396    1.366   .     A
C363   H393    1.082   .     S
C364   H394    1.082   .     S
C364   N395    1.366   .     A
C364   C571    1.417   .     S
C365   O401    1.283   .     A
C365   C370    1.421   .     S
C365   O404    1.281   .     A
C366   O402    1.283   .     A
C366   C369    1.421   .     S
C366   O403    1.281   .     A
C367   C369    1.386   .     A
C367   H381    1.087   .     S
C367   C377    1.376   .     A
C368   H382    1.087   .     S
C368   C378    1.376   .     A
C368   C370    1.386   .     A
C369   C371    1.410   .     A
C370   C372    1.410   .     A
C371   C407    1.528   .     S
C371   C373    1.411   .     A
C372   C374    1.411   .     A
C372   C414    1.528   .     S
C373   C375    1.424   .     A
C373   C379    1.408   .     A
C374   C376    1.424   .     A
C374   C380    1.408   .     A
C375   C377    1.409   .     A
C375   C1006   1.401   .     S
C376   C378    1.409   .     A
C376   C1005   1.401   1_554 S
C379   H383    1.079   .     S
C379   C983    1.384   .     S
C380   H384    1.079   .     S
C380   C984    1.384   1_554 S
N395   Zn405   2.010   .     S
N396   Zn406   2.010   .     S
O397   Zn405   1.996   .     S
O398   Zn406   1.996   .     S
O399   Zn405   1.995   .     S
O400   Zn406   1.995   .     S
O401   Zn405   2.005   .     S
O402   Zn406   2.005   .     S
O403   Zn405   2.010   .     S
O404   Zn406   2.010   .     S
C407   H412    1.109   .     S
C407   C408    1.526   .     S
C407   H413    1.108   .     S
C408   H410    1.110   .     S
C408   H411    1.111   .     S
C408   H409    1.111   .     S
C414   H420    1.109   .     S
C414   C415    1.527   .     S
C414   H419    1.107   .     S
C415   H417    1.111   .     S
C415   H418    1.111   .     S
C415   H416    1.110   .     S
C421   O470    1.282   .     A
C421   O467    1.282   .     A
C421   C430    1.416   .     S
C422   O469    1.282   .     A
C422   O468    1.282   .     A
C422   C429    1.416   .     S
C423   H455    1.084   .     S
C423   C448    1.394   .     A
C423   C1079   1.384   1_554 S
C424   H456    1.084   .     S
C424   C447    1.394   .     A
C424   C1080   1.384   .     S
C425   H457    1.084   .     S
C425   C430    1.396   .     A
C425   C567    1.370   1_455 S
C426   C429    1.396   .     A
C426   H458    1.084   .     S
C426   C498    1.370   .     S
C427   C429    1.396   .     A
C427   H459    1.084   .     S
C427   C495    1.370   .     S
C428   H460    1.084   .     S
C428   C430    1.396   .     A
C428   C566    1.370   1_455 S
C431   H461    1.082   .     S
C431   N466    1.366   .     A
C432   H462    1.082   .     S
C432   N465    1.366   .     A
C432   C13     1.417   1_565 S
C433   N466    1.366   .     A
C433   H463    1.082   .     S
C434   H464    1.082   .     S
C434   N465    1.366   .     A
C434   C11     1.417   1_565 S
C435   O471    1.283   .     A
C435   C440    1.421   .     S
C435   O474    1.281   .     A
C436   O472    1.283   .     A
C436   C439    1.421   .     S
C436   O473    1.281   .     A
C437   C439    1.386   .     A
C437   H451    1.087   .     S
C437   C447    1.376   .     A
C438   H452    1.087   .     S
C438   C448    1.376   .     A
C438   C440    1.386   .     A
C439   C441    1.410   .     A
C440   C442    1.410   .     A
C441   C477    1.528   .     S
C441   C443    1.411   .     A
C442   C444    1.411   .     A
C442   C484    1.528   .     S
C443   C445    1.424   .     A
C443   C449    1.408   .     A
C444   C446    1.424   .     A
C444   C450    1.408   .     A
C445   C447    1.409   .     A
C445   C1076   1.401   .     S
C446   C448    1.409   .     A
C446   C1075   1.401   1_554 S
C449   H453    1.079   .     S
C449   C1053   1.384   .     S
C450   H454    1.079   .     S
C450   C1054   1.384   1_554 S
N465   Zn475   2.010   .     S
N466   Zn476   2.010   .     S
O467   Zn475   1.996   .     S
O468   Zn476   1.996   .     S
O469   Zn475   1.995   .     S
O470   Zn476   1.995   .     S
O471   Zn475   2.005   .     S
O472   Zn476   2.005   .     S
O473   Zn475   2.010   .     S
O474   Zn476   2.010   .     S
C477   H482    1.109   .     S
C477   C478    1.526   .     S
C477   H483    1.108   .     S
C478   H480    1.110   .     S
C478   H481    1.111   .     S
C478   H479    1.111   .     S
C484   H490    1.109   .     S
C484   C485    1.527   .     S
C484   H489    1.107   .     S
C485   H487    1.111   .     S
C485   H488    1.111   .     S
C485   H486    1.110   .     S
C491   O540    1.282   .     A
C491   O537    1.282   .     A
C491   C500    1.416   .     S
C492   O539    1.282   .     A
C492   O538    1.282   .     A
C492   C499    1.416   .     S
C493   H525    1.084   .     S
C493   C518    1.394   .     A
C493   C1149   1.384   1_554 S
C494   H526    1.084   .     S
C494   C517    1.394   .     A
C494   C1150   1.384   .     S
C495   H527    1.084   .     S
C495   C500    1.396   .     A
C496   C499    1.396   .     A
C496   H528    1.084   .     S
C496   C568    1.370   .     S
C497   C499    1.396   .     A
C497   H529    1.084   .     S
C497   C565    1.370   .     S
C498   H530    1.084   .     S
C498   C500    1.396   .     A
C501   H531    1.082   .     S
C501   N536    1.366   .     A
C502   H532    1.082   .     S
C502   N535    1.366   .     A
C502   C83     1.417   1_565 S
C503   N536    1.366   .     A
C503   H533    1.082   .     S
C504   H534    1.082   .     S
C504   N535    1.366   .     A
C504   C81     1.417   1_565 S
C505   O541    1.283   .     A
C505   C510    1.421   .     S
C505   O544    1.281   .     A
C506   O542    1.283   .     A
C506   C509    1.421   .     S
C506   O543    1.281   .     A
C507   C509    1.386   .     A
C507   H521    1.087   .     S
C507   C517    1.376   .     A
C508   H522    1.087   .     S
C508   C518    1.376   .     A
C508   C510    1.386   .     A
C509   C511    1.410   .     A
C510   C512    1.410   .     A
C511   C547    1.528   .     S
C511   C513    1.411   .     A
C512   C514    1.411   .     A
C512   C554    1.528   .     S
C513   C515    1.424   .     A
C513   C519    1.408   .     A
C514   C516    1.424   .     A
C514   C520    1.408   .     A
C515   C517    1.409   .     A
C515   C1146   1.401   .     S
C516   C518    1.409   .     A
C516   C1145   1.401   1_554 S
C519   H523    1.079   .     S
C519   C1123   1.384   .     S
C520   H524    1.079   .     S
C520   C1124   1.384   1_554 S
N535   Zn545   2.010   .     S
N536   Zn546   2.010   .     S
O537   Zn545   1.996   .     S
O538   Zn546   1.996   .     S
O539   Zn545   1.995   .     S
O540   Zn546   1.995   .     S
O541   Zn545   2.005   .     S
O542   Zn546   2.005   .     S
O543   Zn545   2.010   .     S
O544   Zn546   2.010   .     S
C547   H552    1.109   .     S
C547   C548    1.526   .     S
C547   H553    1.108   .     S
C548   H550    1.110   .     S
C548   H551    1.111   .     S
C548   H549    1.111   .     S
C554   H560    1.109   .     S
C554   C555    1.527   .     S
C554   H559    1.107   .     S
C555   H557    1.111   .     S
C555   H558    1.111   .     S
C555   H556    1.110   .     S
C561   O610    1.282   .     A
C561   O607    1.282   .     A
C561   C570    1.416   .     S
C562   O609    1.282   .     A
C562   O608    1.282   .     A
C562   C569    1.416   .     S
C563   H595    1.084   .     S
C563   C588    1.394   .     A
C563   C1219   1.384   1_554 S
C564   H596    1.084   .     S
C564   C587    1.394   .     A
C564   C1220   1.384   .     S
C565   H597    1.084   .     S
C565   C570    1.396   .     A
C566   C569    1.396   .     A
C566   H598    1.084   .     S
C566   C428    1.370   1_655 S
C567   C569    1.396   .     A
C567   H599    1.084   .     S
C567   C425    1.370   1_655 S
C568   H600    1.084   .     S
C568   C570    1.396   .     A
C571   H601    1.082   .     S
C571   N606    1.366   .     A
C572   H602    1.082   .     S
C572   N605    1.366   .     A
C572   C153    1.417   1_565 S
C573   N606    1.366   .     A
C573   H603    1.082   .     S
C574   H604    1.082   .     S
C574   N605    1.366   .     A
C574   C151    1.417   1_565 S
C575   O611    1.283   .     A
C575   C580    1.421   .     S
C575   O614    1.281   .     A
C576   O612    1.283   .     A
C576   C579    1.421   .     S
C576   O613    1.281   .     A
C577   C579    1.386   .     A
C577   H591    1.087   .     S
C577   C587    1.376   .     A
C578   H592    1.087   .     S
C578   C588    1.376   .     A
C578   C580    1.386   .     A
C579   C581    1.410   .     A
C580   C582    1.410   .     A
C581   C617    1.528   .     S
C581   C583    1.411   .     A
C582   C584    1.411   .     A
C582   C624    1.528   .     S
C583   C585    1.424   .     A
C583   C589    1.408   .     A
C584   C586    1.424   .     A
C584   C590    1.408   .     A
C585   C587    1.409   .     A
C585   C1216   1.401   .     S
C586   C588    1.409   .     A
C586   C1215   1.401   1_554 S
C589   H593    1.079   .     S
C589   C1193   1.384   .     S
C590   H594    1.079   .     S
C590   C1194   1.384   1_554 S
N605   Zn615   2.010   .     S
N606   Zn616   2.010   .     S
O607   Zn615   1.996   .     S
O608   Zn616   1.996   .     S
O609   Zn615   1.995   .     S
O610   Zn616   1.995   .     S
O611   Zn615   2.005   .     S
O612   Zn616   2.005   .     S
O613   Zn615   2.010   .     S
O614   Zn616   2.010   .     S
C617   H622    1.109   .     S
C617   C618    1.526   .     S
C617   H623    1.108   .     S
C618   H620    1.110   .     S
C618   H621    1.111   .     S
C618   H619    1.111   .     S
C624   H630    1.109   .     S
C624   C625    1.527   .     S
C624   H629    1.107   .     S
C625   H627    1.111   .     S
C625   H628    1.111   .     S
C625   H626    1.110   .     S
C631   O680    1.282   .     A
C631   O677    1.282   .     A
C631   C640    1.416   .     S
C632   O679    1.282   .     A
C632   O678    1.282   .     A
C632   C639    1.416   .     S
C633   H665    1.084   .     S
C633   C658    1.394   .     A
C634   H666    1.084   .     S
C634   C657    1.394   .     A
C634   C30     1.384   1_556 S
C635   H667    1.084   .     S
C635   C640    1.396   .     A
C635   C777    1.370   1_455 S
C636   C639    1.396   .     A
C636   H668    1.084   .     S
C636   C708    1.370   .     S
C637   C639    1.396   .     A
C637   H669    1.084   .     S
C637   C705    1.370   .     S
C638   H670    1.084   .     S
C638   C640    1.396   .     A
C638   C776    1.370   1_455 S
C641   H671    1.082   .     S
C641   N676    1.366   .     A
C641   C1064   1.417   1_545 S
C642   H672    1.082   .     S
C642   N675    1.366   .     A
C642   C853    1.417   .     S
C643   N676    1.366   .     A
C643   H673    1.082   .     S
C643   C1062   1.417   1_545 S
C644   H674    1.082   .     S
C644   N675    1.366   .     A
C644   C851    1.417   .     S
C645   O681    1.283   .     A
C645   C650    1.421   .     S
C645   O684    1.281   .     A
C646   O682    1.283   .     A
C646   C649    1.421   .     S
C646   O683    1.281   .     A
C647   C649    1.386   .     A
C647   H661    1.087   .     S
C647   C657    1.376   .     A
C648   H662    1.087   .     S
C648   C658    1.376   .     A
C648   C650    1.386   .     A
C649   C651    1.410   .     A
C650   C652    1.410   .     A
C651   C687    1.528   .     S
C651   C653    1.411   .     A
C652   C654    1.411   .     A
C652   C694    1.528   .     S
C653   C655    1.424   .     A
C653   C659    1.408   .     A
C654   C656    1.424   .     A
C654   C660    1.408   .     A
C655   C657    1.409   .     A
C655   C26     1.401   1_556 S
C656   C658    1.409   .     A
C659   H663    1.079   .     S
C659   C3      1.384   1_556 S
C660   H664    1.079   .     S
N675   Zn685   2.010   .     S
N676   Zn686   2.010   .     S
O677   Zn685   1.996   .     S
O678   Zn686   1.996   .     S
O679   Zn685   1.995   .     S
O680   Zn686   1.995   .     S
O681   Zn685   2.005   .     S
O682   Zn686   2.005   .     S
O683   Zn685   2.010   .     S
O684   Zn686   2.010   .     S
C687   H692    1.109   .     S
C687   C688    1.526   .     S
C687   H693    1.108   .     S
C688   H690    1.110   .     S
C688   H691    1.111   .     S
C688   H689    1.111   .     S
C694   H700    1.109   .     S
C694   C695    1.527   .     S
C694   H699    1.107   .     S
C695   H697    1.111   .     S
C695   H698    1.111   .     S
C695   H696    1.110   .     S
C701   O750    1.282   .     A
C701   O747    1.282   .     A
C701   C710    1.416   .     S
C702   O749    1.282   .     A
C702   O748    1.282   .     A
C702   C709    1.416   .     S
C703   H735    1.084   .     S
C703   C728    1.394   .     A
C704   H736    1.084   .     S
C704   C727    1.394   .     A
C704   C100    1.384   1_556 S
C705   H737    1.084   .     S
C705   C710    1.396   .     A
C706   C709    1.396   .     A
C706   H738    1.084   .     S
C706   C778    1.370   .     S
C707   C709    1.396   .     A
C707   H739    1.084   .     S
C707   C775    1.370   .     S
C708   H740    1.084   .     S
C708   C710    1.396   .     A
C711   H741    1.082   .     S
C711   N746    1.366   .     A
C711   C1134   1.417   1_545 S
C712   H742    1.082   .     S
C712   N745    1.366   .     A
C712   C923    1.417   .     S
C713   N746    1.366   .     A
C713   H743    1.082   .     S
C713   C1132   1.417   1_545 S
C714   H744    1.082   .     S
C714   N745    1.366   .     A
C714   C921    1.417   .     S
C715   O751    1.283   .     A
C715   C720    1.421   .     S
C715   O754    1.281   .     A
C716   O752    1.283   .     A
C716   C719    1.421   .     S
C716   O753    1.281   .     A
C717   C719    1.386   .     A
C717   H731    1.087   .     S
C717   C727    1.376   .     A
C718   H732    1.087   .     S
C718   C728    1.376   .     A
C718   C720    1.386   .     A
C719   C721    1.410   .     A
C720   C722    1.410   .     A
C721   C757    1.528   .     S
C721   C723    1.411   .     A
C722   C724    1.411   .     A
C722   C764    1.528   .     S
C723   C725    1.424   .     A
C723   C729    1.408   .     A
C724   C726    1.424   .     A
C724   C730    1.408   .     A
C725   C727    1.409   .     A
C725   C96     1.401   1_556 S
C726   C728    1.409   .     A
C729   H733    1.079   .     S
C729   C73     1.384   1_556 S
C730   H734    1.079   .     S
N745   Zn755   2.010   .     S
N746   Zn756   2.010   .     S
O747   Zn755   1.996   .     S
O748   Zn756   1.996   .     S
O749   Zn755   1.995   .     S
O750   Zn756   1.995   .     S
O751   Zn755   2.005   .     S
O752   Zn756   2.005   .     S
O753   Zn755   2.010   .     S
O754   Zn756   2.010   .     S
C757   H762    1.109   .     S
C757   C758    1.526   .     S
C757   H763    1.108   .     S
C758   H760    1.110   .     S
C758   H761    1.111   .     S
C758   H759    1.111   .     S
C764   H770    1.109   .     S
C764   C765    1.527   .     S
C764   H769    1.107   .     S
C765   H767    1.111   .     S
C765   H768    1.111   .     S
C765   H766    1.110   .     S
C771   O820    1.282   .     A
C771   O817    1.282   .     A
C771   C780    1.416   .     S
C772   O819    1.282   .     A
C772   O818    1.282   .     A
C772   C779    1.416   .     S
C773   H805    1.084   .     S
C773   C798    1.394   .     A
C774   H806    1.084   .     S
C774   C797    1.394   .     A
C774   C170    1.384   1_556 S
C775   H807    1.084   .     S
C775   C780    1.396   .     A
C776   C779    1.396   .     A
C776   H808    1.084   .     S
C776   C638    1.370   1_655 S
C777   C779    1.396   .     A
C777   H809    1.084   .     S
C777   C635    1.370   1_655 S
C778   H810    1.084   .     S
C778   C780    1.396   .     A
C781   H811    1.082   .     S
C781   N816    1.366   .     A
C781   C1204   1.417   1_545 S
C782   H812    1.082   .     S
C782   N815    1.366   .     A
C782   C993    1.417   .     S
C783   N816    1.366   .     A
C783   H813    1.082   .     S
C783   C1202   1.417   1_545 S
C784   H814    1.082   .     S
C784   N815    1.366   .     A
C784   C991    1.417   .     S
C785   O821    1.283   .     A
C785   C790    1.421   .     S
C785   O824    1.281   .     A
C786   O822    1.283   .     A
C786   C789    1.421   .     S
C786   O823    1.281   .     A
C787   C789    1.386   .     A
C787   H801    1.087   .     S
C787   C797    1.376   .     A
C788   H802    1.087   .     S
C788   C798    1.376   .     A
C788   C790    1.386   .     A
C789   C791    1.410   .     A
C790   C792    1.410   .     A
C791   C827    1.528   .     S
C791   C793    1.411   .     A
C792   C794    1.411   .     A
C792   C834    1.528   .     S
C793   C795    1.424   .     A
C793   C799    1.408   .     A
C794   C796    1.424   .     A
C794   C800    1.408   .     A
C795   C797    1.409   .     A
C795   C166    1.401   1_556 S
C796   C798    1.409   .     A
C799   H803    1.079   .     S
C799   C143    1.384   1_556 S
C800   H804    1.079   .     S
N815   Zn825   2.010   .     S
N816   Zn826   2.010   .     S
O817   Zn825   1.996   .     S
O818   Zn826   1.996   .     S
O819   Zn825   1.995   .     S
O820   Zn826   1.995   .     S
O821   Zn825   2.005   .     S
O822   Zn826   2.005   .     S
O823   Zn825   2.010   .     S
O824   Zn826   2.010   .     S
C827   H832    1.109   .     S
C827   C828    1.526   .     S
C827   H833    1.108   .     S
C828   H830    1.110   .     S
C828   H831    1.111   .     S
C828   H829    1.111   .     S
C834   H840    1.109   .     S
C834   C835    1.527   .     S
C834   H839    1.107   .     S
C835   H837    1.111   .     S
C835   H838    1.111   .     S
C835   H836    1.110   .     S
C841   O890    1.282   .     A
C841   O887    1.282   .     A
C841   C850    1.416   .     S
C842   O889    1.282   .     A
C842   O888    1.282   .     A
C842   C849    1.416   .     S
C843   H875    1.084   .     S
C843   C868    1.394   .     A
C844   H876    1.084   .     S
C844   C867    1.394   .     A
C844   C240    1.384   1_556 S
C845   H877    1.084   .     S
C845   C850    1.396   .     A
C845   C987    1.370   1_455 S
C846   C849    1.396   .     A
C846   H878    1.084   .     S
C846   C918    1.370   .     S
C847   C849    1.396   .     A
C847   H879    1.084   .     S
C847   C915    1.370   .     S
C848   H880    1.084   .     S
C848   C850    1.396   .     A
C848   C986    1.370   1_455 S
C851   H881    1.082   .     S
C851   N886    1.366   .     A
C852   H882    1.082   .     S
C852   N885    1.366   .     A
C852   C1063   1.417   .     S
C853   N886    1.366   .     A
C853   H883    1.082   .     S
C854   H884    1.082   .     S
C854   N885    1.366   .     A
C854   C1061   1.417   .     S
C855   O891    1.283   .     A
C855   C860    1.421   .     S
C855   O894    1.281   .     A
C856   O892    1.283   .     A
C856   C859    1.421   .     S
C856   O893    1.281   .     A
C857   C859    1.386   .     A
C857   H871    1.087   .     S
C857   C867    1.376   .     A
C858   H872    1.087   .     S
C858   C868    1.376   .     A
C858   C860    1.386   .     A
C859   C861    1.410   .     A
C860   C862    1.410   .     A
C861   C897    1.528   .     S
C861   C863    1.411   .     A
C862   C864    1.411   .     A
C862   C904    1.528   .     S
C863   C865    1.424   .     A
C863   C869    1.408   .     A
C864   C866    1.424   .     A
C864   C870    1.408   .     A
C865   C867    1.409   .     A
C865   C236    1.401   1_556 S
C866   C868    1.409   .     A
C869   H873    1.079   .     S
C869   C213    1.384   1_556 S
C870   H874    1.079   .     S
N885   Zn895   2.010   .     S
N886   Zn896   2.010   .     S
O887   Zn895   1.996   .     S
O888   Zn896   1.996   .     S
O889   Zn895   1.995   .     S
O890   Zn896   1.995   .     S
O891   Zn895   2.005   .     S
O892   Zn896   2.005   .     S
O893   Zn895   2.010   .     S
O894   Zn896   2.010   .     S
C897   H902    1.109   .     S
C897   C898    1.526   .     S
C897   H903    1.108   .     S
C898   H900    1.110   .     S
C898   H901    1.111   .     S
C898   H899    1.111   .     S
C904   H910    1.109   .     S
C904   C905    1.527   .     S
C904   H909    1.107   .     S
C905   H907    1.111   .     S
C905   H908    1.111   .     S
C905   H906    1.110   .     S
C911   O960    1.282   .     A
C911   O957    1.282   .     A
C911   C920    1.416   .     S
C912   O959    1.282   .     A
C912   O958    1.282   .     A
C912   C919    1.416   .     S
C913   H945    1.084   .     S
C913   C938    1.394   .     A
C914   H946    1.084   .     S
C914   C937    1.394   .     A
C914   C310    1.384   1_556 S
C915   H947    1.084   .     S
C915   C920    1.396   .     A
C916   C919    1.396   .     A
C916   H948    1.084   .     S
C916   C988    1.370   .     S
C917   C919    1.396   .     A
C917   H949    1.084   .     S
C917   C985    1.370   .     S
C918   H950    1.084   .     S
C918   C920    1.396   .     A
C921   H951    1.082   .     S
C921   N956    1.366   .     A
C922   H952    1.082   .     S
C922   N955    1.366   .     A
C922   C1133   1.417   .     S
C923   N956    1.366   .     A
C923   H953    1.082   .     S
C924   H954    1.082   .     S
C924   N955    1.366   .     A
C924   C1131   1.417   .     S
C925   O961    1.283   .     A
C925   C930    1.421   .     S
C925   O964    1.281   .     A
C926   O962    1.283   .     A
C926   C929    1.421   .     S
C926   O963    1.281   .     A
C927   C929    1.386   .     A
C927   H941    1.087   .     S
C927   C937    1.376   .     A
C928   H942    1.087   .     S
C928   C938    1.376   .     A
C928   C930    1.386   .     A
C929   C931    1.410   .     A
C930   C932    1.410   .     A
C931   C967    1.528   .     S
C931   C933    1.411   .     A
C932   C934    1.411   .     A
C932   C974    1.528   .     S
C933   C935    1.424   .     A
C933   C939    1.408   .     A
C934   C936    1.424   .     A
C934   C940    1.408   .     A
C935   C937    1.409   .     A
C935   C306    1.401   1_556 S
C936   C938    1.409   .     A
C939   H943    1.079   .     S
C939   C283    1.384   1_556 S
C940   H944    1.079   .     S
N955   Zn965   2.010   .     S
N956   Zn966   2.010   .     S
O957   Zn965   1.996   .     S
O958   Zn966   1.996   .     S
O959   Zn965   1.995   .     S
O960   Zn966   1.995   .     S
O961   Zn965   2.005   .     S
O962   Zn966   2.005   .     S
O963   Zn965   2.010   .     S
O964   Zn966   2.010   .     S
C967   H972    1.109   .     S
C967   C968    1.526   .     S
C967   H973    1.108   .     S
C968   H970    1.110   .     S
C968   H971    1.111   .     S
C968   H969    1.111   .     S
C974   H980    1.109   .     S
C974   C975    1.527   .     S
C974   H979    1.107   .     S
C975   H977    1.111   .     S
C975   H978    1.111   .     S
C975   H976    1.110   .     S
C981   O1030   1.282   .     A
C981   O1027   1.282   .     A
C981   C990    1.416   .     S
C982   O1029   1.282   .     A
C982   O1028   1.282   .     A
C982   C989    1.416   .     S
C983   H1015   1.084   .     S
C983   C1008   1.394   .     A
C984   H1016   1.084   .     S
C984   C1007   1.394   .     A
C984   C380    1.384   1_556 S
C985   H1017   1.084   .     S
C985   C990    1.396   .     A
C986   C989    1.396   .     A
C986   H1018   1.084   .     S
C986   C848    1.370   1_655 S
C987   C989    1.396   .     A
C987   H1019   1.084   .     S
C987   C845    1.370   1_655 S
C988   H1020   1.084   .     S
C988   C990    1.396   .     A
C991   H1021   1.082   .     S
C991   N1026   1.366   .     A
C992   H1022   1.082   .     S
C992   N1025   1.366   .     A
C992   C1203   1.417   .     S
C993   N1026   1.366   .     A
C993   H1023   1.082   .     S
C994   H1024   1.082   .     S
C994   N1025   1.366   .     A
C994   C1201   1.417   .     S
C995   O1031   1.283   .     A
C995   C1000   1.421   .     S
C995   O1034   1.281   .     A
C996   O1032   1.283   .     A
C996   C999    1.421   .     S
C996   O1033   1.281   .     A
C997   C999    1.386   .     A
C997   H1011   1.087   .     S
C997   C1007   1.376   .     A
C998   H1012   1.087   .     S
C998   C1008   1.376   .     A
C998   C1000   1.386   .     A
C999   C1001   1.410   .     A
C1000  C1002   1.410   .     A
C1001  C1037   1.528   .     S
C1001  C1003   1.411   .     A
C1002  C1004   1.411   .     A
C1002  C1044   1.528   .     S
C1003  C1005   1.424   .     A
C1003  C1009   1.408   .     A
C1004  C1006   1.424   .     A
C1004  C1010   1.408   .     A
C1005  C1007   1.409   .     A
C1005  C376    1.401   1_556 S
C1006  C1008   1.409   .     A
C1009  H1013   1.079   .     S
C1009  C353    1.384   1_556 S
C1010  H1014   1.079   .     S
N1025  Zn1035  2.010   .     S
N1026  Zn1036  2.010   .     S
O1027  Zn1035  1.996   .     S
O1028  Zn1036  1.996   .     S
O1029  Zn1035  1.995   .     S
O1030  Zn1036  1.995   .     S
O1031  Zn1035  2.005   .     S
O1032  Zn1036  2.005   .     S
O1033  Zn1035  2.010   .     S
O1034  Zn1036  2.010   .     S
C1037  H1042   1.109   .     S
C1037  C1038   1.526   .     S
C1037  H1043   1.108   .     S
C1038  H1040   1.110   .     S
C1038  H1041   1.111   .     S
C1038  H1039   1.111   .     S
C1044  H1050   1.109   .     S
C1044  C1045   1.527   .     S
C1044  H1049   1.107   .     S
C1045  H1047   1.111   .     S
C1045  H1048   1.111   .     S
C1045  H1046   1.110   .     S
C1051  O1100   1.282   .     A
C1051  O1097   1.282   .     A
C1051  C1060   1.416   .     S
C1052  O1099   1.282   .     A
C1052  O1098   1.282   .     A
C1052  C1059   1.416   .     S
C1053  H1085   1.084   .     S
C1053  C1078   1.394   .     A
C1054  H1086   1.084   .     S
C1054  C1077   1.394   .     A
C1054  C450    1.384   1_556 S
C1055  H1087   1.084   .     S
C1055  C1060   1.396   .     A
C1055  C1197   1.370   1_455 S
C1056  C1059   1.396   .     A
C1056  H1088   1.084   .     S
C1056  C1128   1.370   .     S
C1057  C1059   1.396   .     A
C1057  H1089   1.084   .     S
C1057  C1125   1.370   .     S
C1058  H1090   1.084   .     S
C1058  C1060   1.396   .     A
C1058  C1196   1.370   1_455 S
C1061  H1091   1.082   .     S
C1061  N1096   1.366   .     A
C1062  H1092   1.082   .     S
C1062  N1095   1.366   .     A
C1062  C643    1.417   1_565 S
C1063  N1096   1.366   .     A
C1063  H1093   1.082   .     S
C1064  H1094   1.082   .     S
C1064  N1095   1.366   .     A
C1064  C641    1.417   1_565 S
C1065  O1101   1.283   .     A
C1065  C1070   1.421   .     S
C1065  O1104   1.281   .     A
C1066  O1102   1.283   .     A
C1066  C1069   1.421   .     S
C1066  O1103   1.281   .     A
C1067  C1069   1.386   .     A
C1067  H1081   1.087   .     S
C1067  C1077   1.376   .     A
C1068  H1082   1.087   .     S
C1068  C1078   1.376   .     A
C1068  C1070   1.386   .     A
C1069  C1071   1.410   .     A
C1070  C1072   1.410   .     A
C1071  C1107   1.528   .     S
C1071  C1073   1.411   .     A
C1072  C1074   1.411   .     A
C1072  C1114   1.528   .     S
C1073  C1075   1.424   .     A
C1073  C1079   1.408   .     A
C1074  C1076   1.424   .     A
C1074  C1080   1.408   .     A
C1075  C1077   1.409   .     A
C1075  C446    1.401   1_556 S
C1076  C1078   1.409   .     A
C1079  H1083   1.079   .     S
C1079  C423    1.384   1_556 S
C1080  H1084   1.079   .     S
N1095  Zn1105  2.010   .     S
N1096  Zn1106  2.010   .     S
O1097  Zn1105  1.996   .     S
O1098  Zn1106  1.996   .     S
O1099  Zn1105  1.995   .     S
O1100  Zn1106  1.995   .     S
O1101  Zn1105  2.005   .     S
O1102  Zn1106  2.005   .     S
O1103  Zn1105  2.010   .     S
O1104  Zn1106  2.010   .     S
C1107  H1112   1.109   .     S
C1107  C1108   1.526   .     S
C1107  H1113   1.108   .     S
C1108  H1110   1.110   .     S
C1108  H1111   1.111   .     S
C1108  H1109   1.111   .     S
C1114  H1120   1.109   .     S
C1114  C1115   1.527   .     S
C1114  H1119   1.107   .     S
C1115  H1117   1.111   .     S
C1115  H1118   1.111   .     S
C1115  H1116   1.110   .     S
C1121  O1170   1.282   .     A
C1121  O1167   1.282   .     A
C1121  C1130   1.416   .     S
C1122  O1169   1.282   .     A
C1122  O1168   1.282   .     A
C1122  C1129   1.416   .     S
C1123  H1155   1.084   .     S
C1123  C1148   1.394   .     A
C1124  H1156   1.084   .     S
C1124  C1147   1.394   .     A
C1124  C520    1.384   1_556 S
C1125  H1157   1.084   .     S
C1125  C1130   1.396   .     A
C1126  C1129   1.396   .     A
C1126  H1158   1.084   .     S
C1126  C1198   1.370   .     S
C1127  C1129   1.396   .     A
C1127  H1159   1.084   .     S
C1127  C1195   1.370   .     S
C1128  H1160   1.084   .     S
C1128  C1130   1.396   .     A
C1131  H1161   1.082   .     S
C1131  N1166   1.366   .     A
C1132  H1162   1.082   .     S
C1132  N1165   1.366   .     A
C1132  C713    1.417   1_565 S
C1133  N1166   1.366   .     A
C1133  H1163   1.082   .     S
C1134  H1164   1.082   .     S
C1134  N1165   1.366   .     A
C1134  C711    1.417   1_565 S
C1135  O1171   1.283   .     A
C1135  C1140   1.421   .     S
C1135  O1174   1.281   .     A
C1136  O1172   1.283   .     A
C1136  C1139   1.421   .     S
C1136  O1173   1.281   .     A
C1137  C1139   1.386   .     A
C1137  H1151   1.087   .     S
C1137  C1147   1.376   .     A
C1138  H1152   1.087   .     S
C1138  C1148   1.376   .     A
C1138  C1140   1.386   .     A
C1139  C1141   1.410   .     A
C1140  C1142   1.410   .     A
C1141  C1177   1.528   .     S
C1141  C1143   1.411   .     A
C1142  C1144   1.411   .     A
C1142  C1184   1.528   .     S
C1143  C1145   1.424   .     A
C1143  C1149   1.408   .     A
C1144  C1146   1.424   .     A
C1144  C1150   1.408   .     A
C1145  C1147   1.409   .     A
C1145  C516    1.401   1_556 S
C1146  C1148   1.409   .     A
C1149  H1153   1.079   .     S
C1149  C493    1.384   1_556 S
C1150  H1154   1.079   .     S
N1165  Zn1175  2.010   .     S
N1166  Zn1176  2.010   .     S
O1167  Zn1175  1.996   .     S
O1168  Zn1176  1.996   .     S
O1169  Zn1175  1.995   .     S
O1170  Zn1176  1.995   .     S
O1171  Zn1175  2.005   .     S
O1172  Zn1176  2.005   .     S
O1173  Zn1175  2.010   .     S
O1174  Zn1176  2.010   .     S
C1177  H1182   1.109   .     S
C1177  C1178   1.526   .     S
C1177  H1183   1.108   .     S
C1178  H1180   1.110   .     S
C1178  H1181   1.111   .     S
C1178  H1179   1.111   .     S
C1184  H1190   1.109   .     S
C1184  C1185   1.527   .     S
C1184  H1189   1.107   .     S
C1185  H1187   1.111   .     S
C1185  H1188   1.111   .     S
C1185  H1186   1.110   .     S
C1191  O1240   1.282   .     A
C1191  O1237   1.282   .     A
C1191  C1200   1.416   .     S
C1192  O1239   1.282   .     A
C1192  O1238   1.282   .     A
C1192  C1199   1.416   .     S
C1193  H1225   1.084   .     S
C1193  C1218   1.394   .     A
C1194  H1226   1.084   .     S
C1194  C1217   1.394   .     A
C1194  C590    1.384   1_556 S
C1195  H1227   1.084   .     S
C1195  C1200   1.396   .     A
C1196  C1199   1.396   .     A
C1196  H1228   1.084   .     S
C1196  C1058   1.370   1_655 S
C1197  C1199   1.396   .     A
C1197  H1229   1.084   .     S
C1197  C1055   1.370   1_655 S
C1198  H1230   1.084   .     S
C1198  C1200   1.396   .     A
C1201  H1231   1.082   .     S
C1201  N1236   1.366   .     A
C1202  H1232   1.082   .     S
C1202  N1235   1.366   .     A
C1202  C783    1.417   1_565 S
C1203  N1236   1.366   .     A
C1203  H1233   1.082   .     S
C1204  H1234   1.082   .     S
C1204  N1235   1.366   .     A
C1204  C781    1.417   1_565 S
C1205  O1241   1.283   .     A
C1205  C1210   1.421   .     S
C1205  O1244   1.281   .     A
C1206  O1242   1.283   .     A
C1206  C1209   1.421   .     S
C1206  O1243   1.281   .     A
C1207  C1209   1.386   .     A
C1207  H1221   1.087   .     S
C1207  C1217   1.376   .     A
C1208  H1222   1.087   .     S
C1208  C1218   1.376   .     A
C1208  C1210   1.386   .     A
C1209  C1211   1.410   .     A
C1210  C1212   1.410   .     A
C1211  C1247   1.528   .     S
C1211  C1213   1.411   .     A
C1212  C1214   1.411   .     A
C1212  C1254   1.528   .     S
C1213  C1215   1.424   .     A
C1213  C1219   1.408   .     A
C1214  C1216   1.424   .     A
C1214  C1220   1.408   .     A
C1215  C1217   1.409   .     A
C1215  C586    1.401   1_556 S
C1216  C1218   1.409   .     A
C1219  H1223   1.079   .     S
C1219  C563    1.384   1_556 S
C1220  H1224   1.079   .     S
N1235  Zn1245  2.010   .     S
N1236  Zn1246  2.010   .     S
O1237  Zn1245  1.996   .     S
O1238  Zn1246  1.996   .     S
O1239  Zn1245  1.995   .     S
O1240  Zn1246  1.995   .     S
O1241  Zn1245  2.005   .     S
O1242  Zn1246  2.005   .     S
O1243  Zn1245  2.010   .     S
O1244  Zn1246  2.010   .     S
C1247  H1252   1.109   .     S
C1247  C1248   1.526   .     S
C1247  H1253   1.108   .     S
C1248  H1250   1.110   .     S
C1248  H1251   1.111   .     S
C1248  H1249   1.111   .     S
C1254  H1260   1.109   .     S
C1254  C1255   1.527   .     S
C1254  H1259   1.107   .     S
C1255  H1257   1.111   .     S
C1255  H1258   1.111   .     S
C1255  H1256   1.110   .     S
