data_str_m3_o1_o1_pcu_sym.34
_audit_creation_date              2020-01-03
_audit_creation_method            'Materials Studio'
_symmetry_space_group_name_H-M    'P1'
_symmetry_Int_Tables_number       1
_symmetry_cell_setting            triclinic
loop_
_symmetry_equiv_pos_as_xyz
  x,y,z
_cell_length_a                    30.2282
_cell_length_b                    30.0887
_cell_length_c                    29.7891
_cell_angle_alpha                 90.0000
_cell_angle_beta                  90.0001
_cell_angle_gamma                 90.1475
loop_
_atom_site_label
_atom_site_type_symbol
_atom_site_fract_x
_atom_site_fract_y
_atom_site_fract_z
_atom_site_U_iso_or_equiv
_atom_site_adp_type
_atom_site_occupancy
C1     C     0.06001   0.19013   0.16669   0.00000  Uiso   1.00
C2     C     0.49765   0.21090   0.30921   0.00000  Uiso   1.00
C3     C     0.00046   0.21085   0.02416   0.00000  Uiso   1.00
C4     C     0.00235   0.28910   0.30921   0.00000  Uiso   1.00
C5     C     0.27590   0.02910   0.02378   0.00000  Uiso   1.00
C6     C     0.22146   0.47350   0.30957   0.00000  Uiso   1.00
C7     C     0.22410   0.47090   0.02378   0.00000  Uiso   1.00
C8     C     0.27854   0.02650   0.30957   0.00000  Uiso   1.00
C9     C     0.40572   0.12634   0.13152   0.00000  Uiso   1.00
C10    C     0.12422   0.34347   0.20123   0.00000  Uiso   1.00
C11    C     0.09428   0.37366   0.13152   0.00000  Uiso   1.00
C12    C     0.43999   0.30987   0.16669   0.00000  Uiso   1.00
C13    C     0.37578   0.15653   0.20123   0.00000  Uiso   1.00
C14    C     0.09645   0.12848   0.20352   0.00000  Uiso   1.00
C15    C     0.37784   0.34561   0.13038   0.00000  Uiso   1.00
C16    C     0.40355   0.37152   0.20352   0.00000  Uiso   1.00
C17    C     0.12216   0.15439   0.13038   0.00000  Uiso   1.00
C18    C     0.12637   0.40592   0.13159   0.00000  Uiso   1.00
C19    C     0.34372   0.12423   0.20134   0.00000  Uiso   1.00
C20    C     0.37363   0.09408   0.13159   0.00000  Uiso   1.00
C21    C     0.15628   0.37577   0.20134   0.00000  Uiso   1.00
C22    C     0.37145   0.40364   0.20352   0.00000  Uiso   1.00
C23    C     0.44001   0.19013   0.16664   0.00000  Uiso   1.00
C24    C     0.15401   0.12203   0.13019   0.00000  Uiso   1.00
C25    C     0.12855   0.09636   0.20352   0.00000  Uiso   1.00
C26    C     0.34599   0.37797   0.13019   0.00000  Uiso   1.00
C27    C     0.09328   0.34283   0.16650   0.00000  Uiso   1.00
C28    C     0.40672   0.15717   0.16650   0.00000  Uiso   1.00
C29    C     0.40668   0.34282   0.16684   0.00000  Uiso   1.00
C30    C     0.09332   0.15718   0.16684   0.00000  Uiso   1.00
C31    C     0.34294   0.09318   0.16658   0.00000  Uiso   1.00
C32    C     0.15706   0.40682   0.16658   0.00000  Uiso   1.00
C33    C     0.15703   0.09319   0.16675   0.00000  Uiso   1.00
C34    C     0.05999   0.30987   0.16664   0.00000  Uiso   1.00
C35    C     0.34297   0.40681   0.16675   0.00000  Uiso   1.00
C36    C     0.45826   0.35070   0.03982   0.00000  Uiso   1.00
C37    C     0.45329   0.15142   0.29334   0.00000  Uiso   1.00
C38    C     0.04174   0.14930   0.03982   0.00000  Uiso   1.00
C39    C     0.04671   0.34858   0.29334   0.00000  Uiso   1.00
C40    C     0.27955   0.10102   0.04530   0.00000  Uiso   1.00
C41    C     0.14981   0.46819   0.28844   0.00000  Uiso   1.00
C42    C     0.22045   0.39898   0.04530   0.00000  Uiso   1.00
C43    C     0.35019   0.03181   0.28844   0.00000  Uiso   1.00
C44    C     0.30993   0.44005   0.16668   0.00000  Uiso   1.00
C45    C     0.19007   0.05995   0.16668   0.00000  Uiso   1.00
C46    C     0.19009   0.44005   0.16665   0.00000  Uiso   1.00
C47    C     0.30991   0.05995   0.16666   0.00000  Uiso   1.00
C48    C     0.49954   0.28915   0.02416   0.00000  Uiso   1.00
H49    H     0.42999   0.12688   0.10472   0.00000  Uiso   1.00
H50    H     0.31934   0.12384   0.22801   0.00000  Uiso   1.00
H51    H     0.37310   0.06963   0.10488   0.00000  Uiso   1.00
H52    H     0.18066   0.37616   0.22801   0.00000  Uiso   1.00
H53    H     0.36925   0.42621   0.23176   0.00000  Uiso   1.00
H54    H     0.17652   0.11996   0.10197   0.00000  Uiso   1.00
H55    H     0.13075   0.07379   0.23176   0.00000  Uiso   1.00
H56    H     0.32348   0.38004   0.10197   0.00000  Uiso   1.00
H57    H     0.45242   0.37465   0.06750   0.00000  Uiso   1.00
H58    H     0.42931   0.32770   0.03874   0.00000  Uiso   1.00
H59    H     0.46014   0.37019   0.00827   0.00000  Uiso   1.00
H60    H     0.12389   0.31880   0.22772   0.00000  Uiso   1.00
H61    H     0.44695   0.12679   0.26638   0.00000  Uiso   1.00
H62    H     0.42554   0.17573   0.29281   0.00000  Uiso   1.00
H63    H     0.45336   0.13297   0.32559   0.00000  Uiso   1.00
H64    H     0.04758   0.12535   0.06750   0.00000  Uiso   1.00
H65    H     0.07069   0.17230   0.03874   0.00000  Uiso   1.00
H66    H     0.03986   0.12980   0.00827   0.00000  Uiso   1.00
H67    H     0.05305   0.37321   0.26638   0.00000  Uiso   1.00
H68    H     0.07446   0.32427   0.29281   0.00000  Uiso   1.00
H69    H     0.04664   0.36703   0.32559   0.00000  Uiso   1.00
H70    H     0.29930   0.12537   0.06487   0.00000  Uiso   1.00
H71    H     0.07001   0.37312   0.10472   0.00000  Uiso   1.00
H72    H     0.24645   0.09849   0.06147   0.00000  Uiso   1.00
H73    H     0.27631   0.11422   0.01058   0.00000  Uiso   1.00
H74    H     0.12589   0.44772   0.26913   0.00000  Uiso   1.00
H75    H     0.15138   0.00148   0.27220   0.00000  Uiso   1.00
H76    H     0.13688   0.47117   0.32327   0.00000  Uiso   1.00
H77    H     0.20070   0.37463   0.06488   0.00000  Uiso   1.00
H78    H     0.25356   0.40151   0.06146   0.00000  Uiso   1.00
H79    H     0.22368   0.38578   0.01058   0.00000  Uiso   1.00
H80    H     0.37411   0.05228   0.26913   0.00000  Uiso   1.00
H81    H     0.34862   0.49852   0.27220   0.00000  Uiso   1.00
H82    H     0.37612   0.18120   0.22772   0.00000  Uiso   1.00
H83    H     0.36312   0.02883   0.32327   0.00000  Uiso   1.00
H84    H     0.07390   0.13056   0.23173   0.00000  Uiso   1.00
H85    H     0.37961   0.32260   0.10249   0.00000  Uiso   1.00
H86    H     0.42610   0.36944   0.23173   0.00000  Uiso   1.00
H87    H     0.12039   0.17740   0.10249   0.00000  Uiso   1.00
H88    H     0.12690   0.43037   0.10488   0.00000  Uiso   1.00
N89    N     0.00000   0.25000   0.28573   0.00000  Uiso   1.00
N90    N     0.00000   0.25000   0.04760   0.00000  Uiso   1.00
N91    N     0.25000   0.00000   0.28573   0.00000  Uiso   1.00
N92    N     0.25000   0.00000   0.04760   0.00000  Uiso   1.00
O93    O     0.04581   0.20419   0.20487   0.00000  Uiso   1.00
O94    O     0.20420   0.04581   0.12846   0.00000  Uiso   1.00
O95    O     0.20420   0.04581   0.20487   0.00000  Uiso   1.00
O96    O     0.29581   0.45419   0.12846   0.00000  Uiso   1.00
O97    O     0.20420   0.45419   0.12846   0.00000  Uiso   1.00
O98    O     0.29581   0.04581   0.20487   0.00000  Uiso   1.00
O99    O     0.29581   0.04581   0.12846   0.00000  Uiso   1.00
O100   O     0.20420   0.45419   0.20487   0.00000  Uiso   1.00
O101   O     0.49850   0.32845   0.04821   0.00000  Uiso   1.00
O102   O     0.49476   0.17163   0.28525   0.00000  Uiso   1.00
O103   O     0.00150   0.17155   0.04821   0.00000  Uiso   1.00
O104   O     0.45420   0.29581   0.12846   0.00000  Uiso   1.00
O105   O     0.00524   0.32837   0.28525   0.00000  Uiso   1.00
O106   O     0.30176   0.05985   0.04582   0.00000  Uiso   1.00
O107   O     0.19134   0.44692   0.28755   0.00000  Uiso   1.00
O108   O     0.19825   0.44015   0.04582   0.00000  Uiso   1.00
O109   O     0.30866   0.05308   0.28755   0.00000  Uiso   1.00
O110   O     0.45420   0.29581   0.20487   0.00000  Uiso   1.00
O111   O     0.04581   0.20419   0.12846   0.00000  Uiso   1.00
O112   O     0.45420   0.20419   0.12846   0.00000  Uiso   1.00
O113   O     0.04581   0.29581   0.20487   0.00000  Uiso   1.00
O114   O     0.04581   0.29581   0.12846   0.00000  Uiso   1.00
O115   O     0.45420   0.20419   0.20487   0.00000  Uiso   1.00
O116   O     0.29581   0.45419   0.20487   0.00000  Uiso   1.00
Zn117  Zn    0.00000   0.25000   0.21771   0.00000  Uiso   1.00
Zn118  Zn    0.00000   0.25000   0.11563   0.00000  Uiso   1.00
Zn119  Zn    0.25000   0.00000   0.21771   0.00000  Uiso   1.00
Zn120  Zn    0.25000   0.00000   0.11563   0.00000  Uiso   1.00
C121   C     0.56001   0.19013   0.16669   0.00000  Uiso   1.00
C122   C     0.99765   0.21090   0.30921   0.00000  Uiso   1.00
C123   C     0.50046   0.21085   0.02416   0.00000  Uiso   1.00
C124   C     0.50235   0.28910   0.30921   0.00000  Uiso   1.00
C125   C     0.77590   0.02910   0.02378   0.00000  Uiso   1.00
C126   C     0.72146   0.47350   0.30957   0.00000  Uiso   1.00
C127   C     0.72410   0.47090   0.02378   0.00000  Uiso   1.00
C128   C     0.77854   0.02650   0.30957   0.00000  Uiso   1.00
C129   C     0.90572   0.12634   0.13152   0.00000  Uiso   1.00
C130   C     0.62422   0.34347   0.20123   0.00000  Uiso   1.00
C131   C     0.59428   0.37366   0.13152   0.00000  Uiso   1.00
C132   C     0.93999   0.30987   0.16669   0.00000  Uiso   1.00
C133   C     0.87578   0.15653   0.20123   0.00000  Uiso   1.00
C134   C     0.59645   0.12848   0.20352   0.00000  Uiso   1.00
C135   C     0.87784   0.34561   0.13038   0.00000  Uiso   1.00
C136   C     0.90355   0.37152   0.20352   0.00000  Uiso   1.00
C137   C     0.62216   0.15439   0.13038   0.00000  Uiso   1.00
C138   C     0.62637   0.40592   0.13159   0.00000  Uiso   1.00
C139   C     0.84372   0.12423   0.20134   0.00000  Uiso   1.00
C140   C     0.87363   0.09408   0.13159   0.00000  Uiso   1.00
C141   C     0.65628   0.37577   0.20134   0.00000  Uiso   1.00
C142   C     0.87145   0.40364   0.20352   0.00000  Uiso   1.00
C143   C     0.94001   0.19013   0.16664   0.00000  Uiso   1.00
C144   C     0.65401   0.12203   0.13019   0.00000  Uiso   1.00
C145   C     0.62855   0.09636   0.20352   0.00000  Uiso   1.00
C146   C     0.84599   0.37797   0.13019   0.00000  Uiso   1.00
C147   C     0.59328   0.34283   0.16650   0.00000  Uiso   1.00
C148   C     0.90672   0.15717   0.16650   0.00000  Uiso   1.00
C149   C     0.90668   0.34282   0.16684   0.00000  Uiso   1.00
C150   C     0.59332   0.15718   0.16684   0.00000  Uiso   1.00
C151   C     0.84294   0.09318   0.16658   0.00000  Uiso   1.00
C152   C     0.65706   0.40682   0.16658   0.00000  Uiso   1.00
C153   C     0.65703   0.09319   0.16675   0.00000  Uiso   1.00
C154   C     0.55999   0.30987   0.16664   0.00000  Uiso   1.00
C155   C     0.84297   0.40681   0.16675   0.00000  Uiso   1.00
C156   C     0.95826   0.35070   0.03982   0.00000  Uiso   1.00
C157   C     0.95329   0.15142   0.29334   0.00000  Uiso   1.00
C158   C     0.54174   0.14930   0.03982   0.00000  Uiso   1.00
C159   C     0.54671   0.34858   0.29334   0.00000  Uiso   1.00
C160   C     0.77955   0.10102   0.04530   0.00000  Uiso   1.00
C161   C     0.64981   0.46819   0.28844   0.00000  Uiso   1.00
C162   C     0.72045   0.39898   0.04530   0.00000  Uiso   1.00
C163   C     0.85019   0.03181   0.28844   0.00000  Uiso   1.00
C164   C     0.80993   0.44005   0.16668   0.00000  Uiso   1.00
C165   C     0.69007   0.05995   0.16668   0.00000  Uiso   1.00
C166   C     0.69009   0.44005   0.16665   0.00000  Uiso   1.00
C167   C     0.80991   0.05995   0.16666   0.00000  Uiso   1.00
C168   C     0.99954   0.28915   0.02416   0.00000  Uiso   1.00
H169   H     0.92999   0.12688   0.10472   0.00000  Uiso   1.00
H170   H     0.81934   0.12384   0.22801   0.00000  Uiso   1.00
H171   H     0.87310   0.06963   0.10488   0.00000  Uiso   1.00
H172   H     0.68066   0.37616   0.22801   0.00000  Uiso   1.00
H173   H     0.86925   0.42621   0.23176   0.00000  Uiso   1.00
H174   H     0.67652   0.11996   0.10197   0.00000  Uiso   1.00
H175   H     0.63075   0.07379   0.23176   0.00000  Uiso   1.00
H176   H     0.82348   0.38004   0.10197   0.00000  Uiso   1.00
H177   H     0.95242   0.37465   0.06750   0.00000  Uiso   1.00
H178   H     0.92931   0.32770   0.03874   0.00000  Uiso   1.00
H179   H     0.96014   0.37019   0.00827   0.00000  Uiso   1.00
H180   H     0.62389   0.31880   0.22772   0.00000  Uiso   1.00
H181   H     0.94695   0.12679   0.26638   0.00000  Uiso   1.00
H182   H     0.92554   0.17573   0.29281   0.00000  Uiso   1.00
H183   H     0.95336   0.13297   0.32559   0.00000  Uiso   1.00
H184   H     0.54758   0.12535   0.06750   0.00000  Uiso   1.00
H185   H     0.57069   0.17230   0.03874   0.00000  Uiso   1.00
H186   H     0.53986   0.12980   0.00827   0.00000  Uiso   1.00
H187   H     0.55305   0.37321   0.26638   0.00000  Uiso   1.00
H188   H     0.57446   0.32427   0.29281   0.00000  Uiso   1.00
H189   H     0.54664   0.36703   0.32559   0.00000  Uiso   1.00
H190   H     0.79930   0.12537   0.06487   0.00000  Uiso   1.00
H191   H     0.57001   0.37312   0.10472   0.00000  Uiso   1.00
H192   H     0.74645   0.09849   0.06147   0.00000  Uiso   1.00
H193   H     0.77631   0.11422   0.01058   0.00000  Uiso   1.00
H194   H     0.62589   0.44772   0.26913   0.00000  Uiso   1.00
H195   H     0.65138   0.00148   0.27220   0.00000  Uiso   1.00
H196   H     0.63688   0.47117   0.32327   0.00000  Uiso   1.00
H197   H     0.70070   0.37463   0.06488   0.00000  Uiso   1.00
H198   H     0.75356   0.40151   0.06146   0.00000  Uiso   1.00
H199   H     0.72368   0.38578   0.01058   0.00000  Uiso   1.00
H200   H     0.87411   0.05228   0.26913   0.00000  Uiso   1.00
H201   H     0.84862   0.49852   0.27220   0.00000  Uiso   1.00
H202   H     0.87612   0.18120   0.22772   0.00000  Uiso   1.00
H203   H     0.86312   0.02883   0.32327   0.00000  Uiso   1.00
H204   H     0.57390   0.13056   0.23173   0.00000  Uiso   1.00
H205   H     0.87961   0.32260   0.10249   0.00000  Uiso   1.00
H206   H     0.92610   0.36944   0.23173   0.00000  Uiso   1.00
H207   H     0.62039   0.17740   0.10249   0.00000  Uiso   1.00
H208   H     0.62690   0.43037   0.10488   0.00000  Uiso   1.00
N209   N     0.50000   0.25000   0.28573   0.00000  Uiso   1.00
N210   N     0.50000   0.25000   0.04760   0.00000  Uiso   1.00
N211   N     0.75000   0.00000   0.28573   0.00000  Uiso   1.00
N212   N     0.75000   0.00000   0.04760   0.00000  Uiso   1.00
O213   O     0.54581   0.20419   0.20487   0.00000  Uiso   1.00
O214   O     0.70420   0.04581   0.12846   0.00000  Uiso   1.00
O215   O     0.70420   0.04581   0.20487   0.00000  Uiso   1.00
O216   O     0.79581   0.45419   0.12846   0.00000  Uiso   1.00
O217   O     0.70420   0.45419   0.12846   0.00000  Uiso   1.00
O218   O     0.79581   0.04581   0.20487   0.00000  Uiso   1.00
O219   O     0.79581   0.04581   0.12846   0.00000  Uiso   1.00
O220   O     0.70420   0.45419   0.20487   0.00000  Uiso   1.00
O221   O     0.99850   0.32845   0.04821   0.00000  Uiso   1.00
O222   O     0.99476   0.17163   0.28525   0.00000  Uiso   1.00
O223   O     0.50150   0.17155   0.04821   0.00000  Uiso   1.00
O224   O     0.95420   0.29581   0.12846   0.00000  Uiso   1.00
O225   O     0.50524   0.32837   0.28525   0.00000  Uiso   1.00
O226   O     0.80176   0.05985   0.04582   0.00000  Uiso   1.00
O227   O     0.69134   0.44692   0.28755   0.00000  Uiso   1.00
O228   O     0.69825   0.44015   0.04582   0.00000  Uiso   1.00
O229   O     0.80866   0.05308   0.28755   0.00000  Uiso   1.00
O230   O     0.95420   0.29581   0.20487   0.00000  Uiso   1.00
O231   O     0.54581   0.20419   0.12846   0.00000  Uiso   1.00
O232   O     0.95420   0.20419   0.12846   0.00000  Uiso   1.00
O233   O     0.54581   0.29581   0.20487   0.00000  Uiso   1.00
O234   O     0.54581   0.29581   0.12846   0.00000  Uiso   1.00
O235   O     0.95420   0.20419   0.20487   0.00000  Uiso   1.00
O236   O     0.79581   0.45419   0.20487   0.00000  Uiso   1.00
Zn237  Zn    0.50000   0.25000   0.21771   0.00000  Uiso   1.00
Zn238  Zn    0.50000   0.25000   0.11563   0.00000  Uiso   1.00
Zn239  Zn    0.75000   0.00000   0.21771   0.00000  Uiso   1.00
Zn240  Zn    0.75000   0.00000   0.11563   0.00000  Uiso   1.00
C241   C     0.06001   0.69013   0.16669   0.00000  Uiso   1.00
C242   C     0.49765   0.71090   0.30921   0.00000  Uiso   1.00
C243   C     0.00046   0.71085   0.02416   0.00000  Uiso   1.00
C244   C     0.00235   0.78910   0.30921   0.00000  Uiso   1.00
C245   C     0.27590   0.52910   0.02378   0.00000  Uiso   1.00
C246   C     0.22146   0.97350   0.30957   0.00000  Uiso   1.00
C247   C     0.22410   0.97090   0.02378   0.00000  Uiso   1.00
C248   C     0.27854   0.52650   0.30957   0.00000  Uiso   1.00
C249   C     0.40572   0.62634   0.13152   0.00000  Uiso   1.00
C250   C     0.12422   0.84347   0.20123   0.00000  Uiso   1.00
C251   C     0.09428   0.87366   0.13152   0.00000  Uiso   1.00
C252   C     0.43999   0.80987   0.16669   0.00000  Uiso   1.00
C253   C     0.37578   0.65653   0.20123   0.00000  Uiso   1.00
C254   C     0.09645   0.62848   0.20352   0.00000  Uiso   1.00
C255   C     0.37784   0.84561   0.13038   0.00000  Uiso   1.00
C256   C     0.40355   0.87152   0.20352   0.00000  Uiso   1.00
C257   C     0.12216   0.65439   0.13038   0.00000  Uiso   1.00
C258   C     0.12637   0.90592   0.13159   0.00000  Uiso   1.00
C259   C     0.34372   0.62423   0.20134   0.00000  Uiso   1.00
C260   C     0.37363   0.59408   0.13159   0.00000  Uiso   1.00
C261   C     0.15628   0.87577   0.20134   0.00000  Uiso   1.00
C262   C     0.37145   0.90364   0.20352   0.00000  Uiso   1.00
C263   C     0.44001   0.69013   0.16664   0.00000  Uiso   1.00
C264   C     0.15401   0.62203   0.13019   0.00000  Uiso   1.00
C265   C     0.12855   0.59636   0.20352   0.00000  Uiso   1.00
C266   C     0.34599   0.87797   0.13019   0.00000  Uiso   1.00
C267   C     0.09328   0.84283   0.16650   0.00000  Uiso   1.00
C268   C     0.40672   0.65717   0.16650   0.00000  Uiso   1.00
C269   C     0.40668   0.84282   0.16684   0.00000  Uiso   1.00
C270   C     0.09332   0.65718   0.16684   0.00000  Uiso   1.00
C271   C     0.34294   0.59318   0.16658   0.00000  Uiso   1.00
C272   C     0.15706   0.90682   0.16658   0.00000  Uiso   1.00
C273   C     0.15703   0.59319   0.16675   0.00000  Uiso   1.00
C274   C     0.05999   0.80987   0.16664   0.00000  Uiso   1.00
C275   C     0.34297   0.90681   0.16675   0.00000  Uiso   1.00
C276   C     0.45826   0.85070   0.03982   0.00000  Uiso   1.00
C277   C     0.45329   0.65142   0.29334   0.00000  Uiso   1.00
C278   C     0.04174   0.64930   0.03982   0.00000  Uiso   1.00
C279   C     0.04671   0.84858   0.29334   0.00000  Uiso   1.00
C280   C     0.27955   0.60102   0.04530   0.00000  Uiso   1.00
C281   C     0.14981   0.96819   0.28844   0.00000  Uiso   1.00
C282   C     0.22045   0.89898   0.04530   0.00000  Uiso   1.00
C283   C     0.35019   0.53181   0.28844   0.00000  Uiso   1.00
C284   C     0.30993   0.94005   0.16668   0.00000  Uiso   1.00
C285   C     0.19007   0.55995   0.16668   0.00000  Uiso   1.00
C286   C     0.19009   0.94005   0.16665   0.00000  Uiso   1.00
C287   C     0.30991   0.55995   0.16666   0.00000  Uiso   1.00
C288   C     0.49954   0.78915   0.02416   0.00000  Uiso   1.00
H289   H     0.42999   0.62688   0.10472   0.00000  Uiso   1.00
H290   H     0.31934   0.62384   0.22801   0.00000  Uiso   1.00
H291   H     0.37310   0.56963   0.10488   0.00000  Uiso   1.00
H292   H     0.18066   0.87616   0.22801   0.00000  Uiso   1.00
H293   H     0.36925   0.92621   0.23176   0.00000  Uiso   1.00
H294   H     0.17652   0.61996   0.10197   0.00000  Uiso   1.00
H295   H     0.13075   0.57379   0.23176   0.00000  Uiso   1.00
H296   H     0.32348   0.88004   0.10197   0.00000  Uiso   1.00
H297   H     0.45242   0.87465   0.06750   0.00000  Uiso   1.00
H298   H     0.42931   0.82770   0.03874   0.00000  Uiso   1.00
H299   H     0.46014   0.87019   0.00827   0.00000  Uiso   1.00
H300   H     0.12389   0.81880   0.22772   0.00000  Uiso   1.00
H301   H     0.44695   0.62679   0.26638   0.00000  Uiso   1.00
H302   H     0.42554   0.67573   0.29281   0.00000  Uiso   1.00
H303   H     0.45336   0.63297   0.32559   0.00000  Uiso   1.00
H304   H     0.04758   0.62535   0.06750   0.00000  Uiso   1.00
H305   H     0.07069   0.67230   0.03874   0.00000  Uiso   1.00
H306   H     0.03986   0.62980   0.00827   0.00000  Uiso   1.00
H307   H     0.05305   0.87321   0.26638   0.00000  Uiso   1.00
H308   H     0.07446   0.82427   0.29281   0.00000  Uiso   1.00
H309   H     0.04664   0.86703   0.32559   0.00000  Uiso   1.00
H310   H     0.29930   0.62537   0.06487   0.00000  Uiso   1.00
H311   H     0.07001   0.87312   0.10472   0.00000  Uiso   1.00
H312   H     0.24645   0.59849   0.06147   0.00000  Uiso   1.00
H313   H     0.27631   0.61422   0.01058   0.00000  Uiso   1.00
H314   H     0.12589   0.94772   0.26913   0.00000  Uiso   1.00
H315   H     0.15138   0.50148   0.27220   0.00000  Uiso   1.00
H316   H     0.13688   0.97117   0.32327   0.00000  Uiso   1.00
H317   H     0.20070   0.87463   0.06488   0.00000  Uiso   1.00
H318   H     0.25356   0.90151   0.06146   0.00000  Uiso   1.00
H319   H     0.22368   0.88578   0.01058   0.00000  Uiso   1.00
H320   H     0.37411   0.55228   0.26913   0.00000  Uiso   1.00
H321   H     0.34862   0.99852   0.27220   0.00000  Uiso   1.00
H322   H     0.37612   0.68120   0.22772   0.00000  Uiso   1.00
H323   H     0.36312   0.52883   0.32327   0.00000  Uiso   1.00
H324   H     0.07390   0.63056   0.23173   0.00000  Uiso   1.00
H325   H     0.37961   0.82260   0.10249   0.00000  Uiso   1.00
H326   H     0.42610   0.86944   0.23173   0.00000  Uiso   1.00
H327   H     0.12039   0.67740   0.10249   0.00000  Uiso   1.00
H328   H     0.12690   0.93037   0.10488   0.00000  Uiso   1.00
N329   N     0.00000   0.75000   0.28573   0.00000  Uiso   1.00
N330   N     0.00000   0.75000   0.04760   0.00000  Uiso   1.00
N331   N     0.25000   0.50000   0.28573   0.00000  Uiso   1.00
N332   N     0.25000   0.50000   0.04760   0.00000  Uiso   1.00
O333   O     0.04581   0.70419   0.20487   0.00000  Uiso   1.00
O334   O     0.20420   0.54581   0.12846   0.00000  Uiso   1.00
O335   O     0.20420   0.54581   0.20487   0.00000  Uiso   1.00
O336   O     0.29581   0.95419   0.12846   0.00000  Uiso   1.00
O337   O     0.20420   0.95419   0.12846   0.00000  Uiso   1.00
O338   O     0.29581   0.54581   0.20487   0.00000  Uiso   1.00
O339   O     0.29581   0.54581   0.12846   0.00000  Uiso   1.00
O340   O     0.20420   0.95419   0.20487   0.00000  Uiso   1.00
O341   O     0.49850   0.82845   0.04821   0.00000  Uiso   1.00
O342   O     0.49476   0.67163   0.28525   0.00000  Uiso   1.00
O343   O     0.00150   0.67155   0.04821   0.00000  Uiso   1.00
O344   O     0.45420   0.79581   0.12846   0.00000  Uiso   1.00
O345   O     0.00524   0.82837   0.28525   0.00000  Uiso   1.00
O346   O     0.30176   0.55985   0.04582   0.00000  Uiso   1.00
O347   O     0.19134   0.94692   0.28755   0.00000  Uiso   1.00
O348   O     0.19825   0.94015   0.04582   0.00000  Uiso   1.00
O349   O     0.30866   0.55308   0.28755   0.00000  Uiso   1.00
O350   O     0.45420   0.79581   0.20487   0.00000  Uiso   1.00
O351   O     0.04581   0.70419   0.12846   0.00000  Uiso   1.00
O352   O     0.45420   0.70419   0.12846   0.00000  Uiso   1.00
O353   O     0.04581   0.79581   0.20487   0.00000  Uiso   1.00
O354   O     0.04581   0.79581   0.12846   0.00000  Uiso   1.00
O355   O     0.45420   0.70419   0.20487   0.00000  Uiso   1.00
O356   O     0.29581   0.95419   0.20487   0.00000  Uiso   1.00
Zn357  Zn    0.00000   0.75000   0.21771   0.00000  Uiso   1.00
Zn358  Zn    0.00000   0.75000   0.11563   0.00000  Uiso   1.00
Zn359  Zn    0.25000   0.50000   0.21771   0.00000  Uiso   1.00
Zn360  Zn    0.25000   0.50000   0.11563   0.00000  Uiso   1.00
C361   C     0.56001   0.69013   0.16669   0.00000  Uiso   1.00
C362   C     0.99765   0.71090   0.30921   0.00000  Uiso   1.00
C363   C     0.50046   0.71085   0.02416   0.00000  Uiso   1.00
C364   C     0.50235   0.78910   0.30921   0.00000  Uiso   1.00
C365   C     0.77590   0.52910   0.02378   0.00000  Uiso   1.00
C366   C     0.72146   0.97350   0.30957   0.00000  Uiso   1.00
C367   C     0.72410   0.97090   0.02378   0.00000  Uiso   1.00
C368   C     0.77854   0.52650   0.30957   0.00000  Uiso   1.00
C369   C     0.90572   0.62634   0.13152   0.00000  Uiso   1.00
C370   C     0.62422   0.84347   0.20123   0.00000  Uiso   1.00
C371   C     0.59428   0.87366   0.13152   0.00000  Uiso   1.00
C372   C     0.93999   0.80987   0.16669   0.00000  Uiso   1.00
C373   C     0.87578   0.65653   0.20123   0.00000  Uiso   1.00
C374   C     0.59645   0.62848   0.20352   0.00000  Uiso   1.00
C375   C     0.87784   0.84561   0.13038   0.00000  Uiso   1.00
C376   C     0.90355   0.87152   0.20352   0.00000  Uiso   1.00
C377   C     0.62216   0.65439   0.13038   0.00000  Uiso   1.00
C378   C     0.62637   0.90592   0.13159   0.00000  Uiso   1.00
C379   C     0.84372   0.62423   0.20134   0.00000  Uiso   1.00
C380   C     0.87363   0.59408   0.13159   0.00000  Uiso   1.00
C381   C     0.65628   0.87577   0.20134   0.00000  Uiso   1.00
C382   C     0.87145   0.90364   0.20352   0.00000  Uiso   1.00
C383   C     0.94001   0.69013   0.16664   0.00000  Uiso   1.00
C384   C     0.65401   0.62203   0.13019   0.00000  Uiso   1.00
C385   C     0.62855   0.59636   0.20352   0.00000  Uiso   1.00
C386   C     0.84599   0.87797   0.13019   0.00000  Uiso   1.00
C387   C     0.59328   0.84283   0.16650   0.00000  Uiso   1.00
C388   C     0.90672   0.65717   0.16650   0.00000  Uiso   1.00
C389   C     0.90668   0.84282   0.16684   0.00000  Uiso   1.00
C390   C     0.59332   0.65718   0.16684   0.00000  Uiso   1.00
C391   C     0.84294   0.59318   0.16658   0.00000  Uiso   1.00
C392   C     0.65706   0.90682   0.16658   0.00000  Uiso   1.00
C393   C     0.65703   0.59319   0.16675   0.00000  Uiso   1.00
C394   C     0.55999   0.80987   0.16664   0.00000  Uiso   1.00
C395   C     0.84297   0.90681   0.16675   0.00000  Uiso   1.00
C396   C     0.95826   0.85070   0.03982   0.00000  Uiso   1.00
C397   C     0.95329   0.65142   0.29334   0.00000  Uiso   1.00
C398   C     0.54174   0.64930   0.03982   0.00000  Uiso   1.00
C399   C     0.54671   0.84858   0.29334   0.00000  Uiso   1.00
C400   C     0.77955   0.60102   0.04530   0.00000  Uiso   1.00
C401   C     0.64981   0.96819   0.28844   0.00000  Uiso   1.00
C402   C     0.72045   0.89898   0.04530   0.00000  Uiso   1.00
C403   C     0.85019   0.53181   0.28844   0.00000  Uiso   1.00
C404   C     0.80993   0.94005   0.16668   0.00000  Uiso   1.00
C405   C     0.69007   0.55995   0.16668   0.00000  Uiso   1.00
C406   C     0.69009   0.94005   0.16665   0.00000  Uiso   1.00
C407   C     0.80991   0.55995   0.16666   0.00000  Uiso   1.00
C408   C     0.99954   0.78915   0.02416   0.00000  Uiso   1.00
H409   H     0.92999   0.62688   0.10472   0.00000  Uiso   1.00
H410   H     0.81934   0.62384   0.22801   0.00000  Uiso   1.00
H411   H     0.87310   0.56963   0.10488   0.00000  Uiso   1.00
H412   H     0.68066   0.87616   0.22801   0.00000  Uiso   1.00
H413   H     0.86925   0.92621   0.23176   0.00000  Uiso   1.00
H414   H     0.67652   0.61996   0.10197   0.00000  Uiso   1.00
H415   H     0.63075   0.57379   0.23176   0.00000  Uiso   1.00
H416   H     0.82348   0.88004   0.10197   0.00000  Uiso   1.00
H417   H     0.95242   0.87465   0.06750   0.00000  Uiso   1.00
H418   H     0.92931   0.82770   0.03874   0.00000  Uiso   1.00
H419   H     0.96014   0.87019   0.00827   0.00000  Uiso   1.00
H420   H     0.62389   0.81880   0.22772   0.00000  Uiso   1.00
H421   H     0.94695   0.62679   0.26638   0.00000  Uiso   1.00
H422   H     0.92554   0.67573   0.29281   0.00000  Uiso   1.00
H423   H     0.95336   0.63297   0.32559   0.00000  Uiso   1.00
H424   H     0.54758   0.62535   0.06750   0.00000  Uiso   1.00
H425   H     0.57069   0.67230   0.03874   0.00000  Uiso   1.00
H426   H     0.53986   0.62980   0.00827   0.00000  Uiso   1.00
H427   H     0.55305   0.87321   0.26638   0.00000  Uiso   1.00
H428   H     0.57446   0.82427   0.29281   0.00000  Uiso   1.00
H429   H     0.54664   0.86703   0.32559   0.00000  Uiso   1.00
H430   H     0.79930   0.62537   0.06487   0.00000  Uiso   1.00
H431   H     0.57001   0.87312   0.10472   0.00000  Uiso   1.00
H432   H     0.74645   0.59849   0.06147   0.00000  Uiso   1.00
H433   H     0.77631   0.61422   0.01058   0.00000  Uiso   1.00
H434   H     0.62589   0.94772   0.26913   0.00000  Uiso   1.00
H435   H     0.65138   0.50148   0.27220   0.00000  Uiso   1.00
H436   H     0.63688   0.97117   0.32327   0.00000  Uiso   1.00
H437   H     0.70070   0.87463   0.06488   0.00000  Uiso   1.00
H438   H     0.75356   0.90151   0.06146   0.00000  Uiso   1.00
H439   H     0.72368   0.88578   0.01058   0.00000  Uiso   1.00
H440   H     0.87411   0.55228   0.26913   0.00000  Uiso   1.00
H441   H     0.84862   0.99852   0.27220   0.00000  Uiso   1.00
H442   H     0.87612   0.68120   0.22772   0.00000  Uiso   1.00
H443   H     0.86312   0.52883   0.32327   0.00000  Uiso   1.00
H444   H     0.57390   0.63056   0.23173   0.00000  Uiso   1.00
H445   H     0.87961   0.82260   0.10249   0.00000  Uiso   1.00
H446   H     0.92610   0.86944   0.23173   0.00000  Uiso   1.00
H447   H     0.62039   0.67740   0.10249   0.00000  Uiso   1.00
H448   H     0.62690   0.93037   0.10488   0.00000  Uiso   1.00
N449   N     0.50000   0.75000   0.28573   0.00000  Uiso   1.00
N450   N     0.50000   0.75000   0.04760   0.00000  Uiso   1.00
N451   N     0.75000   0.50000   0.28573   0.00000  Uiso   1.00
N452   N     0.75000   0.50000   0.04760   0.00000  Uiso   1.00
O453   O     0.54581   0.70419   0.20487   0.00000  Uiso   1.00
O454   O     0.70420   0.54581   0.12846   0.00000  Uiso   1.00
O455   O     0.70420   0.54581   0.20487   0.00000  Uiso   1.00
O456   O     0.79581   0.95419   0.12846   0.00000  Uiso   1.00
O457   O     0.70420   0.95419   0.12846   0.00000  Uiso   1.00
O458   O     0.79581   0.54581   0.20487   0.00000  Uiso   1.00
O459   O     0.79581   0.54581   0.12846   0.00000  Uiso   1.00
O460   O     0.70420   0.95419   0.20487   0.00000  Uiso   1.00
O461   O     0.99850   0.82845   0.04821   0.00000  Uiso   1.00
O462   O     0.99476   0.67163   0.28525   0.00000  Uiso   1.00
O463   O     0.50150   0.67155   0.04821   0.00000  Uiso   1.00
O464   O     0.95420   0.79581   0.12846   0.00000  Uiso   1.00
O465   O     0.50524   0.82837   0.28525   0.00000  Uiso   1.00
O466   O     0.80176   0.55985   0.04582   0.00000  Uiso   1.00
O467   O     0.69134   0.94692   0.28755   0.00000  Uiso   1.00
O468   O     0.69825   0.94015   0.04582   0.00000  Uiso   1.00
O469   O     0.80866   0.55308   0.28755   0.00000  Uiso   1.00
O470   O     0.95420   0.79581   0.20487   0.00000  Uiso   1.00
O471   O     0.54581   0.70419   0.12846   0.00000  Uiso   1.00
O472   O     0.95420   0.70419   0.12846   0.00000  Uiso   1.00
O473   O     0.54581   0.79581   0.20487   0.00000  Uiso   1.00
O474   O     0.54581   0.79581   0.12846   0.00000  Uiso   1.00
O475   O     0.95420   0.70419   0.20487   0.00000  Uiso   1.00
O476   O     0.79581   0.95419   0.20487   0.00000  Uiso   1.00
Zn477  Zn    0.50000   0.75000   0.21771   0.00000  Uiso   1.00
Zn478  Zn    0.50000   0.75000   0.11563   0.00000  Uiso   1.00
Zn479  Zn    0.75000   0.50000   0.21771   0.00000  Uiso   1.00
Zn480  Zn    0.75000   0.50000   0.11563   0.00000  Uiso   1.00
C481   C     0.06001   0.19013   0.50003   0.00000  Uiso   1.00
C482   C     0.49765   0.21090   0.64254   0.00000  Uiso   1.00
C483   C     0.00046   0.21085   0.35750   0.00000  Uiso   1.00
C484   C     0.00235   0.28910   0.64254   0.00000  Uiso   1.00
C485   C     0.27590   0.02910   0.35711   0.00000  Uiso   1.00
C486   C     0.22146   0.47350   0.64290   0.00000  Uiso   1.00
C487   C     0.22410   0.47090   0.35711   0.00000  Uiso   1.00
C488   C     0.27854   0.02650   0.64290   0.00000  Uiso   1.00
C489   C     0.40572   0.12634   0.46485   0.00000  Uiso   1.00
C490   C     0.12422   0.34347   0.53457   0.00000  Uiso   1.00
C491   C     0.09428   0.37366   0.46485   0.00000  Uiso   1.00
C492   C     0.43999   0.30987   0.50003   0.00000  Uiso   1.00
C493   C     0.37578   0.15653   0.53457   0.00000  Uiso   1.00
C494   C     0.09645   0.12848   0.53685   0.00000  Uiso   1.00
C495   C     0.37784   0.34561   0.46371   0.00000  Uiso   1.00
C496   C     0.40355   0.37152   0.53685   0.00000  Uiso   1.00
C497   C     0.12216   0.15439   0.46371   0.00000  Uiso   1.00
C498   C     0.12637   0.40592   0.46492   0.00000  Uiso   1.00
C499   C     0.34372   0.12423   0.53468   0.00000  Uiso   1.00
C500   C     0.37363   0.09408   0.46492   0.00000  Uiso   1.00
C501   C     0.15628   0.37577   0.53468   0.00000  Uiso   1.00
C502   C     0.37145   0.40364   0.53685   0.00000  Uiso   1.00
C503   C     0.44001   0.19013   0.49998   0.00000  Uiso   1.00
C504   C     0.15401   0.12203   0.46352   0.00000  Uiso   1.00
C505   C     0.12855   0.09636   0.53685   0.00000  Uiso   1.00
C506   C     0.34599   0.37797   0.46352   0.00000  Uiso   1.00
C507   C     0.09328   0.34283   0.49983   0.00000  Uiso   1.00
C508   C     0.40672   0.15717   0.49983   0.00000  Uiso   1.00
C509   C     0.40668   0.34282   0.50017   0.00000  Uiso   1.00
C510   C     0.09332   0.15718   0.50017   0.00000  Uiso   1.00
C511   C     0.34294   0.09318   0.49991   0.00000  Uiso   1.00
C512   C     0.15706   0.40682   0.49991   0.00000  Uiso   1.00
C513   C     0.15703   0.09319   0.50009   0.00000  Uiso   1.00
C514   C     0.05999   0.30987   0.49998   0.00000  Uiso   1.00
C515   C     0.34297   0.40681   0.50009   0.00000  Uiso   1.00
C516   C     0.45826   0.35070   0.37315   0.00000  Uiso   1.00
C517   C     0.45329   0.15142   0.62668   0.00000  Uiso   1.00
C518   C     0.04174   0.14930   0.37315   0.00000  Uiso   1.00
C519   C     0.04671   0.34858   0.62668   0.00000  Uiso   1.00
C520   C     0.27955   0.10102   0.37864   0.00000  Uiso   1.00
C521   C     0.14981   0.46819   0.62177   0.00000  Uiso   1.00
C522   C     0.22045   0.39898   0.37864   0.00000  Uiso   1.00
C523   C     0.35019   0.03181   0.62177   0.00000  Uiso   1.00
C524   C     0.30993   0.44005   0.50001   0.00000  Uiso   1.00
C525   C     0.19007   0.05995   0.50001   0.00000  Uiso   1.00
C526   C     0.19009   0.44005   0.49999   0.00000  Uiso   1.00
C527   C     0.30991   0.05995   0.49999   0.00000  Uiso   1.00
C528   C     0.49954   0.28915   0.35750   0.00000  Uiso   1.00
H529   H     0.42999   0.12688   0.43806   0.00000  Uiso   1.00
H530   H     0.31934   0.12384   0.56134   0.00000  Uiso   1.00
H531   H     0.37310   0.06963   0.43822   0.00000  Uiso   1.00
H532   H     0.18066   0.37616   0.56134   0.00000  Uiso   1.00
H533   H     0.36925   0.42621   0.56509   0.00000  Uiso   1.00
H534   H     0.17652   0.11996   0.43531   0.00000  Uiso   1.00
H535   H     0.13075   0.07379   0.56509   0.00000  Uiso   1.00
H536   H     0.32348   0.38004   0.43531   0.00000  Uiso   1.00
H537   H     0.45242   0.37465   0.40083   0.00000  Uiso   1.00
H538   H     0.42931   0.32770   0.37208   0.00000  Uiso   1.00
H539   H     0.46014   0.37019   0.34160   0.00000  Uiso   1.00
H540   H     0.12389   0.31880   0.56105   0.00000  Uiso   1.00
H541   H     0.44695   0.12679   0.59971   0.00000  Uiso   1.00
H542   H     0.42554   0.17573   0.62614   0.00000  Uiso   1.00
H543   H     0.45336   0.13297   0.65892   0.00000  Uiso   1.00
H544   H     0.04758   0.12535   0.40083   0.00000  Uiso   1.00
H545   H     0.07069   0.17230   0.37207   0.00000  Uiso   1.00
H546   H     0.03986   0.12980   0.34160   0.00000  Uiso   1.00
H547   H     0.05305   0.37321   0.59971   0.00000  Uiso   1.00
H548   H     0.07446   0.32427   0.62614   0.00000  Uiso   1.00
H549   H     0.04664   0.36703   0.65892   0.00000  Uiso   1.00
H550   H     0.29930   0.12537   0.39820   0.00000  Uiso   1.00
H551   H     0.07001   0.37312   0.43806   0.00000  Uiso   1.00
H552   H     0.24645   0.09849   0.39481   0.00000  Uiso   1.00
H553   H     0.27631   0.11422   0.34391   0.00000  Uiso   1.00
H554   H     0.12589   0.44772   0.60247   0.00000  Uiso   1.00
H555   H     0.15138   0.00148   0.60553   0.00000  Uiso   1.00
H556   H     0.13688   0.47117   0.65660   0.00000  Uiso   1.00
H557   H     0.20070   0.37463   0.39821   0.00000  Uiso   1.00
H558   H     0.25356   0.40151   0.39480   0.00000  Uiso   1.00
H559   H     0.22368   0.38578   0.34391   0.00000  Uiso   1.00
H560   H     0.37411   0.05228   0.60247   0.00000  Uiso   1.00
H561   H     0.34862   0.49852   0.60553   0.00000  Uiso   1.00
H562   H     0.37612   0.18120   0.56105   0.00000  Uiso   1.00
H563   H     0.36312   0.02883   0.65660   0.00000  Uiso   1.00
H564   H     0.07390   0.13056   0.56506   0.00000  Uiso   1.00
H565   H     0.37961   0.32260   0.43583   0.00000  Uiso   1.00
H566   H     0.42610   0.36944   0.56506   0.00000  Uiso   1.00
H567   H     0.12039   0.17740   0.43583   0.00000  Uiso   1.00
H568   H     0.12690   0.43037   0.43822   0.00000  Uiso   1.00
N569   N     0.00000   0.25000   0.61907   0.00000  Uiso   1.00
N570   N     0.00000   0.25000   0.38093   0.00000  Uiso   1.00
N571   N     0.25000   0.00000   0.61907   0.00000  Uiso   1.00
N572   N     0.25000   0.00000   0.38093   0.00000  Uiso   1.00
O573   O     0.04581   0.20419   0.53821   0.00000  Uiso   1.00
O574   O     0.20420   0.04581   0.46179   0.00000  Uiso   1.00
O575   O     0.20420   0.04581   0.53821   0.00000  Uiso   1.00
O576   O     0.29581   0.45419   0.46179   0.00000  Uiso   1.00
O577   O     0.20420   0.45419   0.46179   0.00000  Uiso   1.00
O578   O     0.29581   0.04581   0.53821   0.00000  Uiso   1.00
O579   O     0.29581   0.04581   0.46179   0.00000  Uiso   1.00
O580   O     0.20420   0.45419   0.53821   0.00000  Uiso   1.00
O581   O     0.49850   0.32845   0.38154   0.00000  Uiso   1.00
O582   O     0.49476   0.17163   0.61859   0.00000  Uiso   1.00
O583   O     0.00150   0.17155   0.38154   0.00000  Uiso   1.00
O584   O     0.45420   0.29581   0.46179   0.00000  Uiso   1.00
O585   O     0.00524   0.32837   0.61859   0.00000  Uiso   1.00
O586   O     0.30176   0.05985   0.37915   0.00000  Uiso   1.00
O587   O     0.19134   0.44692   0.62088   0.00000  Uiso   1.00
O588   O     0.19825   0.44015   0.37915   0.00000  Uiso   1.00
O589   O     0.30866   0.05308   0.62088   0.00000  Uiso   1.00
O590   O     0.45420   0.29581   0.53821   0.00000  Uiso   1.00
O591   O     0.04581   0.20419   0.46179   0.00000  Uiso   1.00
O592   O     0.45420   0.20419   0.46179   0.00000  Uiso   1.00
O593   O     0.04581   0.29581   0.53821   0.00000  Uiso   1.00
O594   O     0.04581   0.29581   0.46179   0.00000  Uiso   1.00
O595   O     0.45420   0.20419   0.53821   0.00000  Uiso   1.00
O596   O     0.29581   0.45419   0.53821   0.00000  Uiso   1.00
Zn597  Zn    0.00000   0.25000   0.55104   0.00000  Uiso   1.00
Zn598  Zn    0.00000   0.25000   0.44896   0.00000  Uiso   1.00
Zn599  Zn    0.25000   0.00000   0.55104   0.00000  Uiso   1.00
Zn600  Zn    0.25000   0.00000   0.44896   0.00000  Uiso   1.00
C601   C     0.56001   0.19013   0.50003   0.00000  Uiso   1.00
C602   C     0.99765   0.21090   0.64254   0.00000  Uiso   1.00
C603   C     0.50046   0.21085   0.35750   0.00000  Uiso   1.00
C604   C     0.50235   0.28910   0.64254   0.00000  Uiso   1.00
C605   C     0.77590   0.02910   0.35711   0.00000  Uiso   1.00
C606   C     0.72146   0.47350   0.64290   0.00000  Uiso   1.00
C607   C     0.72410   0.47090   0.35711   0.00000  Uiso   1.00
C608   C     0.77854   0.02650   0.64290   0.00000  Uiso   1.00
C609   C     0.90572   0.12634   0.46485   0.00000  Uiso   1.00
C610   C     0.62422   0.34347   0.53457   0.00000  Uiso   1.00
C611   C     0.59428   0.37366   0.46485   0.00000  Uiso   1.00
C612   C     0.93999   0.30987   0.50003   0.00000  Uiso   1.00
C613   C     0.87578   0.15653   0.53457   0.00000  Uiso   1.00
C614   C     0.59645   0.12848   0.53685   0.00000  Uiso   1.00
C615   C     0.87784   0.34561   0.46371   0.00000  Uiso   1.00
C616   C     0.90355   0.37152   0.53685   0.00000  Uiso   1.00
C617   C     0.62216   0.15439   0.46371   0.00000  Uiso   1.00
C618   C     0.62637   0.40592   0.46492   0.00000  Uiso   1.00
C619   C     0.84372   0.12423   0.53468   0.00000  Uiso   1.00
C620   C     0.87363   0.09408   0.46492   0.00000  Uiso   1.00
C621   C     0.65628   0.37577   0.53468   0.00000  Uiso   1.00
C622   C     0.87145   0.40364   0.53685   0.00000  Uiso   1.00
C623   C     0.94001   0.19013   0.49998   0.00000  Uiso   1.00
C624   C     0.65401   0.12203   0.46352   0.00000  Uiso   1.00
C625   C     0.62855   0.09636   0.53685   0.00000  Uiso   1.00
C626   C     0.84599   0.37797   0.46352   0.00000  Uiso   1.00
C627   C     0.59328   0.34283   0.49983   0.00000  Uiso   1.00
C628   C     0.90672   0.15717   0.49983   0.00000  Uiso   1.00
C629   C     0.90668   0.34282   0.50017   0.00000  Uiso   1.00
C630   C     0.59332   0.15718   0.50017   0.00000  Uiso   1.00
C631   C     0.84294   0.09318   0.49991   0.00000  Uiso   1.00
C632   C     0.65706   0.40682   0.49991   0.00000  Uiso   1.00
C633   C     0.65703   0.09319   0.50009   0.00000  Uiso   1.00
C634   C     0.55999   0.30987   0.49998   0.00000  Uiso   1.00
C635   C     0.84297   0.40681   0.50009   0.00000  Uiso   1.00
C636   C     0.95826   0.35070   0.37315   0.00000  Uiso   1.00
C637   C     0.95329   0.15142   0.62668   0.00000  Uiso   1.00
C638   C     0.54174   0.14930   0.37315   0.00000  Uiso   1.00
C639   C     0.54671   0.34858   0.62668   0.00000  Uiso   1.00
C640   C     0.77955   0.10102   0.37864   0.00000  Uiso   1.00
C641   C     0.64981   0.46819   0.62177   0.00000  Uiso   1.00
C642   C     0.72045   0.39898   0.37864   0.00000  Uiso   1.00
C643   C     0.85019   0.03181   0.62177   0.00000  Uiso   1.00
C644   C     0.80993   0.44005   0.50001   0.00000  Uiso   1.00
C645   C     0.69007   0.05995   0.50001   0.00000  Uiso   1.00
C646   C     0.69009   0.44005   0.49999   0.00000  Uiso   1.00
C647   C     0.80991   0.05995   0.49999   0.00000  Uiso   1.00
C648   C     0.99954   0.28915   0.35750   0.00000  Uiso   1.00
H649   H     0.92999   0.12688   0.43806   0.00000  Uiso   1.00
H650   H     0.81934   0.12384   0.56134   0.00000  Uiso   1.00
H651   H     0.87310   0.06963   0.43822   0.00000  Uiso   1.00
H652   H     0.68066   0.37616   0.56134   0.00000  Uiso   1.00
H653   H     0.86925   0.42621   0.56509   0.00000  Uiso   1.00
H654   H     0.67652   0.11996   0.43531   0.00000  Uiso   1.00
H655   H     0.63075   0.07379   0.56509   0.00000  Uiso   1.00
H656   H     0.82348   0.38004   0.43531   0.00000  Uiso   1.00
H657   H     0.95242   0.37465   0.40083   0.00000  Uiso   1.00
H658   H     0.92931   0.32770   0.37208   0.00000  Uiso   1.00
H659   H     0.96014   0.37019   0.34160   0.00000  Uiso   1.00
H660   H     0.62389   0.31880   0.56105   0.00000  Uiso   1.00
H661   H     0.94695   0.12679   0.59971   0.00000  Uiso   1.00
H662   H     0.92554   0.17573   0.62614   0.00000  Uiso   1.00
H663   H     0.95336   0.13297   0.65892   0.00000  Uiso   1.00
H664   H     0.54758   0.12535   0.40083   0.00000  Uiso   1.00
H665   H     0.57069   0.17230   0.37207   0.00000  Uiso   1.00
H666   H     0.53986   0.12980   0.34160   0.00000  Uiso   1.00
H667   H     0.55305   0.37321   0.59971   0.00000  Uiso   1.00
H668   H     0.57446   0.32427   0.62614   0.00000  Uiso   1.00
H669   H     0.54664   0.36703   0.65892   0.00000  Uiso   1.00
H670   H     0.79930   0.12537   0.39820   0.00000  Uiso   1.00
H671   H     0.57001   0.37312   0.43806   0.00000  Uiso   1.00
H672   H     0.74645   0.09849   0.39481   0.00000  Uiso   1.00
H673   H     0.77631   0.11422   0.34391   0.00000  Uiso   1.00
H674   H     0.62589   0.44772   0.60247   0.00000  Uiso   1.00
H675   H     0.65138   0.00148   0.60553   0.00000  Uiso   1.00
H676   H     0.63688   0.47117   0.65660   0.00000  Uiso   1.00
H677   H     0.70070   0.37463   0.39821   0.00000  Uiso   1.00
H678   H     0.75356   0.40151   0.39480   0.00000  Uiso   1.00
H679   H     0.72368   0.38578   0.34391   0.00000  Uiso   1.00
H680   H     0.87411   0.05228   0.60247   0.00000  Uiso   1.00
H681   H     0.84862   0.49852   0.60553   0.00000  Uiso   1.00
H682   H     0.87612   0.18120   0.56105   0.00000  Uiso   1.00
H683   H     0.86312   0.02883   0.65660   0.00000  Uiso   1.00
H684   H     0.57390   0.13056   0.56506   0.00000  Uiso   1.00
H685   H     0.87961   0.32260   0.43583   0.00000  Uiso   1.00
H686   H     0.92610   0.36944   0.56506   0.00000  Uiso   1.00
H687   H     0.62039   0.17740   0.43583   0.00000  Uiso   1.00
H688   H     0.62690   0.43037   0.43822   0.00000  Uiso   1.00
N689   N     0.50000   0.25000   0.61907   0.00000  Uiso   1.00
N690   N     0.50000   0.25000   0.38093   0.00000  Uiso   1.00
N691   N     0.75000   0.00000   0.61907   0.00000  Uiso   1.00
N692   N     0.75000   0.00000   0.38093   0.00000  Uiso   1.00
O693   O     0.54581   0.20419   0.53821   0.00000  Uiso   1.00
O694   O     0.70420   0.04581   0.46179   0.00000  Uiso   1.00
O695   O     0.70420   0.04581   0.53821   0.00000  Uiso   1.00
O696   O     0.79581   0.45419   0.46179   0.00000  Uiso   1.00
O697   O     0.70420   0.45419   0.46179   0.00000  Uiso   1.00
O698   O     0.79581   0.04581   0.53821   0.00000  Uiso   1.00
O699   O     0.79581   0.04581   0.46179   0.00000  Uiso   1.00
O700   O     0.70420   0.45419   0.53821   0.00000  Uiso   1.00
O701   O     0.99850   0.32845   0.38154   0.00000  Uiso   1.00
O702   O     0.99476   0.17163   0.61859   0.00000  Uiso   1.00
O703   O     0.50150   0.17155   0.38154   0.00000  Uiso   1.00
O704   O     0.95420   0.29581   0.46179   0.00000  Uiso   1.00
O705   O     0.50524   0.32837   0.61859   0.00000  Uiso   1.00
O706   O     0.80176   0.05985   0.37915   0.00000  Uiso   1.00
O707   O     0.69134   0.44692   0.62088   0.00000  Uiso   1.00
O708   O     0.69825   0.44015   0.37915   0.00000  Uiso   1.00
O709   O     0.80866   0.05308   0.62088   0.00000  Uiso   1.00
O710   O     0.95420   0.29581   0.53821   0.00000  Uiso   1.00
O711   O     0.54581   0.20419   0.46179   0.00000  Uiso   1.00
O712   O     0.95420   0.20419   0.46179   0.00000  Uiso   1.00
O713   O     0.54581   0.29581   0.53821   0.00000  Uiso   1.00
O714   O     0.54581   0.29581   0.46179   0.00000  Uiso   1.00
O715   O     0.95420   0.20419   0.53821   0.00000  Uiso   1.00
O716   O     0.79581   0.45419   0.53821   0.00000  Uiso   1.00
Zn717  Zn    0.50000   0.25000   0.55104   0.00000  Uiso   1.00
Zn718  Zn    0.50000   0.25000   0.44896   0.00000  Uiso   1.00
Zn719  Zn    0.75000   0.00000   0.55104   0.00000  Uiso   1.00
Zn720  Zn    0.75000   0.00000   0.44896   0.00000  Uiso   1.00
C721   C     0.06001   0.69013   0.50003   0.00000  Uiso   1.00
C722   C     0.49765   0.71090   0.64254   0.00000  Uiso   1.00
C723   C     0.00046   0.71085   0.35750   0.00000  Uiso   1.00
C724   C     0.00235   0.78910   0.64254   0.00000  Uiso   1.00
C725   C     0.27590   0.52910   0.35711   0.00000  Uiso   1.00
C726   C     0.22146   0.97350   0.64290   0.00000  Uiso   1.00
C727   C     0.22410   0.97090   0.35711   0.00000  Uiso   1.00
C728   C     0.27854   0.52650   0.64290   0.00000  Uiso   1.00
C729   C     0.40572   0.62634   0.46485   0.00000  Uiso   1.00
C730   C     0.12422   0.84347   0.53457   0.00000  Uiso   1.00
C731   C     0.09428   0.87366   0.46485   0.00000  Uiso   1.00
C732   C     0.43999   0.80987   0.50003   0.00000  Uiso   1.00
C733   C     0.37578   0.65653   0.53457   0.00000  Uiso   1.00
C734   C     0.09645   0.62848   0.53685   0.00000  Uiso   1.00
C735   C     0.37784   0.84561   0.46371   0.00000  Uiso   1.00
C736   C     0.40355   0.87152   0.53685   0.00000  Uiso   1.00
C737   C     0.12216   0.65439   0.46371   0.00000  Uiso   1.00
C738   C     0.12637   0.90592   0.46492   0.00000  Uiso   1.00
C739   C     0.34372   0.62423   0.53468   0.00000  Uiso   1.00
C740   C     0.37363   0.59408   0.46492   0.00000  Uiso   1.00
C741   C     0.15628   0.87577   0.53468   0.00000  Uiso   1.00
C742   C     0.37145   0.90364   0.53685   0.00000  Uiso   1.00
C743   C     0.44001   0.69013   0.49998   0.00000  Uiso   1.00
C744   C     0.15401   0.62203   0.46352   0.00000  Uiso   1.00
C745   C     0.12855   0.59636   0.53685   0.00000  Uiso   1.00
C746   C     0.34599   0.87797   0.46352   0.00000  Uiso   1.00
C747   C     0.09328   0.84283   0.49983   0.00000  Uiso   1.00
C748   C     0.40672   0.65717   0.49983   0.00000  Uiso   1.00
C749   C     0.40668   0.84282   0.50017   0.00000  Uiso   1.00
C750   C     0.09332   0.65718   0.50017   0.00000  Uiso   1.00
C751   C     0.34294   0.59318   0.49991   0.00000  Uiso   1.00
C752   C     0.15706   0.90682   0.49991   0.00000  Uiso   1.00
C753   C     0.15703   0.59319   0.50009   0.00000  Uiso   1.00
C754   C     0.05999   0.80987   0.49998   0.00000  Uiso   1.00
C755   C     0.34297   0.90681   0.50009   0.00000  Uiso   1.00
C756   C     0.45826   0.85070   0.37315   0.00000  Uiso   1.00
C757   C     0.45329   0.65142   0.62668   0.00000  Uiso   1.00
C758   C     0.04174   0.64930   0.37315   0.00000  Uiso   1.00
C759   C     0.04671   0.84858   0.62668   0.00000  Uiso   1.00
C760   C     0.27955   0.60102   0.37864   0.00000  Uiso   1.00
C761   C     0.14981   0.96819   0.62177   0.00000  Uiso   1.00
C762   C     0.22045   0.89898   0.37864   0.00000  Uiso   1.00
C763   C     0.35019   0.53181   0.62177   0.00000  Uiso   1.00
C764   C     0.30993   0.94005   0.50001   0.00000  Uiso   1.00
C765   C     0.19007   0.55995   0.50001   0.00000  Uiso   1.00
C766   C     0.19009   0.94005   0.49999   0.00000  Uiso   1.00
C767   C     0.30991   0.55995   0.49999   0.00000  Uiso   1.00
C768   C     0.49954   0.78915   0.35750   0.00000  Uiso   1.00
H769   H     0.42999   0.62688   0.43806   0.00000  Uiso   1.00
H770   H     0.31934   0.62384   0.56134   0.00000  Uiso   1.00
H771   H     0.37310   0.56963   0.43822   0.00000  Uiso   1.00
H772   H     0.18066   0.87616   0.56134   0.00000  Uiso   1.00
H773   H     0.36925   0.92621   0.56509   0.00000  Uiso   1.00
H774   H     0.17652   0.61996   0.43531   0.00000  Uiso   1.00
H775   H     0.13075   0.57379   0.56509   0.00000  Uiso   1.00
H776   H     0.32348   0.88004   0.43531   0.00000  Uiso   1.00
H777   H     0.45242   0.87465   0.40083   0.00000  Uiso   1.00
H778   H     0.42931   0.82770   0.37208   0.00000  Uiso   1.00
H779   H     0.46014   0.87019   0.34160   0.00000  Uiso   1.00
H780   H     0.12389   0.81880   0.56105   0.00000  Uiso   1.00
H781   H     0.44695   0.62679   0.59971   0.00000  Uiso   1.00
H782   H     0.42554   0.67573   0.62614   0.00000  Uiso   1.00
H783   H     0.45336   0.63297   0.65892   0.00000  Uiso   1.00
H784   H     0.04758   0.62535   0.40083   0.00000  Uiso   1.00
H785   H     0.07069   0.67230   0.37207   0.00000  Uiso   1.00
H786   H     0.03986   0.62980   0.34160   0.00000  Uiso   1.00
H787   H     0.05305   0.87321   0.59971   0.00000  Uiso   1.00
H788   H     0.07446   0.82427   0.62614   0.00000  Uiso   1.00
H789   H     0.04664   0.86703   0.65892   0.00000  Uiso   1.00
H790   H     0.29930   0.62537   0.39820   0.00000  Uiso   1.00
H791   H     0.07001   0.87312   0.43806   0.00000  Uiso   1.00
H792   H     0.24645   0.59849   0.39481   0.00000  Uiso   1.00
H793   H     0.27631   0.61422   0.34391   0.00000  Uiso   1.00
H794   H     0.12589   0.94772   0.60247   0.00000  Uiso   1.00
H795   H     0.15138   0.50148   0.60553   0.00000  Uiso   1.00
H796   H     0.13688   0.97117   0.65660   0.00000  Uiso   1.00
H797   H     0.20070   0.87463   0.39821   0.00000  Uiso   1.00
H798   H     0.25356   0.90151   0.39480   0.00000  Uiso   1.00
H799   H     0.22368   0.88578   0.34391   0.00000  Uiso   1.00
H800   H     0.37411   0.55228   0.60247   0.00000  Uiso   1.00
H801   H     0.34862   0.99852   0.60553   0.00000  Uiso   1.00
H802   H     0.37612   0.68120   0.56105   0.00000  Uiso   1.00
H803   H     0.36312   0.52883   0.65660   0.00000  Uiso   1.00
H804   H     0.07390   0.63056   0.56506   0.00000  Uiso   1.00
H805   H     0.37961   0.82260   0.43583   0.00000  Uiso   1.00
H806   H     0.42610   0.86944   0.56506   0.00000  Uiso   1.00
H807   H     0.12039   0.67740   0.43583   0.00000  Uiso   1.00
H808   H     0.12690   0.93037   0.43822   0.00000  Uiso   1.00
N809   N     0.00000   0.75000   0.61907   0.00000  Uiso   1.00
N810   N     0.00000   0.75000   0.38093   0.00000  Uiso   1.00
N811   N     0.25000   0.50000   0.61907   0.00000  Uiso   1.00
N812   N     0.25000   0.50000   0.38093   0.00000  Uiso   1.00
O813   O     0.04581   0.70419   0.53821   0.00000  Uiso   1.00
O814   O     0.20420   0.54581   0.46179   0.00000  Uiso   1.00
O815   O     0.20420   0.54581   0.53821   0.00000  Uiso   1.00
O816   O     0.29581   0.95419   0.46179   0.00000  Uiso   1.00
O817   O     0.20420   0.95419   0.46179   0.00000  Uiso   1.00
O818   O     0.29581   0.54581   0.53821   0.00000  Uiso   1.00
O819   O     0.29581   0.54581   0.46179   0.00000  Uiso   1.00
O820   O     0.20420   0.95419   0.53821   0.00000  Uiso   1.00
O821   O     0.49850   0.82845   0.38154   0.00000  Uiso   1.00
O822   O     0.49476   0.67163   0.61859   0.00000  Uiso   1.00
O823   O     0.00150   0.67155   0.38154   0.00000  Uiso   1.00
O824   O     0.45420   0.79581   0.46179   0.00000  Uiso   1.00
O825   O     0.00524   0.82837   0.61859   0.00000  Uiso   1.00
O826   O     0.30176   0.55985   0.37915   0.00000  Uiso   1.00
O827   O     0.19134   0.94692   0.62088   0.00000  Uiso   1.00
O828   O     0.19825   0.94015   0.37915   0.00000  Uiso   1.00
O829   O     0.30866   0.55308   0.62088   0.00000  Uiso   1.00
O830   O     0.45420   0.79581   0.53821   0.00000  Uiso   1.00
O831   O     0.04581   0.70419   0.46179   0.00000  Uiso   1.00
O832   O     0.45420   0.70419   0.46179   0.00000  Uiso   1.00
O833   O     0.04581   0.79581   0.53821   0.00000  Uiso   1.00
O834   O     0.04581   0.79581   0.46179   0.00000  Uiso   1.00
O835   O     0.45420   0.70419   0.53821   0.00000  Uiso   1.00
O836   O     0.29581   0.95419   0.53821   0.00000  Uiso   1.00
Zn837  Zn    0.00000   0.75000   0.55104   0.00000  Uiso   1.00
Zn838  Zn    0.00000   0.75000   0.44896   0.00000  Uiso   1.00
Zn839  Zn    0.25000   0.50000   0.55104   0.00000  Uiso   1.00
Zn840  Zn    0.25000   0.50000   0.44896   0.00000  Uiso   1.00
C841   C     0.56001   0.69013   0.50003   0.00000  Uiso   1.00
C842   C     0.99765   0.71090   0.64254   0.00000  Uiso   1.00
C843   C     0.50046   0.71085   0.35750   0.00000  Uiso   1.00
C844   C     0.50235   0.78910   0.64254   0.00000  Uiso   1.00
C845   C     0.77590   0.52910   0.35711   0.00000  Uiso   1.00
C846   C     0.72146   0.97350   0.64290   0.00000  Uiso   1.00
C847   C     0.72410   0.97090   0.35711   0.00000  Uiso   1.00
C848   C     0.77854   0.52650   0.64290   0.00000  Uiso   1.00
C849   C     0.90572   0.62634   0.46485   0.00000  Uiso   1.00
C850   C     0.62422   0.84347   0.53457   0.00000  Uiso   1.00
C851   C     0.59428   0.87366   0.46485   0.00000  Uiso   1.00
C852   C     0.93999   0.80987   0.50003   0.00000  Uiso   1.00
C853   C     0.87578   0.65653   0.53457   0.00000  Uiso   1.00
C854   C     0.59645   0.62848   0.53685   0.00000  Uiso   1.00
C855   C     0.87784   0.84561   0.46371   0.00000  Uiso   1.00
C856   C     0.90355   0.87152   0.53685   0.00000  Uiso   1.00
C857   C     0.62216   0.65439   0.46371   0.00000  Uiso   1.00
C858   C     0.62637   0.90592   0.46492   0.00000  Uiso   1.00
C859   C     0.84372   0.62423   0.53468   0.00000  Uiso   1.00
C860   C     0.87363   0.59408   0.46492   0.00000  Uiso   1.00
C861   C     0.65628   0.87577   0.53468   0.00000  Uiso   1.00
C862   C     0.87145   0.90364   0.53685   0.00000  Uiso   1.00
C863   C     0.94001   0.69013   0.49998   0.00000  Uiso   1.00
C864   C     0.65401   0.62203   0.46352   0.00000  Uiso   1.00
C865   C     0.62855   0.59636   0.53685   0.00000  Uiso   1.00
C866   C     0.84599   0.87797   0.46352   0.00000  Uiso   1.00
C867   C     0.59328   0.84283   0.49983   0.00000  Uiso   1.00
C868   C     0.90672   0.65717   0.49983   0.00000  Uiso   1.00
C869   C     0.90668   0.84282   0.50017   0.00000  Uiso   1.00
C870   C     0.59332   0.65718   0.50017   0.00000  Uiso   1.00
C871   C     0.84294   0.59318   0.49991   0.00000  Uiso   1.00
C872   C     0.65706   0.90682   0.49991   0.00000  Uiso   1.00
C873   C     0.65703   0.59319   0.50009   0.00000  Uiso   1.00
C874   C     0.55999   0.80987   0.49998   0.00000  Uiso   1.00
C875   C     0.84297   0.90681   0.50009   0.00000  Uiso   1.00
C876   C     0.95826   0.85070   0.37315   0.00000  Uiso   1.00
C877   C     0.95329   0.65142   0.62668   0.00000  Uiso   1.00
C878   C     0.54174   0.64930   0.37315   0.00000  Uiso   1.00
C879   C     0.54671   0.84858   0.62668   0.00000  Uiso   1.00
C880   C     0.77955   0.60102   0.37864   0.00000  Uiso   1.00
C881   C     0.64981   0.96819   0.62177   0.00000  Uiso   1.00
C882   C     0.72045   0.89898   0.37864   0.00000  Uiso   1.00
C883   C     0.85019   0.53181   0.62177   0.00000  Uiso   1.00
C884   C     0.80993   0.94005   0.50001   0.00000  Uiso   1.00
C885   C     0.69007   0.55995   0.50001   0.00000  Uiso   1.00
C886   C     0.69009   0.94005   0.49999   0.00000  Uiso   1.00
C887   C     0.80991   0.55995   0.49999   0.00000  Uiso   1.00
C888   C     0.99954   0.78915   0.35750   0.00000  Uiso   1.00
H889   H     0.92999   0.62688   0.43806   0.00000  Uiso   1.00
H890   H     0.81934   0.62384   0.56134   0.00000  Uiso   1.00
H891   H     0.87310   0.56963   0.43822   0.00000  Uiso   1.00
H892   H     0.68066   0.87616   0.56134   0.00000  Uiso   1.00
H893   H     0.86925   0.92621   0.56509   0.00000  Uiso   1.00
H894   H     0.67652   0.61996   0.43531   0.00000  Uiso   1.00
H895   H     0.63075   0.57379   0.56509   0.00000  Uiso   1.00
H896   H     0.82348   0.88004   0.43531   0.00000  Uiso   1.00
H897   H     0.95242   0.87465   0.40083   0.00000  Uiso   1.00
H898   H     0.92931   0.82770   0.37208   0.00000  Uiso   1.00
H899   H     0.96014   0.87019   0.34160   0.00000  Uiso   1.00
H900   H     0.62389   0.81880   0.56105   0.00000  Uiso   1.00
H901   H     0.94695   0.62679   0.59971   0.00000  Uiso   1.00
H902   H     0.92554   0.67573   0.62614   0.00000  Uiso   1.00
H903   H     0.95336   0.63297   0.65892   0.00000  Uiso   1.00
H904   H     0.54758   0.62535   0.40083   0.00000  Uiso   1.00
H905   H     0.57069   0.67230   0.37207   0.00000  Uiso   1.00
H906   H     0.53986   0.62980   0.34160   0.00000  Uiso   1.00
H907   H     0.55305   0.87321   0.59971   0.00000  Uiso   1.00
H908   H     0.57446   0.82427   0.62614   0.00000  Uiso   1.00
H909   H     0.54664   0.86703   0.65892   0.00000  Uiso   1.00
H910   H     0.79930   0.62537   0.39820   0.00000  Uiso   1.00
H911   H     0.57001   0.87312   0.43806   0.00000  Uiso   1.00
H912   H     0.74645   0.59849   0.39481   0.00000  Uiso   1.00
H913   H     0.77631   0.61422   0.34391   0.00000  Uiso   1.00
H914   H     0.62589   0.94772   0.60247   0.00000  Uiso   1.00
H915   H     0.65138   0.50148   0.60553   0.00000  Uiso   1.00
H916   H     0.63688   0.97117   0.65660   0.00000  Uiso   1.00
H917   H     0.70070   0.87463   0.39821   0.00000  Uiso   1.00
H918   H     0.75356   0.90151   0.39480   0.00000  Uiso   1.00
H919   H     0.72368   0.88578   0.34391   0.00000  Uiso   1.00
H920   H     0.87411   0.55228   0.60247   0.00000  Uiso   1.00
H921   H     0.84862   0.99852   0.60553   0.00000  Uiso   1.00
H922   H     0.87612   0.68120   0.56105   0.00000  Uiso   1.00
H923   H     0.86312   0.52883   0.65660   0.00000  Uiso   1.00
H924   H     0.57390   0.63056   0.56506   0.00000  Uiso   1.00
H925   H     0.87961   0.82260   0.43583   0.00000  Uiso   1.00
H926   H     0.92610   0.86944   0.56506   0.00000  Uiso   1.00
H927   H     0.62039   0.67740   0.43583   0.00000  Uiso   1.00
H928   H     0.62690   0.93037   0.43822   0.00000  Uiso   1.00
N929   N     0.50000   0.75000   0.61907   0.00000  Uiso   1.00
N930   N     0.50000   0.75000   0.38093   0.00000  Uiso   1.00
N931   N     0.75000   0.50000   0.61907   0.00000  Uiso   1.00
N932   N     0.75000   0.50000   0.38093   0.00000  Uiso   1.00
O933   O     0.54581   0.70419   0.53821   0.00000  Uiso   1.00
O934   O     0.70420   0.54581   0.46179   0.00000  Uiso   1.00
O935   O     0.70420   0.54581   0.53821   0.00000  Uiso   1.00
O936   O     0.79581   0.95419   0.46179   0.00000  Uiso   1.00
O937   O     0.70420   0.95419   0.46179   0.00000  Uiso   1.00
O938   O     0.79581   0.54581   0.53821   0.00000  Uiso   1.00
O939   O     0.79581   0.54581   0.46179   0.00000  Uiso   1.00
O940   O     0.70420   0.95419   0.53821   0.00000  Uiso   1.00
O941   O     0.99850   0.82845   0.38154   0.00000  Uiso   1.00
O942   O     0.99476   0.67163   0.61859   0.00000  Uiso   1.00
O943   O     0.50150   0.67155   0.38154   0.00000  Uiso   1.00
O944   O     0.95420   0.79581   0.46179   0.00000  Uiso   1.00
O945   O     0.50524   0.82837   0.61859   0.00000  Uiso   1.00
O946   O     0.80176   0.55985   0.37915   0.00000  Uiso   1.00
O947   O     0.69134   0.94692   0.62088   0.00000  Uiso   1.00
O948   O     0.69825   0.94015   0.37915   0.00000  Uiso   1.00
O949   O     0.80866   0.55308   0.62088   0.00000  Uiso   1.00
O950   O     0.95420   0.79581   0.53821   0.00000  Uiso   1.00
O951   O     0.54581   0.70419   0.46179   0.00000  Uiso   1.00
O952   O     0.95420   0.70419   0.46179   0.00000  Uiso   1.00
O953   O     0.54581   0.79581   0.53821   0.00000  Uiso   1.00
O954   O     0.54581   0.79581   0.46179   0.00000  Uiso   1.00
O955   O     0.95420   0.70419   0.53821   0.00000  Uiso   1.00
O956   O     0.79581   0.95419   0.53821   0.00000  Uiso   1.00
Zn957  Zn    0.50000   0.75000   0.55104   0.00000  Uiso   1.00
Zn958  Zn    0.50000   0.75000   0.44896   0.00000  Uiso   1.00
Zn959  Zn    0.75000   0.50000   0.55104   0.00000  Uiso   1.00
Zn960  Zn    0.75000   0.50000   0.44896   0.00000  Uiso   1.00
C961   C     0.06001   0.19013   0.83336   0.00000  Uiso   1.00
C962   C     0.49765   0.21090   0.97587   0.00000  Uiso   1.00
C963   C     0.00046   0.21085   0.69083   0.00000  Uiso   1.00
C964   C     0.00235   0.28910   0.97587   0.00000  Uiso   1.00
C965   C     0.27590   0.02910   0.69044   0.00000  Uiso   1.00
C966   C     0.22146   0.47350   0.97624   0.00000  Uiso   1.00
C967   C     0.22410   0.47090   0.69044   0.00000  Uiso   1.00
C968   C     0.27854   0.02650   0.97624   0.00000  Uiso   1.00
C969   C     0.40572   0.12634   0.79818   0.00000  Uiso   1.00
C970   C     0.12422   0.34347   0.86790   0.00000  Uiso   1.00
C971   C     0.09428   0.37366   0.79818   0.00000  Uiso   1.00
C972   C     0.43999   0.30987   0.83336   0.00000  Uiso   1.00
C973   C     0.37578   0.15653   0.86790   0.00000  Uiso   1.00
C974   C     0.09645   0.12848   0.87019   0.00000  Uiso   1.00
C975   C     0.37784   0.34561   0.79705   0.00000  Uiso   1.00
C976   C     0.40355   0.37152   0.87018   0.00000  Uiso   1.00
C977   C     0.12216   0.15439   0.79705   0.00000  Uiso   1.00
C978   C     0.12637   0.40592   0.79826   0.00000  Uiso   1.00
C979   C     0.34372   0.12423   0.86801   0.00000  Uiso   1.00
C980   C     0.37363   0.09408   0.79826   0.00000  Uiso   1.00
C981   C     0.15628   0.37577   0.86801   0.00000  Uiso   1.00
C982   C     0.37145   0.40364   0.87018   0.00000  Uiso   1.00
C983   C     0.44001   0.19013   0.83331   0.00000  Uiso   1.00
C984   C     0.15401   0.12203   0.79686   0.00000  Uiso   1.00
C985   C     0.12855   0.09636   0.87018   0.00000  Uiso   1.00
C986   C     0.34599   0.37797   0.79686   0.00000  Uiso   1.00
C987   C     0.09328   0.34283   0.83316   0.00000  Uiso   1.00
C988   C     0.40672   0.15717   0.83316   0.00000  Uiso   1.00
C989   C     0.40668   0.34282   0.83351   0.00000  Uiso   1.00
C990   C     0.09332   0.15718   0.83351   0.00000  Uiso   1.00
C991   C     0.34294   0.09318   0.83324   0.00000  Uiso   1.00
C992   C     0.15706   0.40682   0.83324   0.00000  Uiso   1.00
C993   C     0.15703   0.09319   0.83342   0.00000  Uiso   1.00
C994   C     0.05999   0.30987   0.83331   0.00000  Uiso   1.00
C995   C     0.34297   0.40681   0.83342   0.00000  Uiso   1.00
C996   C     0.45826   0.35070   0.70649   0.00000  Uiso   1.00
C997   C     0.45329   0.15142   0.96001   0.00000  Uiso   1.00
C998   C     0.04174   0.14930   0.70649   0.00000  Uiso   1.00
C999   C     0.04671   0.34858   0.96001   0.00000  Uiso   1.00
C1000  C     0.27955   0.10102   0.71197   0.00000  Uiso   1.00
C1001  C     0.14981   0.46819   0.95510   0.00000  Uiso   1.00
C1002  C     0.22045   0.39898   0.71197   0.00000  Uiso   1.00
C1003  C     0.35019   0.03181   0.95510   0.00000  Uiso   1.00
C1004  C     0.30993   0.44005   0.83334   0.00000  Uiso   1.00
C1005  C     0.19007   0.05995   0.83334   0.00000  Uiso   1.00
C1006  C     0.19009   0.44005   0.83332   0.00000  Uiso   1.00
C1007  C     0.30991   0.05995   0.83332   0.00000  Uiso   1.00
C1008  C     0.49954   0.28915   0.69083   0.00000  Uiso   1.00
H1009  H     0.42999   0.12688   0.77139   0.00000  Uiso   1.00
H1010  H     0.31934   0.12384   0.89467   0.00000  Uiso   1.00
H1011  H     0.37310   0.06963   0.77155   0.00000  Uiso   1.00
H1012  H     0.18066   0.37616   0.89467   0.00000  Uiso   1.00
H1013  H     0.36925   0.42621   0.89842   0.00000  Uiso   1.00
H1014  H     0.17652   0.11996   0.76864   0.00000  Uiso   1.00
H1015  H     0.13075   0.07379   0.89842   0.00000  Uiso   1.00
H1016  H     0.32348   0.38004   0.76864   0.00000  Uiso   1.00
H1017  H     0.45242   0.37465   0.73416   0.00000  Uiso   1.00
H1018  H     0.42931   0.32770   0.70541   0.00000  Uiso   1.00
H1019  H     0.46014   0.37019   0.67493   0.00000  Uiso   1.00
H1020  H     0.12389   0.31880   0.89439   0.00000  Uiso   1.00
H1021  H     0.44695   0.12679   0.93304   0.00000  Uiso   1.00
H1022  H     0.42554   0.17573   0.95947   0.00000  Uiso   1.00
H1023  H     0.45336   0.13297   0.99226   0.00000  Uiso   1.00
H1024  H     0.04758   0.12535   0.73416   0.00000  Uiso   1.00
H1025  H     0.07069   0.17230   0.70541   0.00000  Uiso   1.00
H1026  H     0.03986   0.12980   0.67493   0.00000  Uiso   1.00
H1027  H     0.05305   0.37321   0.93304   0.00000  Uiso   1.00
H1028  H     0.07446   0.32427   0.95947   0.00000  Uiso   1.00
H1029  H     0.04664   0.36703   0.99226   0.00000  Uiso   1.00
H1030  H     0.29930   0.12537   0.73154   0.00000  Uiso   1.00
H1031  H     0.07001   0.37312   0.77139   0.00000  Uiso   1.00
H1032  H     0.24645   0.09849   0.72814   0.00000  Uiso   1.00
H1033  H     0.27631   0.11422   0.67724   0.00000  Uiso   1.00
H1034  H     0.12589   0.44772   0.93580   0.00000  Uiso   1.00
H1035  H     0.15138   0.00148   0.93887   0.00000  Uiso   1.00
H1036  H     0.13688   0.47117   0.98993   0.00000  Uiso   1.00
H1037  H     0.20070   0.37463   0.73154   0.00000  Uiso   1.00
H1038  H     0.25356   0.40151   0.72813   0.00000  Uiso   1.00
H1039  H     0.22368   0.38578   0.67724   0.00000  Uiso   1.00
H1040  H     0.37411   0.05228   0.93580   0.00000  Uiso   1.00
H1041  H     0.34862   0.49852   0.93887   0.00000  Uiso   1.00
H1042  H     0.37612   0.18120   0.89439   0.00000  Uiso   1.00
H1043  H     0.36312   0.02883   0.98993   0.00000  Uiso   1.00
H1044  H     0.07390   0.13056   0.89840   0.00000  Uiso   1.00
H1045  H     0.37961   0.32260   0.76916   0.00000  Uiso   1.00
H1046  H     0.42610   0.36944   0.89840   0.00000  Uiso   1.00
H1047  H     0.12039   0.17740   0.76916   0.00000  Uiso   1.00
H1048  H     0.12690   0.43037   0.77155   0.00000  Uiso   1.00
N1049  N     0.00000   0.25000   0.95240   0.00000  Uiso   1.00
N1050  N     0.00000   0.25000   0.71427   0.00000  Uiso   1.00
N1051  N     0.25000   0.00000   0.95240   0.00000  Uiso   1.00
N1052  N     0.25000   0.00000   0.71427   0.00000  Uiso   1.00
O1053  O     0.04581   0.20419   0.87154   0.00000  Uiso   1.00
O1054  O     0.20420   0.04581   0.79513   0.00000  Uiso   1.00
O1055  O     0.20420   0.04581   0.87154   0.00000  Uiso   1.00
O1056  O     0.29581   0.45419   0.79513   0.00000  Uiso   1.00
O1057  O     0.20420   0.45419   0.79513   0.00000  Uiso   1.00
O1058  O     0.29581   0.04581   0.87154   0.00000  Uiso   1.00
O1059  O     0.29581   0.04581   0.79513   0.00000  Uiso   1.00
O1060  O     0.20420   0.45419   0.87154   0.00000  Uiso   1.00
O1061  O     0.49850   0.32845   0.71487   0.00000  Uiso   1.00
O1062  O     0.49476   0.17163   0.95192   0.00000  Uiso   1.00
O1063  O     0.00150   0.17155   0.71487   0.00000  Uiso   1.00
O1064  O     0.45420   0.29581   0.79513   0.00000  Uiso   1.00
O1065  O     0.00524   0.32837   0.95192   0.00000  Uiso   1.00
O1066  O     0.30176   0.05985   0.71249   0.00000  Uiso   1.00
O1067  O     0.19134   0.44692   0.95421   0.00000  Uiso   1.00
O1068  O     0.19825   0.44015   0.71249   0.00000  Uiso   1.00
O1069  O     0.30866   0.05308   0.95421   0.00000  Uiso   1.00
O1070  O     0.45420   0.29581   0.87154   0.00000  Uiso   1.00
O1071  O     0.04581   0.20419   0.79513   0.00000  Uiso   1.00
O1072  O     0.45420   0.20419   0.79513   0.00000  Uiso   1.00
O1073  O     0.04581   0.29581   0.87154   0.00000  Uiso   1.00
O1074  O     0.04581   0.29581   0.79513   0.00000  Uiso   1.00
O1075  O     0.45420   0.20419   0.87154   0.00000  Uiso   1.00
O1076  O     0.29581   0.45419   0.87154   0.00000  Uiso   1.00
Zn1077 Zn    0.00000   0.25000   0.88437   0.00000  Uiso   1.00
Zn1078 Zn    0.00000   0.25000   0.78229   0.00000  Uiso   1.00
Zn1079 Zn    0.25000   0.00000   0.88437   0.00000  Uiso   1.00
Zn1080 Zn    0.25000   0.00000   0.78229   0.00000  Uiso   1.00
C1081  C     0.56001   0.19013   0.83336   0.00000  Uiso   1.00
C1082  C     0.99765   0.21090   0.97587   0.00000  Uiso   1.00
C1083  C     0.50046   0.21085   0.69083   0.00000  Uiso   1.00
C1084  C     0.50235   0.28910   0.97587   0.00000  Uiso   1.00
C1085  C     0.77590   0.02910   0.69044   0.00000  Uiso   1.00
C1086  C     0.72146   0.47350   0.97624   0.00000  Uiso   1.00
C1087  C     0.72410   0.47090   0.69044   0.00000  Uiso   1.00
C1088  C     0.77854   0.02650   0.97624   0.00000  Uiso   1.00
C1089  C     0.90572   0.12634   0.79818   0.00000  Uiso   1.00
C1090  C     0.62422   0.34347   0.86790   0.00000  Uiso   1.00
C1091  C     0.59428   0.37366   0.79818   0.00000  Uiso   1.00
C1092  C     0.93999   0.30987   0.83336   0.00000  Uiso   1.00
C1093  C     0.87578   0.15653   0.86790   0.00000  Uiso   1.00
C1094  C     0.59645   0.12848   0.87019   0.00000  Uiso   1.00
C1095  C     0.87784   0.34561   0.79705   0.00000  Uiso   1.00
C1096  C     0.90355   0.37152   0.87018   0.00000  Uiso   1.00
C1097  C     0.62216   0.15439   0.79705   0.00000  Uiso   1.00
C1098  C     0.62637   0.40592   0.79826   0.00000  Uiso   1.00
C1099  C     0.84372   0.12423   0.86801   0.00000  Uiso   1.00
C1100  C     0.87363   0.09408   0.79826   0.00000  Uiso   1.00
C1101  C     0.65628   0.37577   0.86801   0.00000  Uiso   1.00
C1102  C     0.87145   0.40364   0.87018   0.00000  Uiso   1.00
C1103  C     0.94001   0.19013   0.83331   0.00000  Uiso   1.00
C1104  C     0.65401   0.12203   0.79686   0.00000  Uiso   1.00
C1105  C     0.62855   0.09636   0.87018   0.00000  Uiso   1.00
C1106  C     0.84599   0.37797   0.79686   0.00000  Uiso   1.00
C1107  C     0.59328   0.34283   0.83316   0.00000  Uiso   1.00
C1108  C     0.90672   0.15717   0.83316   0.00000  Uiso   1.00
C1109  C     0.90668   0.34282   0.83351   0.00000  Uiso   1.00
C1110  C     0.59332   0.15718   0.83351   0.00000  Uiso   1.00
C1111  C     0.84294   0.09318   0.83324   0.00000  Uiso   1.00
C1112  C     0.65706   0.40682   0.83324   0.00000  Uiso   1.00
C1113  C     0.65703   0.09319   0.83342   0.00000  Uiso   1.00
C1114  C     0.55999   0.30987   0.83331   0.00000  Uiso   1.00
C1115  C     0.84297   0.40681   0.83342   0.00000  Uiso   1.00
C1116  C     0.95826   0.35070   0.70649   0.00000  Uiso   1.00
C1117  C     0.95329   0.15142   0.96001   0.00000  Uiso   1.00
C1118  C     0.54174   0.14930   0.70649   0.00000  Uiso   1.00
C1119  C     0.54671   0.34858   0.96001   0.00000  Uiso   1.00
C1120  C     0.77955   0.10102   0.71197   0.00000  Uiso   1.00
C1121  C     0.64981   0.46819   0.95510   0.00000  Uiso   1.00
C1122  C     0.72045   0.39898   0.71197   0.00000  Uiso   1.00
C1123  C     0.85019   0.03181   0.95510   0.00000  Uiso   1.00
C1124  C     0.80993   0.44005   0.83334   0.00000  Uiso   1.00
C1125  C     0.69007   0.05995   0.83334   0.00000  Uiso   1.00
C1126  C     0.69009   0.44005   0.83332   0.00000  Uiso   1.00
C1127  C     0.80991   0.05995   0.83332   0.00000  Uiso   1.00
C1128  C     0.99954   0.28915   0.69083   0.00000  Uiso   1.00
H1129  H     0.92999   0.12688   0.77139   0.00000  Uiso   1.00
H1130  H     0.81934   0.12384   0.89467   0.00000  Uiso   1.00
H1131  H     0.87310   0.06963   0.77155   0.00000  Uiso   1.00
H1132  H     0.68066   0.37616   0.89467   0.00000  Uiso   1.00
H1133  H     0.86925   0.42621   0.89842   0.00000  Uiso   1.00
H1134  H     0.67652   0.11996   0.76864   0.00000  Uiso   1.00
H1135  H     0.63075   0.07379   0.89842   0.00000  Uiso   1.00
H1136  H     0.82348   0.38004   0.76864   0.00000  Uiso   1.00
H1137  H     0.95242   0.37465   0.73416   0.00000  Uiso   1.00
H1138  H     0.92931   0.32770   0.70541   0.00000  Uiso   1.00
H1139  H     0.96014   0.37019   0.67493   0.00000  Uiso   1.00
H1140  H     0.62389   0.31880   0.89439   0.00000  Uiso   1.00
H1141  H     0.94695   0.12679   0.93304   0.00000  Uiso   1.00
H1142  H     0.92554   0.17573   0.95947   0.00000  Uiso   1.00
H1143  H     0.95336   0.13297   0.99226   0.00000  Uiso   1.00
H1144  H     0.54758   0.12535   0.73416   0.00000  Uiso   1.00
H1145  H     0.57069   0.17230   0.70541   0.00000  Uiso   1.00
H1146  H     0.53986   0.12980   0.67493   0.00000  Uiso   1.00
H1147  H     0.55305   0.37321   0.93304   0.00000  Uiso   1.00
H1148  H     0.57446   0.32427   0.95947   0.00000  Uiso   1.00
H1149  H     0.54664   0.36703   0.99226   0.00000  Uiso   1.00
H1150  H     0.79930   0.12537   0.73154   0.00000  Uiso   1.00
H1151  H     0.57001   0.37312   0.77139   0.00000  Uiso   1.00
H1152  H     0.74645   0.09849   0.72814   0.00000  Uiso   1.00
H1153  H     0.77631   0.11422   0.67724   0.00000  Uiso   1.00
H1154  H     0.62589   0.44772   0.93580   0.00000  Uiso   1.00
H1155  H     0.65138   0.00148   0.93887   0.00000  Uiso   1.00
H1156  H     0.63688   0.47117   0.98993   0.00000  Uiso   1.00
H1157  H     0.70070   0.37463   0.73154   0.00000  Uiso   1.00
H1158  H     0.75356   0.40151   0.72813   0.00000  Uiso   1.00
H1159  H     0.72368   0.38578   0.67724   0.00000  Uiso   1.00
H1160  H     0.87411   0.05228   0.93580   0.00000  Uiso   1.00
H1161  H     0.84862   0.49852   0.93887   0.00000  Uiso   1.00
H1162  H     0.87612   0.18120   0.89439   0.00000  Uiso   1.00
H1163  H     0.86312   0.02883   0.98993   0.00000  Uiso   1.00
H1164  H     0.57390   0.13056   0.89840   0.00000  Uiso   1.00
H1165  H     0.87961   0.32260   0.76916   0.00000  Uiso   1.00
H1166  H     0.92610   0.36944   0.89840   0.00000  Uiso   1.00
H1167  H     0.62039   0.17740   0.76916   0.00000  Uiso   1.00
H1168  H     0.62690   0.43037   0.77155   0.00000  Uiso   1.00
N1169  N     0.50000   0.25000   0.95240   0.00000  Uiso   1.00
N1170  N     0.50000   0.25000   0.71427   0.00000  Uiso   1.00
N1171  N     0.75000   0.00000   0.95240   0.00000  Uiso   1.00
N1172  N     0.75000   0.00000   0.71427   0.00000  Uiso   1.00
O1173  O     0.54581   0.20419   0.87154   0.00000  Uiso   1.00
O1174  O     0.70420   0.04581   0.79513   0.00000  Uiso   1.00
O1175  O     0.70420   0.04581   0.87154   0.00000  Uiso   1.00
O1176  O     0.79581   0.45419   0.79513   0.00000  Uiso   1.00
O1177  O     0.70420   0.45419   0.79513   0.00000  Uiso   1.00
O1178  O     0.79581   0.04581   0.87154   0.00000  Uiso   1.00
O1179  O     0.79581   0.04581   0.79513   0.00000  Uiso   1.00
O1180  O     0.70420   0.45419   0.87154   0.00000  Uiso   1.00
O1181  O     0.99850   0.32845   0.71487   0.00000  Uiso   1.00
O1182  O     0.99476   0.17163   0.95192   0.00000  Uiso   1.00
O1183  O     0.50150   0.17155   0.71487   0.00000  Uiso   1.00
O1184  O     0.95420   0.29581   0.79513   0.00000  Uiso   1.00
O1185  O     0.50524   0.32837   0.95192   0.00000  Uiso   1.00
O1186  O     0.80176   0.05985   0.71249   0.00000  Uiso   1.00
O1187  O     0.69134   0.44692   0.95421   0.00000  Uiso   1.00
O1188  O     0.69825   0.44015   0.71249   0.00000  Uiso   1.00
O1189  O     0.80866   0.05308   0.95421   0.00000  Uiso   1.00
O1190  O     0.95420   0.29581   0.87154   0.00000  Uiso   1.00
O1191  O     0.54581   0.20419   0.79513   0.00000  Uiso   1.00
O1192  O     0.95420   0.20419   0.79513   0.00000  Uiso   1.00
O1193  O     0.54581   0.29581   0.87154   0.00000  Uiso   1.00
O1194  O     0.54581   0.29581   0.79513   0.00000  Uiso   1.00
O1195  O     0.95420   0.20419   0.87154   0.00000  Uiso   1.00
O1196  O     0.79581   0.45419   0.87154   0.00000  Uiso   1.00
Zn1197 Zn    0.50000   0.25000   0.88437   0.00000  Uiso   1.00
Zn1198 Zn    0.50000   0.25000   0.78229   0.00000  Uiso   1.00
Zn1199 Zn    0.75000   0.00000   0.88437   0.00000  Uiso   1.00
Zn1200 Zn    0.75000   0.00000   0.78229   0.00000  Uiso   1.00
C1201  C     0.06001   0.69013   0.83336   0.00000  Uiso   1.00
C1202  C     0.49765   0.71090   0.97587   0.00000  Uiso   1.00
C1203  C     0.00046   0.71085   0.69083   0.00000  Uiso   1.00
C1204  C     0.00235   0.78910   0.97587   0.00000  Uiso   1.00
C1205  C     0.27590   0.52910   0.69044   0.00000  Uiso   1.00
C1206  C     0.22146   0.97350   0.97624   0.00000  Uiso   1.00
C1207  C     0.22410   0.97090   0.69044   0.00000  Uiso   1.00
C1208  C     0.27854   0.52650   0.97624   0.00000  Uiso   1.00
C1209  C     0.40572   0.62634   0.79818   0.00000  Uiso   1.00
C1210  C     0.12422   0.84347   0.86790   0.00000  Uiso   1.00
C1211  C     0.09428   0.87366   0.79818   0.00000  Uiso   1.00
C1212  C     0.43999   0.80987   0.83336   0.00000  Uiso   1.00
C1213  C     0.37578   0.65653   0.86790   0.00000  Uiso   1.00
C1214  C     0.09645   0.62848   0.87019   0.00000  Uiso   1.00
C1215  C     0.37784   0.84561   0.79705   0.00000  Uiso   1.00
C1216  C     0.40355   0.87152   0.87018   0.00000  Uiso   1.00
C1217  C     0.12216   0.65439   0.79705   0.00000  Uiso   1.00
C1218  C     0.12637   0.90592   0.79826   0.00000  Uiso   1.00
C1219  C     0.34372   0.62423   0.86801   0.00000  Uiso   1.00
C1220  C     0.37363   0.59408   0.79826   0.00000  Uiso   1.00
C1221  C     0.15628   0.87577   0.86801   0.00000  Uiso   1.00
C1222  C     0.37145   0.90364   0.87018   0.00000  Uiso   1.00
C1223  C     0.44001   0.69013   0.83331   0.00000  Uiso   1.00
C1224  C     0.15401   0.62203   0.79686   0.00000  Uiso   1.00
C1225  C     0.12855   0.59636   0.87018   0.00000  Uiso   1.00
C1226  C     0.34599   0.87797   0.79686   0.00000  Uiso   1.00
C1227  C     0.09328   0.84283   0.83316   0.00000  Uiso   1.00
C1228  C     0.40672   0.65717   0.83316   0.00000  Uiso   1.00
C1229  C     0.40668   0.84282   0.83351   0.00000  Uiso   1.00
C1230  C     0.09332   0.65718   0.83351   0.00000  Uiso   1.00
C1231  C     0.34294   0.59318   0.83324   0.00000  Uiso   1.00
C1232  C     0.15706   0.90682   0.83324   0.00000  Uiso   1.00
C1233  C     0.15703   0.59319   0.83342   0.00000  Uiso   1.00
C1234  C     0.05999   0.80987   0.83331   0.00000  Uiso   1.00
C1235  C     0.34297   0.90681   0.83342   0.00000  Uiso   1.00
C1236  C     0.45826   0.85070   0.70649   0.00000  Uiso   1.00
C1237  C     0.45329   0.65142   0.96001   0.00000  Uiso   1.00
C1238  C     0.04174   0.64930   0.70649   0.00000  Uiso   1.00
C1239  C     0.04671   0.84858   0.96001   0.00000  Uiso   1.00
C1240  C     0.27955   0.60102   0.71197   0.00000  Uiso   1.00
C1241  C     0.14981   0.96819   0.95510   0.00000  Uiso   1.00
C1242  C     0.22045   0.89898   0.71197   0.00000  Uiso   1.00
C1243  C     0.35019   0.53181   0.95510   0.00000  Uiso   1.00
C1244  C     0.30993   0.94005   0.83334   0.00000  Uiso   1.00
C1245  C     0.19007   0.55995   0.83334   0.00000  Uiso   1.00
C1246  C     0.19009   0.94005   0.83332   0.00000  Uiso   1.00
C1247  C     0.30991   0.55995   0.83332   0.00000  Uiso   1.00
C1248  C     0.49954   0.78915   0.69083   0.00000  Uiso   1.00
H1249  H     0.42999   0.62688   0.77139   0.00000  Uiso   1.00
H1250  H     0.31934   0.62384   0.89467   0.00000  Uiso   1.00
H1251  H     0.37310   0.56963   0.77155   0.00000  Uiso   1.00
H1252  H     0.18066   0.87616   0.89467   0.00000  Uiso   1.00
H1253  H     0.36925   0.92621   0.89842   0.00000  Uiso   1.00
H1254  H     0.17652   0.61996   0.76864   0.00000  Uiso   1.00
H1255  H     0.13075   0.57379   0.89842   0.00000  Uiso   1.00
H1256  H     0.32348   0.88004   0.76864   0.00000  Uiso   1.00
H1257  H     0.45242   0.87465   0.73416   0.00000  Uiso   1.00
H1258  H     0.42931   0.82770   0.70541   0.00000  Uiso   1.00
H1259  H     0.46014   0.87019   0.67493   0.00000  Uiso   1.00
H1260  H     0.12389   0.81880   0.89439   0.00000  Uiso   1.00
H1261  H     0.44695   0.62679   0.93304   0.00000  Uiso   1.00
H1262  H     0.42554   0.67573   0.95947   0.00000  Uiso   1.00
H1263  H     0.45336   0.63297   0.99226   0.00000  Uiso   1.00
H1264  H     0.04758   0.62535   0.73416   0.00000  Uiso   1.00
H1265  H     0.07069   0.67230   0.70541   0.00000  Uiso   1.00
H1266  H     0.03986   0.62980   0.67493   0.00000  Uiso   1.00
H1267  H     0.05305   0.87321   0.93304   0.00000  Uiso   1.00
H1268  H     0.07446   0.82427   0.95947   0.00000  Uiso   1.00
H1269  H     0.04664   0.86703   0.99226   0.00000  Uiso   1.00
H1270  H     0.29930   0.62537   0.73154   0.00000  Uiso   1.00
H1271  H     0.07001   0.87312   0.77139   0.00000  Uiso   1.00
H1272  H     0.24645   0.59849   0.72814   0.00000  Uiso   1.00
H1273  H     0.27631   0.61422   0.67724   0.00000  Uiso   1.00
H1274  H     0.12589   0.94772   0.93580   0.00000  Uiso   1.00
H1275  H     0.15138   0.50148   0.93887   0.00000  Uiso   1.00
H1276  H     0.13688   0.97117   0.98993   0.00000  Uiso   1.00
H1277  H     0.20070   0.87463   0.73154   0.00000  Uiso   1.00
H1278  H     0.25356   0.90151   0.72813   0.00000  Uiso   1.00
H1279  H     0.22368   0.88578   0.67724   0.00000  Uiso   1.00
H1280  H     0.37411   0.55228   0.93580   0.00000  Uiso   1.00
H1281  H     0.34862   0.99852   0.93887   0.00000  Uiso   1.00
H1282  H     0.37612   0.68120   0.89439   0.00000  Uiso   1.00
H1283  H     0.36312   0.52883   0.98993   0.00000  Uiso   1.00
H1284  H     0.07390   0.63056   0.89840   0.00000  Uiso   1.00
H1285  H     0.37961   0.82260   0.76916   0.00000  Uiso   1.00
H1286  H     0.42610   0.86944   0.89840   0.00000  Uiso   1.00
H1287  H     0.12039   0.67740   0.76916   0.00000  Uiso   1.00
H1288  H     0.12690   0.93037   0.77155   0.00000  Uiso   1.00
N1289  N     0.00000   0.75000   0.95240   0.00000  Uiso   1.00
N1290  N     0.00000   0.75000   0.71427   0.00000  Uiso   1.00
N1291  N     0.25000   0.50000   0.95240   0.00000  Uiso   1.00
N1292  N     0.25000   0.50000   0.71427   0.00000  Uiso   1.00
O1293  O     0.04581   0.70419   0.87154   0.00000  Uiso   1.00
O1294  O     0.20420   0.54581   0.79513   0.00000  Uiso   1.00
O1295  O     0.20420   0.54581   0.87154   0.00000  Uiso   1.00
O1296  O     0.29581   0.95419   0.79513   0.00000  Uiso   1.00
O1297  O     0.20420   0.95419   0.79513   0.00000  Uiso   1.00
O1298  O     0.29581   0.54581   0.87154   0.00000  Uiso   1.00
O1299  O     0.29581   0.54581   0.79513   0.00000  Uiso   1.00
O1300  O     0.20420   0.95419   0.87154   0.00000  Uiso   1.00
O1301  O     0.49850   0.82845   0.71487   0.00000  Uiso   1.00
O1302  O     0.49476   0.67163   0.95192   0.00000  Uiso   1.00
O1303  O     0.00150   0.67155   0.71487   0.00000  Uiso   1.00
O1304  O     0.45420   0.79581   0.79513   0.00000  Uiso   1.00
O1305  O     0.00524   0.82837   0.95192   0.00000  Uiso   1.00
O1306  O     0.30176   0.55985   0.71249   0.00000  Uiso   1.00
O1307  O     0.19134   0.94692   0.95421   0.00000  Uiso   1.00
O1308  O     0.19825   0.94015   0.71249   0.00000  Uiso   1.00
O1309  O     0.30866   0.55308   0.95421   0.00000  Uiso   1.00
O1310  O     0.45420   0.79581   0.87154   0.00000  Uiso   1.00
O1311  O     0.04581   0.70419   0.79513   0.00000  Uiso   1.00
O1312  O     0.45420   0.70419   0.79513   0.00000  Uiso   1.00
O1313  O     0.04581   0.79581   0.87154   0.00000  Uiso   1.00
O1314  O     0.04581   0.79581   0.79513   0.00000  Uiso   1.00
O1315  O     0.45420   0.70419   0.87154   0.00000  Uiso   1.00
O1316  O     0.29581   0.95419   0.87154   0.00000  Uiso   1.00
Zn1317 Zn    0.00000   0.75000   0.88437   0.00000  Uiso   1.00
Zn1318 Zn    0.00000   0.75000   0.78229   0.00000  Uiso   1.00
Zn1319 Zn    0.25000   0.50000   0.88437   0.00000  Uiso   1.00
Zn1320 Zn    0.25000   0.50000   0.78229   0.00000  Uiso   1.00
C1321  C     0.56001   0.69013   0.83336   0.00000  Uiso   1.00
C1322  C     0.99765   0.71090   0.97587   0.00000  Uiso   1.00
C1323  C     0.50046   0.71085   0.69083   0.00000  Uiso   1.00
C1324  C     0.50235   0.78910   0.97587   0.00000  Uiso   1.00
C1325  C     0.77590   0.52910   0.69044   0.00000  Uiso   1.00
C1326  C     0.72146   0.97350   0.97624   0.00000  Uiso   1.00
C1327  C     0.72410   0.97090   0.69044   0.00000  Uiso   1.00
C1328  C     0.77854   0.52650   0.97624   0.00000  Uiso   1.00
C1329  C     0.90572   0.62634   0.79818   0.00000  Uiso   1.00
C1330  C     0.62422   0.84347   0.86790   0.00000  Uiso   1.00
C1331  C     0.59428   0.87366   0.79818   0.00000  Uiso   1.00
C1332  C     0.93999   0.80987   0.83336   0.00000  Uiso   1.00
C1333  C     0.87578   0.65653   0.86790   0.00000  Uiso   1.00
C1334  C     0.59645   0.62848   0.87019   0.00000  Uiso   1.00
C1335  C     0.87784   0.84561   0.79705   0.00000  Uiso   1.00
C1336  C     0.90355   0.87152   0.87018   0.00000  Uiso   1.00
C1337  C     0.62216   0.65439   0.79705   0.00000  Uiso   1.00
C1338  C     0.62637   0.90592   0.79826   0.00000  Uiso   1.00
C1339  C     0.84372   0.62423   0.86801   0.00000  Uiso   1.00
C1340  C     0.87363   0.59408   0.79826   0.00000  Uiso   1.00
C1341  C     0.65628   0.87577   0.86801   0.00000  Uiso   1.00
C1342  C     0.87145   0.90364   0.87018   0.00000  Uiso   1.00
C1343  C     0.94001   0.69013   0.83331   0.00000  Uiso   1.00
C1344  C     0.65401   0.62203   0.79686   0.00000  Uiso   1.00
C1345  C     0.62855   0.59636   0.87018   0.00000  Uiso   1.00
C1346  C     0.84599   0.87797   0.79686   0.00000  Uiso   1.00
C1347  C     0.59328   0.84283   0.83316   0.00000  Uiso   1.00
C1348  C     0.90672   0.65717   0.83316   0.00000  Uiso   1.00
C1349  C     0.90668   0.84282   0.83351   0.00000  Uiso   1.00
C1350  C     0.59332   0.65718   0.83351   0.00000  Uiso   1.00
C1351  C     0.84294   0.59318   0.83324   0.00000  Uiso   1.00
C1352  C     0.65706   0.90682   0.83324   0.00000  Uiso   1.00
C1353  C     0.65703   0.59319   0.83342   0.00000  Uiso   1.00
C1354  C     0.55999   0.80987   0.83331   0.00000  Uiso   1.00
C1355  C     0.84297   0.90681   0.83342   0.00000  Uiso   1.00
C1356  C     0.95826   0.85070   0.70649   0.00000  Uiso   1.00
C1357  C     0.95329   0.65142   0.96001   0.00000  Uiso   1.00
C1358  C     0.54174   0.64930   0.70649   0.00000  Uiso   1.00
C1359  C     0.54671   0.84858   0.96001   0.00000  Uiso   1.00
C1360  C     0.77955   0.60102   0.71197   0.00000  Uiso   1.00
C1361  C     0.64981   0.96819   0.95510   0.00000  Uiso   1.00
C1362  C     0.72045   0.89898   0.71197   0.00000  Uiso   1.00
C1363  C     0.85019   0.53181   0.95510   0.00000  Uiso   1.00
C1364  C     0.80993   0.94005   0.83334   0.00000  Uiso   1.00
C1365  C     0.69007   0.55995   0.83334   0.00000  Uiso   1.00
C1366  C     0.69009   0.94005   0.83332   0.00000  Uiso   1.00
C1367  C     0.80991   0.55995   0.83332   0.00000  Uiso   1.00
C1368  C     0.99954   0.78915   0.69083   0.00000  Uiso   1.00
H1369  H     0.92999   0.62688   0.77139   0.00000  Uiso   1.00
H1370  H     0.81934   0.62384   0.89467   0.00000  Uiso   1.00
H1371  H     0.87310   0.56963   0.77155   0.00000  Uiso   1.00
H1372  H     0.68066   0.87616   0.89467   0.00000  Uiso   1.00
H1373  H     0.86925   0.92621   0.89842   0.00000  Uiso   1.00
H1374  H     0.67652   0.61996   0.76864   0.00000  Uiso   1.00
H1375  H     0.63075   0.57379   0.89842   0.00000  Uiso   1.00
H1376  H     0.82348   0.88004   0.76864   0.00000  Uiso   1.00
H1377  H     0.95242   0.87465   0.73416   0.00000  Uiso   1.00
H1378  H     0.92931   0.82770   0.70541   0.00000  Uiso   1.00
H1379  H     0.96014   0.87019   0.67493   0.00000  Uiso   1.00
H1380  H     0.62389   0.81880   0.89439   0.00000  Uiso   1.00
H1381  H     0.94695   0.62679   0.93304   0.00000  Uiso   1.00
H1382  H     0.92554   0.67573   0.95947   0.00000  Uiso   1.00
H1383  H     0.95336   0.63297   0.99226   0.00000  Uiso   1.00
H1384  H     0.54758   0.62535   0.73416   0.00000  Uiso   1.00
H1385  H     0.57069   0.67230   0.70541   0.00000  Uiso   1.00
H1386  H     0.53986   0.62980   0.67493   0.00000  Uiso   1.00
H1387  H     0.55305   0.87321   0.93304   0.00000  Uiso   1.00
H1388  H     0.57446   0.82427   0.95947   0.00000  Uiso   1.00
H1389  H     0.54664   0.86703   0.99226   0.00000  Uiso   1.00
H1390  H     0.79930   0.62537   0.73154   0.00000  Uiso   1.00
H1391  H     0.57001   0.87312   0.77139   0.00000  Uiso   1.00
H1392  H     0.74645   0.59849   0.72814   0.00000  Uiso   1.00
H1393  H     0.77631   0.61422   0.67724   0.00000  Uiso   1.00
H1394  H     0.62589   0.94772   0.93580   0.00000  Uiso   1.00
H1395  H     0.65138   0.50148   0.93887   0.00000  Uiso   1.00
H1396  H     0.63688   0.97117   0.98993   0.00000  Uiso   1.00
H1397  H     0.70070   0.87463   0.73154   0.00000  Uiso   1.00
H1398  H     0.75356   0.90151   0.72813   0.00000  Uiso   1.00
H1399  H     0.72368   0.88578   0.67724   0.00000  Uiso   1.00
H1400  H     0.87411   0.55228   0.93580   0.00000  Uiso   1.00
H1401  H     0.84862   0.99852   0.93887   0.00000  Uiso   1.00
H1402  H     0.87612   0.68120   0.89439   0.00000  Uiso   1.00
H1403  H     0.86312   0.52883   0.98993   0.00000  Uiso   1.00
H1404  H     0.57390   0.63056   0.89840   0.00000  Uiso   1.00
H1405  H     0.87961   0.82260   0.76916   0.00000  Uiso   1.00
H1406  H     0.92610   0.86944   0.89840   0.00000  Uiso   1.00
H1407  H     0.62039   0.67740   0.76916   0.00000  Uiso   1.00
H1408  H     0.62690   0.93037   0.77155   0.00000  Uiso   1.00
N1409  N     0.50000   0.75000   0.95240   0.00000  Uiso   1.00
N1410  N     0.50000   0.75000   0.71427   0.00000  Uiso   1.00
N1411  N     0.75000   0.50000   0.95240   0.00000  Uiso   1.00
N1412  N     0.75000   0.50000   0.71427   0.00000  Uiso   1.00
O1413  O     0.54581   0.70419   0.87154   0.00000  Uiso   1.00
O1414  O     0.70420   0.54581   0.79513   0.00000  Uiso   1.00
O1415  O     0.70420   0.54581   0.87154   0.00000  Uiso   1.00
O1416  O     0.79581   0.95419   0.79513   0.00000  Uiso   1.00
O1417  O     0.70420   0.95419   0.79513   0.00000  Uiso   1.00
O1418  O     0.79581   0.54581   0.87154   0.00000  Uiso   1.00
O1419  O     0.79581   0.54581   0.79513   0.00000  Uiso   1.00
O1420  O     0.70420   0.95419   0.87154   0.00000  Uiso   1.00
O1421  O     0.99850   0.82845   0.71487   0.00000  Uiso   1.00
O1422  O     0.99476   0.67163   0.95192   0.00000  Uiso   1.00
O1423  O     0.50150   0.67155   0.71487   0.00000  Uiso   1.00
O1424  O     0.95420   0.79581   0.79513   0.00000  Uiso   1.00
O1425  O     0.50524   0.82837   0.95192   0.00000  Uiso   1.00
O1426  O     0.80176   0.55985   0.71249   0.00000  Uiso   1.00
O1427  O     0.69134   0.94692   0.95421   0.00000  Uiso   1.00
O1428  O     0.69825   0.94015   0.71249   0.00000  Uiso   1.00
O1429  O     0.80866   0.55308   0.95421   0.00000  Uiso   1.00
O1430  O     0.95420   0.79581   0.87154   0.00000  Uiso   1.00
O1431  O     0.54581   0.70419   0.79513   0.00000  Uiso   1.00
O1432  O     0.95420   0.70419   0.79513   0.00000  Uiso   1.00
O1433  O     0.54581   0.79581   0.87154   0.00000  Uiso   1.00
O1434  O     0.54581   0.79581   0.79513   0.00000  Uiso   1.00
O1435  O     0.95420   0.70419   0.87154   0.00000  Uiso   1.00
O1436  O     0.79581   0.95419   0.87154   0.00000  Uiso   1.00
Zn1437 Zn    0.50000   0.75000   0.88437   0.00000  Uiso   1.00
Zn1438 Zn    0.50000   0.75000   0.78229   0.00000  Uiso   1.00
Zn1439 Zn    0.75000   0.50000   0.88437   0.00000  Uiso   1.00
Zn1440 Zn    0.75000   0.50000   0.78229   0.00000  Uiso   1.00
loop_
_geom_bond_atom_site_label_1
_geom_bond_atom_site_label_2
_geom_bond_distance
_geom_bond_site_symmetry_2
_ccdc_geom_bond_type
C1     O111    1.289   .     A
C1     C30     1.415   .     S
C1     O93     1.288   .     A
C2     O102    1.383   .     S
C2     C603    1.441   .     S
C2     N209    1.370   .     S
C3     N90     1.369   .     A
C3     O103    1.383   .     S
C3     C1082   1.441   1_454 S
C4     N89     1.370   .     A
C4     O105    1.383   .     S
C4     C648    1.441   1_455 S
C5     O106    1.376   .     S
C5     N92     1.371   .     A
C5     C968    1.421   1_554 S
C6     O107    1.377   .     S
C6     C487    1.421   .     S
C6     N331    1.371   .     S
C7     O108    1.376   .     S
C7     C966    1.421   1_554 S
C7     N332    1.371   .     S
C8     N91     1.371   .     A
C8     O109    1.377   .     S
C8     C485    1.421   .     S
C9     H49     1.084   .     S
C9     C20     1.371   .     A
C9     C28     1.395   .     A
C10    C27     1.395   .     A
C10    C21     1.371   .     A
C10    H60     1.083   .     S
C11    C18     1.371   .     A
C11    H71     1.084   .     S
C11    C27     1.395   .     A
C12    C29     1.415   .     S
C12    O110    1.288   .     A
C12    O104    1.289   .     A
C13    C28     1.395   .     A
C13    C19     1.371   .     A
C13    H82     1.083   .     S
C14    H84     1.084   .     S
C14    C30     1.396   .     A
C14    C25     1.371   .     A
C15    H85     1.083   .     S
C15    C29     1.395   .     A
C15    C26     1.371   .     A
C16    H86     1.084   .     S
C16    C29     1.396   .     A
C16    C22     1.371   .     A
C17    C30     1.395   .     A
C17    C24     1.371   .     A
C17    H87     1.083   .     S
C18    H88     1.084   .     S
C18    C32     1.395   .     A
C19    C31     1.395   .     A
C19    H50     1.084   .     S
C20    H51     1.084   .     S
C20    C31     1.395   .     A
C21    C32     1.395   .     A
C21    H52     1.084   .     S
C22    C35     1.396   .     A
C22    H53     1.083   .     S
C23    C28     1.411   .     S
C23    O112    1.287   .     A
C23    O115    1.288   .     A
C24    H54     1.083   .     S
C24    C33     1.396   .     A
C25    H55     1.083   .     S
C25    C33     1.396   .     A
C26    H56     1.083   .     S
C26    C35     1.396   .     A
C27    C34     1.411   .     S
C31    C47     1.411   .     S
C32    C46     1.411   .     S
C33    C45     1.415   .     S
C34    O113    1.288   .     A
C34    O114    1.287   .     A
C35    C44     1.415   .     S
C36    H59     1.109   .     S
C36    H58     1.115   .     S
C36    H57     1.109   .     S
C36    O101    1.412   .     S
C37    H62     1.115   .     S
C37    O102    1.413   .     S
C37    H63     1.109   .     S
C37    H61     1.109   .     S
C38    H66     1.109   .     S
C38    H64     1.109   .     S
C38    O103    1.412   .     S
C38    H65     1.115   .     S
C39    H68     1.115   .     S
C39    H69     1.109   .     S
C39    O105    1.413   .     S
C39    H67     1.109   .     S
C40    H70     1.109   .     S
C40    H73     1.113   .     S
C40    H72     1.113   .     S
C40    O106    1.410   .     S
C41    H74     1.109   .     S
C41    O107    1.411   .     S
C41    H76     1.112   .     S
C41    H315    1.113   .     S
C42    H79     1.113   .     S
C42    H78     1.113   .     S
C42    H77     1.109   .     S
C42    O108    1.410   .     S
C43    H83     1.112   .     S
C43    H80     1.109   .     S
C43    O109    1.411   .     S
C43    H321    1.113   1_545 S
C44    O96     1.289   .     A
C44    O116    1.288   .     A
C45    O94     1.289   .     A
C45    O95     1.288   .     A
C46    O97     1.287   .     A
C46    O100    1.288   .     A
C47    O99     1.287   .     A
C47    O98     1.288   .     A
C48    O101    1.383   .     S
C48    C1084   1.441   1_554 S
C48    N210    1.369   .     S
H75    C281    1.113   1_545 S
H81    C283    1.113   .     S
N89    C122    1.370   1_455 S
N89    Zn117   2.026   .     S
N90    C168    1.369   1_455 S
N90    Zn118   2.026   .     S
N91    Zn119   2.026   .     S
N91    C246    1.371   1_545 S
N92    Zn120   2.026   .     S
N92    C247    1.371   1_545 S
O93    Zn117   1.993   .     S
O94    Zn120   1.993   .     S
O95    Zn119   1.993   .     S
O96    Zn360   1.993   .     S
O97    Zn360   1.988   .     S
O98    Zn119   1.988   .     S
O99    Zn120   1.988   .     S
O100   Zn359   1.988   .     S
O104   Zn238   1.993   .     S
O110   Zn237   1.993   .     S
O111   Zn118   1.993   .     S
O112   Zn238   1.988   .     S
O113   Zn117   1.988   .     S
O114   Zn118   1.988   .     S
O115   Zn237   1.988   .     S
O116   Zn359   1.993   .     S
Zn117  O235    1.988   1_455 S
Zn117  O230    1.993   1_455 S
Zn118  O224    1.993   1_455 S
Zn118  O232    1.988   1_455 S
Zn119  O340    1.988   1_545 S
Zn119  O356    1.993   1_545 S
Zn120  O337    1.988   1_545 S
Zn120  O336    1.993   1_545 S
C121   O231    1.289   .     A
C121   C150    1.415   .     S
C121   O213    1.288   .     A
C122   O222    1.383   .     S
C122   C483    1.441   1_655 S
C122   N89     1.370   1_655 S
C123   N210    1.369   .     A
C123   O223    1.383   .     S
C123   C962    1.441   1_554 S
C124   N209    1.370   .     A
C124   O225    1.383   .     S
C124   C528    1.441   .     S
C125   O226    1.376   .     S
C125   N212    1.371   .     A
C125   C1088   1.421   1_554 S
C126   O227    1.377   .     S
C126   C607    1.421   .     S
C126   N451    1.371   .     S
C127   O228    1.376   .     S
C127   C1086   1.421   1_554 S
C127   N452    1.371   .     S
C128   N211    1.371   .     A
C128   O229    1.377   .     S
C128   C605    1.421   .     S
C129   H169    1.084   .     S
C129   C140    1.371   .     A
C129   C148    1.395   .     A
C130   C147    1.395   .     A
C130   C141    1.371   .     A
C130   H180    1.083   .     S
C131   C138    1.371   .     A
C131   H191    1.084   .     S
C131   C147    1.395   .     A
C132   C149    1.415   .     S
C132   O230    1.288   .     A
C132   O224    1.289   .     A
C133   C148    1.395   .     A
C133   C139    1.371   .     A
C133   H202    1.083   .     S
C134   H204    1.084   .     S
C134   C150    1.396   .     A
C134   C145    1.371   .     A
C135   H205    1.083   .     S
C135   C149    1.395   .     A
C135   C146    1.371   .     A
C136   H206    1.084   .     S
C136   C149    1.396   .     A
C136   C142    1.371   .     A
C137   C150    1.395   .     A
C137   C144    1.371   .     A
C137   H207    1.083   .     S
C138   H208    1.084   .     S
C138   C152    1.395   .     A
C139   C151    1.395   .     A
C139   H170    1.084   .     S
C140   H171    1.084   .     S
C140   C151    1.395   .     A
C141   C152    1.395   .     A
C141   H172    1.084   .     S
C142   C155    1.396   .     A
C142   H173    1.083   .     S
C143   C148    1.411   .     S
C143   O232    1.287   .     A
C143   O235    1.288   .     A
C144   H174    1.083   .     S
C144   C153    1.396   .     A
C145   H175    1.083   .     S
C145   C153    1.396   .     A
C146   H176    1.083   .     S
C146   C155    1.396   .     A
C147   C154    1.411   .     S
C151   C167    1.411   .     S
C152   C166    1.411   .     S
C153   C165    1.415   .     S
C154   O233    1.288   .     A
C154   O234    1.287   .     A
C155   C164    1.415   .     S
C156   H179    1.109   .     S
C156   H178    1.115   .     S
C156   H177    1.109   .     S
C156   O221    1.412   .     S
C157   H182    1.115   .     S
C157   O222    1.413   .     S
C157   H183    1.109   .     S
C157   H181    1.109   .     S
C158   H186    1.109   .     S
C158   H184    1.109   .     S
C158   O223    1.412   .     S
C158   H185    1.115   .     S
C159   H188    1.115   .     S
C159   H189    1.109   .     S
C159   O225    1.413   .     S
C159   H187    1.109   .     S
C160   H190    1.109   .     S
C160   H193    1.113   .     S
C160   H192    1.113   .     S
C160   O226    1.410   .     S
C161   H194    1.109   .     S
C161   O227    1.411   .     S
C161   H196    1.112   .     S
C161   H435    1.113   .     S
C162   H199    1.113   .     S
C162   H198    1.113   .     S
C162   H197    1.109   .     S
C162   O228    1.410   .     S
C163   H203    1.112   .     S
C163   H200    1.109   .     S
C163   O229    1.411   .     S
C163   H441    1.113   1_545 S
C164   O216    1.289   .     A
C164   O236    1.288   .     A
C165   O214    1.289   .     A
C165   O215    1.288   .     A
C166   O217    1.287   .     A
C166   O220    1.288   .     A
C167   O219    1.287   .     A
C167   O218    1.288   .     A
C168   O221    1.383   .     S
C168   C964    1.441   1_654 S
C168   N90     1.369   1_655 S
H195   C401    1.113   1_545 S
H201   C403    1.113   .     S
N209   Zn237   2.026   .     S
N210   Zn238   2.026   .     S
N211   Zn239   2.026   .     S
N211   C366    1.371   1_545 S
N212   Zn240   2.026   .     S
N212   C367    1.371   1_545 S
O213   Zn237   1.993   .     S
O214   Zn240   1.993   .     S
O215   Zn239   1.993   .     S
O216   Zn480   1.993   .     S
O217   Zn480   1.988   .     S
O218   Zn239   1.988   .     S
O219   Zn240   1.988   .     S
O220   Zn479   1.988   .     S
O224   Zn118   1.993   1_655 S
O230   Zn117   1.993   1_655 S
O231   Zn238   1.993   .     S
O232   Zn118   1.988   1_655 S
O233   Zn237   1.988   .     S
O234   Zn238   1.988   .     S
O235   Zn117   1.988   1_655 S
O236   Zn479   1.993   .     S
Zn239  O460    1.988   1_545 S
Zn239  O476    1.993   1_545 S
Zn240  O457    1.988   1_545 S
Zn240  O456    1.993   1_545 S
C241   O351    1.289   .     A
C241   C270    1.415   .     S
C241   O333    1.288   .     A
C242   O342    1.383   .     S
C242   C843    1.441   .     S
C242   N449    1.370   .     S
C243   N330    1.369   .     A
C243   O343    1.383   .     S
C243   C1322   1.441   1_454 S
C244   N329    1.370   .     A
C244   O345    1.383   .     S
C244   C888    1.441   1_455 S
C245   O346    1.376   .     S
C245   N332    1.371   .     A
C245   C1208   1.421   1_554 S
C246   O347    1.377   .     S
C246   C727    1.421   .     S
C246   N91     1.371   1_565 S
C247   O348    1.376   .     S
C247   C1206   1.421   1_554 S
C247   N92     1.371   1_565 S
C248   N331    1.371   .     A
C248   O349    1.377   .     S
C248   C725    1.421   .     S
C249   H289    1.084   .     S
C249   C260    1.371   .     A
C249   C268    1.395   .     A
C250   C267    1.395   .     A
C250   C261    1.371   .     A
C250   H300    1.083   .     S
C251   C258    1.371   .     A
C251   H311    1.084   .     S
C251   C267    1.395   .     A
C252   C269    1.415   .     S
C252   O350    1.288   .     A
C252   O344    1.289   .     A
C253   C268    1.395   .     A
C253   C259    1.371   .     A
C253   H322    1.083   .     S
C254   H324    1.084   .     S
C254   C270    1.396   .     A
C254   C265    1.371   .     A
C255   H325    1.083   .     S
C255   C269    1.395   .     A
C255   C266    1.371   .     A
C256   H326    1.084   .     S
C256   C269    1.396   .     A
C256   C262    1.371   .     A
C257   C270    1.395   .     A
C257   C264    1.371   .     A
C257   H327    1.083   .     S
C258   H328    1.084   .     S
C258   C272    1.395   .     A
C259   C271    1.395   .     A
C259   H290    1.084   .     S
C260   H291    1.084   .     S
C260   C271    1.395   .     A
C261   C272    1.395   .     A
C261   H292    1.084   .     S
C262   C275    1.396   .     A
C262   H293    1.083   .     S
C263   C268    1.411   .     S
C263   O352    1.287   .     A
C263   O355    1.288   .     A
C264   H294    1.083   .     S
C264   C273    1.396   .     A
C265   H295    1.083   .     S
C265   C273    1.396   .     A
C266   H296    1.083   .     S
C266   C275    1.396   .     A
C267   C274    1.411   .     S
C271   C287    1.411   .     S
C272   C286    1.411   .     S
C273   C285    1.415   .     S
C274   O353    1.288   .     A
C274   O354    1.287   .     A
C275   C284    1.415   .     S
C276   H299    1.109   .     S
C276   H298    1.115   .     S
C276   H297    1.109   .     S
C276   O341    1.412   .     S
C277   H302    1.115   .     S
C277   O342    1.413   .     S
C277   H303    1.109   .     S
C277   H301    1.109   .     S
C278   H306    1.109   .     S
C278   H304    1.109   .     S
C278   O343    1.412   .     S
C278   H305    1.115   .     S
C279   H308    1.115   .     S
C279   H309    1.109   .     S
C279   O345    1.413   .     S
C279   H307    1.109   .     S
C280   H310    1.109   .     S
C280   H313    1.113   .     S
C280   H312    1.113   .     S
C280   O346    1.410   .     S
C281   H314    1.109   .     S
C281   O347    1.411   .     S
C281   H316    1.112   .     S
C281   H75     1.113   1_565 S
C282   H319    1.113   .     S
C282   H318    1.113   .     S
C282   H317    1.109   .     S
C282   O348    1.410   .     S
C283   H323    1.112   .     S
C283   H320    1.109   .     S
C283   O349    1.411   .     S
C284   O336    1.289   .     A
C284   O356    1.288   .     A
C285   O334    1.289   .     A
C285   O335    1.288   .     A
C286   O337    1.287   .     A
C286   O340    1.288   .     A
C287   O339    1.287   .     A
C287   O338    1.288   .     A
C288   O341    1.383   .     S
C288   C1324   1.441   1_554 S
C288   N450    1.369   .     S
H321   C43     1.113   1_565 S
N329   C362    1.370   1_455 S
N329   Zn357   2.026   .     S
N330   C408    1.369   1_455 S
N330   Zn358   2.026   .     S
N331   Zn359   2.026   .     S
N332   Zn360   2.026   .     S
O333   Zn357   1.993   .     S
O334   Zn360   1.993   .     S
O335   Zn359   1.993   .     S
O336   Zn120   1.993   1_565 S
O337   Zn120   1.988   1_565 S
O338   Zn359   1.988   .     S
O339   Zn360   1.988   .     S
O340   Zn119   1.988   1_565 S
O344   Zn478   1.993   .     S
O350   Zn477   1.993   .     S
O351   Zn358   1.993   .     S
O352   Zn478   1.988   .     S
O353   Zn357   1.988   .     S
O354   Zn358   1.988   .     S
O355   Zn477   1.988   .     S
O356   Zn119   1.993   1_565 S
Zn357  O475    1.988   1_455 S
Zn357  O470    1.993   1_455 S
Zn358  O464    1.993   1_455 S
Zn358  O472    1.988   1_455 S
C361   O471    1.289   .     A
C361   C390    1.415   .     S
C361   O453    1.288   .     A
C362   O462    1.383   .     S
C362   C723    1.441   1_655 S
C362   N329    1.370   1_655 S
C363   N450    1.369   .     A
C363   O463    1.383   .     S
C363   C1202   1.441   1_554 S
C364   N449    1.370   .     A
C364   O465    1.383   .     S
C364   C768    1.441   .     S
C365   O466    1.376   .     S
C365   N452    1.371   .     A
C365   C1328   1.421   1_554 S
C366   O467    1.377   .     S
C366   C847    1.421   .     S
C366   N211    1.371   1_565 S
C367   O468    1.376   .     S
C367   C1326   1.421   1_554 S
C367   N212    1.371   1_565 S
C368   N451    1.371   .     A
C368   O469    1.377   .     S
C368   C845    1.421   .     S
C369   H409    1.084   .     S
C369   C380    1.371   .     A
C369   C388    1.395   .     A
C370   C387    1.395   .     A
C370   C381    1.371   .     A
C370   H420    1.083   .     S
C371   C378    1.371   .     A
C371   H431    1.084   .     S
C371   C387    1.395   .     A
C372   C389    1.415   .     S
C372   O470    1.288   .     A
C372   O464    1.289   .     A
C373   C388    1.395   .     A
C373   C379    1.371   .     A
C373   H442    1.083   .     S
C374   H444    1.084   .     S
C374   C390    1.396   .     A
C374   C385    1.371   .     A
C375   H445    1.083   .     S
C375   C389    1.395   .     A
C375   C386    1.371   .     A
C376   H446    1.084   .     S
C376   C389    1.396   .     A
C376   C382    1.371   .     A
C377   C390    1.395   .     A
C377   C384    1.371   .     A
C377   H447    1.083   .     S
C378   H448    1.084   .     S
C378   C392    1.395   .     A
C379   C391    1.395   .     A
C379   H410    1.084   .     S
C380   H411    1.084   .     S
C380   C391    1.395   .     A
C381   C392    1.395   .     A
C381   H412    1.084   .     S
C382   C395    1.396   .     A
C382   H413    1.083   .     S
C383   C388    1.411   .     S
C383   O472    1.287   .     A
C383   O475    1.288   .     A
C384   H414    1.083   .     S
C384   C393    1.396   .     A
C385   H415    1.083   .     S
C385   C393    1.396   .     A
C386   H416    1.083   .     S
C386   C395    1.396   .     A
C387   C394    1.411   .     S
C391   C407    1.411   .     S
C392   C406    1.411   .     S
C393   C405    1.415   .     S
C394   O473    1.288   .     A
C394   O474    1.287   .     A
C395   C404    1.415   .     S
C396   H419    1.109   .     S
C396   H418    1.115   .     S
C396   H417    1.109   .     S
C396   O461    1.412   .     S
C397   H422    1.115   .     S
C397   O462    1.413   .     S
C397   H423    1.109   .     S
C397   H421    1.109   .     S
C398   H426    1.109   .     S
C398   H424    1.109   .     S
C398   O463    1.412   .     S
C398   H425    1.115   .     S
C399   H428    1.115   .     S
C399   H429    1.109   .     S
C399   O465    1.413   .     S
C399   H427    1.109   .     S
C400   H430    1.109   .     S
C400   H433    1.113   .     S
C400   H432    1.113   .     S
C400   O466    1.410   .     S
C401   H434    1.109   .     S
C401   O467    1.411   .     S
C401   H436    1.112   .     S
C401   H195    1.113   1_565 S
C402   H439    1.113   .     S
C402   H438    1.113   .     S
C402   H437    1.109   .     S
C402   O468    1.410   .     S
C403   H443    1.112   .     S
C403   H440    1.109   .     S
C403   O469    1.411   .     S
C404   O456    1.289   .     A
C404   O476    1.288   .     A
C405   O454    1.289   .     A
C405   O455    1.288   .     A
C406   O457    1.287   .     A
C406   O460    1.288   .     A
C407   O459    1.287   .     A
C407   O458    1.288   .     A
C408   O461    1.383   .     S
C408   C1204   1.441   1_654 S
C408   N330    1.369   1_655 S
H441   C163    1.113   1_565 S
N449   Zn477   2.026   .     S
N450   Zn478   2.026   .     S
N451   Zn479   2.026   .     S
N452   Zn480   2.026   .     S
O453   Zn477   1.993   .     S
O454   Zn480   1.993   .     S
O455   Zn479   1.993   .     S
O456   Zn240   1.993   1_565 S
O457   Zn240   1.988   1_565 S
O458   Zn479   1.988   .     S
O459   Zn480   1.988   .     S
O460   Zn239   1.988   1_565 S
O464   Zn358   1.993   1_655 S
O470   Zn357   1.993   1_655 S
O471   Zn478   1.993   .     S
O472   Zn358   1.988   1_655 S
O473   Zn477   1.988   .     S
O474   Zn478   1.988   .     S
O475   Zn357   1.988   1_655 S
O476   Zn239   1.993   1_565 S
C481   O591    1.289   .     A
C481   C510    1.415   .     S
C481   O573    1.288   .     A
C482   O582    1.383   .     S
C482   C1083   1.441   .     S
C482   N689    1.370   .     S
C483   N570    1.369   .     A
C483   O583    1.383   .     S
C483   C122    1.441   1_455 S
C484   N569    1.370   .     A
C484   O585    1.383   .     S
C484   C1128   1.441   1_455 S
C485   O586    1.376   .     S
C485   N572    1.371   .     A
C486   O587    1.377   .     S
C486   C967    1.421   .     S
C486   N811    1.371   .     S
C487   O588    1.376   .     S
C487   N812    1.371   .     S
C488   N571    1.371   .     A
C488   O589    1.377   .     S
C488   C965    1.421   .     S
C489   H529    1.084   .     S
C489   C500    1.371   .     A
C489   C508    1.395   .     A
C490   C507    1.395   .     A
C490   C501    1.371   .     A
C490   H540    1.083   .     S
C491   C498    1.371   .     A
C491   H551    1.084   .     S
C491   C507    1.395   .     A
C492   C509    1.415   .     S
C492   O590    1.288   .     A
C492   O584    1.289   .     A
C493   C508    1.395   .     A
C493   C499    1.371   .     A
C493   H562    1.083   .     S
C494   H564    1.084   .     S
C494   C510    1.396   .     A
C494   C505    1.371   .     A
C495   H565    1.083   .     S
C495   C509    1.395   .     A
C495   C506    1.371   .     A
C496   H566    1.084   .     S
C496   C509    1.396   .     A
C496   C502    1.371   .     A
C497   C510    1.395   .     A
C497   C504    1.371   .     A
C497   H567    1.083   .     S
C498   H568    1.084   .     S
C498   C512    1.395   .     A
C499   C511    1.395   .     A
C499   H530    1.084   .     S
C500   H531    1.084   .     S
C500   C511    1.395   .     A
C501   C512    1.395   .     A
C501   H532    1.084   .     S
C502   C515    1.396   .     A
C502   H533    1.083   .     S
C503   C508    1.411   .     S
C503   O592    1.287   .     A
C503   O595    1.288   .     A
C504   H534    1.083   .     S
C504   C513    1.396   .     A
C505   H535    1.083   .     S
C505   C513    1.396   .     A
C506   H536    1.083   .     S
C506   C515    1.396   .     A
C507   C514    1.411   .     S
C511   C527    1.411   .     S
C512   C526    1.411   .     S
C513   C525    1.415   .     S
C514   O593    1.288   .     A
C514   O594    1.287   .     A
C515   C524    1.415   .     S
C516   H539    1.109   .     S
C516   H538    1.115   .     S
C516   H537    1.109   .     S
C516   O581    1.412   .     S
C517   H542    1.115   .     S
C517   O582    1.413   .     S
C517   H543    1.109   .     S
C517   H541    1.109   .     S
C518   H546    1.109   .     S
C518   H544    1.109   .     S
C518   O583    1.412   .     S
C518   H545    1.115   .     S
C519   H548    1.115   .     S
C519   H549    1.109   .     S
C519   O585    1.413   .     S
C519   H547    1.109   .     S
C520   H550    1.109   .     S
C520   H553    1.113   .     S
C520   H552    1.113   .     S
C520   O586    1.410   .     S
C521   H554    1.109   .     S
C521   O587    1.411   .     S
C521   H556    1.112   .     S
C521   H795    1.113   .     S
C522   H559    1.113   .     S
C522   H558    1.113   .     S
C522   H557    1.109   .     S
C522   O588    1.410   .     S
C523   H563    1.112   .     S
C523   H560    1.109   .     S
C523   O589    1.411   .     S
C523   H801    1.113   1_545 S
C524   O576    1.289   .     A
C524   O596    1.288   .     A
C525   O574    1.289   .     A
C525   O575    1.288   .     A
C526   O577    1.287   .     A
C526   O580    1.288   .     A
C527   O579    1.287   .     A
C527   O578    1.288   .     A
C528   O581    1.383   .     S
C528   N690    1.369   .     S
H555   C761    1.113   1_545 S
H561   C763    1.113   .     S
N569   C602    1.370   1_455 S
N569   Zn597   2.026   .     S
N570   C648    1.369   1_455 S
N570   Zn598   2.026   .     S
N571   Zn599   2.026   .     S
N571   C726    1.371   1_545 S
N572   Zn600   2.026   .     S
N572   C727    1.371   1_545 S
O573   Zn597   1.993   .     S
O574   Zn600   1.993   .     S
O575   Zn599   1.993   .     S
O576   Zn840   1.993   .     S
O577   Zn840   1.988   .     S
O578   Zn599   1.988   .     S
O579   Zn600   1.988   .     S
O580   Zn839   1.988   .     S
O584   Zn718   1.993   .     S
O590   Zn717   1.993   .     S
O591   Zn598   1.993   .     S
O592   Zn718   1.988   .     S
O593   Zn597   1.988   .     S
O594   Zn598   1.988   .     S
O595   Zn717   1.988   .     S
O596   Zn839   1.993   .     S
Zn597  O715    1.988   1_455 S
Zn597  O710    1.993   1_455 S
Zn598  O704    1.993   1_455 S
Zn598  O712    1.988   1_455 S
Zn599  O820    1.988   1_545 S
Zn599  O836    1.993   1_545 S
Zn600  O817    1.988   1_545 S
Zn600  O816    1.993   1_545 S
C601   O711    1.289   .     A
C601   C630    1.415   .     S
C601   O693    1.288   .     A
C602   O702    1.383   .     S
C602   C963    1.441   1_655 S
C602   N569    1.370   1_655 S
C603   N690    1.369   .     A
C603   O703    1.383   .     S
C604   N689    1.370   .     A
C604   O705    1.383   .     S
C604   C1008   1.441   .     S
C605   O706    1.376   .     S
C605   N692    1.371   .     A
C606   O707    1.377   .     S
C606   C1087   1.421   .     S
C606   N931    1.371   .     S
C607   O708    1.376   .     S
C607   N932    1.371   .     S
C608   N691    1.371   .     A
C608   O709    1.377   .     S
C608   C1085   1.421   .     S
C609   H649    1.084   .     S
C609   C620    1.371   .     A
C609   C628    1.395   .     A
C610   C627    1.395   .     A
C610   C621    1.371   .     A
C610   H660    1.083   .     S
C611   C618    1.371   .     A
C611   H671    1.084   .     S
C611   C627    1.395   .     A
C612   C629    1.415   .     S
C612   O710    1.288   .     A
C612   O704    1.289   .     A
C613   C628    1.395   .     A
C613   C619    1.371   .     A
C613   H682    1.083   .     S
C614   H684    1.084   .     S
C614   C630    1.396   .     A
C614   C625    1.371   .     A
C615   H685    1.083   .     S
C615   C629    1.395   .     A
C615   C626    1.371   .     A
C616   H686    1.084   .     S
C616   C629    1.396   .     A
C616   C622    1.371   .     A
C617   C630    1.395   .     A
C617   C624    1.371   .     A
C617   H687    1.083   .     S
C618   H688    1.084   .     S
C618   C632    1.395   .     A
C619   C631    1.395   .     A
C619   H650    1.084   .     S
C620   H651    1.084   .     S
C620   C631    1.395   .     A
C621   C632    1.395   .     A
C621   H652    1.084   .     S
C622   C635    1.396   .     A
C622   H653    1.083   .     S
C623   C628    1.411   .     S
C623   O712    1.287   .     A
C623   O715    1.288   .     A
C624   H654    1.083   .     S
C624   C633    1.396   .     A
C625   H655    1.083   .     S
C625   C633    1.396   .     A
C626   H656    1.083   .     S
C626   C635    1.396   .     A
C627   C634    1.411   .     S
C631   C647    1.411   .     S
C632   C646    1.411   .     S
C633   C645    1.415   .     S
C634   O713    1.288   .     A
C634   O714    1.287   .     A
C635   C644    1.415   .     S
C636   H659    1.109   .     S
C636   H658    1.115   .     S
C636   H657    1.109   .     S
C636   O701    1.412   .     S
C637   H662    1.115   .     S
C637   O702    1.413   .     S
C637   H663    1.109   .     S
C637   H661    1.109   .     S
C638   H666    1.109   .     S
C638   H664    1.109   .     S
C638   O703    1.412   .     S
C638   H665    1.115   .     S
C639   H668    1.115   .     S
C639   H669    1.109   .     S
C639   O705    1.413   .     S
C639   H667    1.109   .     S
C640   H670    1.109   .     S
C640   H673    1.113   .     S
C640   H672    1.113   .     S
C640   O706    1.410   .     S
C641   H674    1.109   .     S
C641   O707    1.411   .     S
C641   H676    1.112   .     S
C641   H915    1.113   .     S
C642   H679    1.113   .     S
C642   H678    1.113   .     S
C642   H677    1.109   .     S
C642   O708    1.410   .     S
C643   H683    1.112   .     S
C643   H680    1.109   .     S
C643   O709    1.411   .     S
C643   H921    1.113   1_545 S
C644   O696    1.289   .     A
C644   O716    1.288   .     A
C645   O694    1.289   .     A
C645   O695    1.288   .     A
C646   O697    1.287   .     A
C646   O700    1.288   .     A
C647   O699    1.287   .     A
C647   O698    1.288   .     A
C648   O701    1.383   .     S
C648   C4      1.441   1_655 S
C648   N570    1.369   1_655 S
H675   C881    1.113   1_545 S
H681   C883    1.113   .     S
N689   Zn717   2.026   .     S
N690   Zn718   2.026   .     S
N691   Zn719   2.026   .     S
N691   C846    1.371   1_545 S
N692   Zn720   2.026   .     S
N692   C847    1.371   1_545 S
O693   Zn717   1.993   .     S
O694   Zn720   1.993   .     S
O695   Zn719   1.993   .     S
O696   Zn960   1.993   .     S
O697   Zn960   1.988   .     S
O698   Zn719   1.988   .     S
O699   Zn720   1.988   .     S
O700   Zn959   1.988   .     S
O704   Zn598   1.993   1_655 S
O710   Zn597   1.993   1_655 S
O711   Zn718   1.993   .     S
O712   Zn598   1.988   1_655 S
O713   Zn717   1.988   .     S
O714   Zn718   1.988   .     S
O715   Zn597   1.988   1_655 S
O716   Zn959   1.993   .     S
Zn719  O940    1.988   1_545 S
Zn719  O956    1.993   1_545 S
Zn720  O937    1.988   1_545 S
Zn720  O936    1.993   1_545 S
C721   O831    1.289   .     A
C721   C750    1.415   .     S
C721   O813    1.288   .     A
C722   O822    1.383   .     S
C722   C1323   1.441   .     S
C722   N929    1.370   .     S
C723   N810    1.369   .     A
C723   O823    1.383   .     S
C723   C362    1.441   1_455 S
C724   N809    1.370   .     A
C724   O825    1.383   .     S
C724   C1368   1.441   1_455 S
C725   O826    1.376   .     S
C725   N812    1.371   .     A
C726   O827    1.377   .     S
C726   C1207   1.421   .     S
C726   N571    1.371   1_565 S
C727   O828    1.376   .     S
C727   N572    1.371   1_565 S
C728   N811    1.371   .     A
C728   O829    1.377   .     S
C728   C1205   1.421   .     S
C729   H769    1.084   .     S
C729   C740    1.371   .     A
C729   C748    1.395   .     A
C730   C747    1.395   .     A
C730   C741    1.371   .     A
C730   H780    1.083   .     S
C731   C738    1.371   .     A
C731   H791    1.084   .     S
C731   C747    1.395   .     A
C732   C749    1.415   .     S
C732   O830    1.288   .     A
C732   O824    1.289   .     A
C733   C748    1.395   .     A
C733   C739    1.371   .     A
C733   H802    1.083   .     S
C734   H804    1.084   .     S
C734   C750    1.396   .     A
C734   C745    1.371   .     A
C735   H805    1.083   .     S
C735   C749    1.395   .     A
C735   C746    1.371   .     A
C736   H806    1.084   .     S
C736   C749    1.396   .     A
C736   C742    1.371   .     A
C737   C750    1.395   .     A
C737   C744    1.371   .     A
C737   H807    1.083   .     S
C738   H808    1.084   .     S
C738   C752    1.395   .     A
C739   C751    1.395   .     A
C739   H770    1.084   .     S
C740   H771    1.084   .     S
C740   C751    1.395   .     A
C741   C752    1.395   .     A
C741   H772    1.084   .     S
C742   C755    1.396   .     A
C742   H773    1.083   .     S
C743   C748    1.411   .     S
C743   O832    1.287   .     A
C743   O835    1.288   .     A
C744   H774    1.083   .     S
C744   C753    1.396   .     A
C745   H775    1.083   .     S
C745   C753    1.396   .     A
C746   H776    1.083   .     S
C746   C755    1.396   .     A
C747   C754    1.411   .     S
C751   C767    1.411   .     S
C752   C766    1.411   .     S
C753   C765    1.415   .     S
C754   O833    1.288   .     A
C754   O834    1.287   .     A
C755   C764    1.415   .     S
C756   H779    1.109   .     S
C756   H778    1.115   .     S
C756   H777    1.109   .     S
C756   O821    1.412   .     S
C757   H782    1.115   .     S
C757   O822    1.413   .     S
C757   H783    1.109   .     S
C757   H781    1.109   .     S
C758   H786    1.109   .     S
C758   H784    1.109   .     S
C758   O823    1.412   .     S
C758   H785    1.115   .     S
C759   H788    1.115   .     S
C759   H789    1.109   .     S
C759   O825    1.413   .     S
C759   H787    1.109   .     S
C760   H790    1.109   .     S
C760   H793    1.113   .     S
C760   H792    1.113   .     S
C760   O826    1.410   .     S
C761   H794    1.109   .     S
C761   O827    1.411   .     S
C761   H796    1.112   .     S
C761   H555    1.113   1_565 S
C762   H799    1.113   .     S
C762   H798    1.113   .     S
C762   H797    1.109   .     S
C762   O828    1.410   .     S
C763   H803    1.112   .     S
C763   H800    1.109   .     S
C763   O829    1.411   .     S
C764   O816    1.289   .     A
C764   O836    1.288   .     A
C765   O814    1.289   .     A
C765   O815    1.288   .     A
C766   O817    1.287   .     A
C766   O820    1.288   .     A
C767   O819    1.287   .     A
C767   O818    1.288   .     A
C768   O821    1.383   .     S
C768   N930    1.369   .     S
H801   C523    1.113   1_565 S
N809   C842    1.370   1_455 S
N809   Zn837   2.026   .     S
N810   C888    1.369   1_455 S
N810   Zn838   2.026   .     S
N811   Zn839   2.026   .     S
N812   Zn840   2.026   .     S
O813   Zn837   1.993   .     S
O814   Zn840   1.993   .     S
O815   Zn839   1.993   .     S
O816   Zn600   1.993   1_565 S
O817   Zn600   1.988   1_565 S
O818   Zn839   1.988   .     S
O819   Zn840   1.988   .     S
O820   Zn599   1.988   1_565 S
O824   Zn958   1.993   .     S
O830   Zn957   1.993   .     S
O831   Zn838   1.993   .     S
O832   Zn958   1.988   .     S
O833   Zn837   1.988   .     S
O834   Zn838   1.988   .     S
O835   Zn957   1.988   .     S
O836   Zn599   1.993   1_565 S
Zn837  O955    1.988   1_455 S
Zn837  O950    1.993   1_455 S
Zn838  O944    1.993   1_455 S
Zn838  O952    1.988   1_455 S
C841   O951    1.289   .     A
C841   C870    1.415   .     S
C841   O933    1.288   .     A
C842   O942    1.383   .     S
C842   C1203   1.441   1_655 S
C842   N809    1.370   1_655 S
C843   N930    1.369   .     A
C843   O943    1.383   .     S
C844   N929    1.370   .     A
C844   O945    1.383   .     S
C844   C1248   1.441   .     S
C845   O946    1.376   .     S
C845   N932    1.371   .     A
C846   O947    1.377   .     S
C846   C1327   1.421   .     S
C846   N691    1.371   1_565 S
C847   O948    1.376   .     S
C847   N692    1.371   1_565 S
C848   N931    1.371   .     A
C848   O949    1.377   .     S
C848   C1325   1.421   .     S
C849   H889    1.084   .     S
C849   C860    1.371   .     A
C849   C868    1.395   .     A
C850   C867    1.395   .     A
C850   C861    1.371   .     A
C850   H900    1.083   .     S
C851   C858    1.371   .     A
C851   H911    1.084   .     S
C851   C867    1.395   .     A
C852   C869    1.415   .     S
C852   O950    1.288   .     A
C852   O944    1.289   .     A
C853   C868    1.395   .     A
C853   C859    1.371   .     A
C853   H922    1.083   .     S
C854   H924    1.084   .     S
C854   C870    1.396   .     A
C854   C865    1.371   .     A
C855   H925    1.083   .     S
C855   C869    1.395   .     A
C855   C866    1.371   .     A
C856   H926    1.084   .     S
C856   C869    1.396   .     A
C856   C862    1.371   .     A
C857   C870    1.395   .     A
C857   C864    1.371   .     A
C857   H927    1.083   .     S
C858   H928    1.084   .     S
C858   C872    1.395   .     A
C859   C871    1.395   .     A
C859   H890    1.084   .     S
C860   H891    1.084   .     S
C860   C871    1.395   .     A
C861   C872    1.395   .     A
C861   H892    1.084   .     S
C862   C875    1.396   .     A
C862   H893    1.083   .     S
C863   C868    1.411   .     S
C863   O952    1.287   .     A
C863   O955    1.288   .     A
C864   H894    1.083   .     S
C864   C873    1.396   .     A
C865   H895    1.083   .     S
C865   C873    1.396   .     A
C866   H896    1.083   .     S
C866   C875    1.396   .     A
C867   C874    1.411   .     S
C871   C887    1.411   .     S
C872   C886    1.411   .     S
C873   C885    1.415   .     S
C874   O953    1.288   .     A
C874   O954    1.287   .     A
C875   C884    1.415   .     S
C876   H899    1.109   .     S
C876   H898    1.115   .     S
C876   H897    1.109   .     S
C876   O941    1.412   .     S
C877   H902    1.115   .     S
C877   O942    1.413   .     S
C877   H903    1.109   .     S
C877   H901    1.109   .     S
C878   H906    1.109   .     S
C878   H904    1.109   .     S
C878   O943    1.412   .     S
C878   H905    1.115   .     S
C879   H908    1.115   .     S
C879   H909    1.109   .     S
C879   O945    1.413   .     S
C879   H907    1.109   .     S
C880   H910    1.109   .     S
C880   H913    1.113   .     S
C880   H912    1.113   .     S
C880   O946    1.410   .     S
C881   H914    1.109   .     S
C881   O947    1.411   .     S
C881   H916    1.112   .     S
C881   H675    1.113   1_565 S
C882   H919    1.113   .     S
C882   H918    1.113   .     S
C882   H917    1.109   .     S
C882   O948    1.410   .     S
C883   H923    1.112   .     S
C883   H920    1.109   .     S
C883   O949    1.411   .     S
C884   O936    1.289   .     A
C884   O956    1.288   .     A
C885   O934    1.289   .     A
C885   O935    1.288   .     A
C886   O937    1.287   .     A
C886   O940    1.288   .     A
C887   O939    1.287   .     A
C887   O938    1.288   .     A
C888   O941    1.383   .     S
C888   C244    1.441   1_655 S
C888   N810    1.369   1_655 S
H921   C643    1.113   1_565 S
N929   Zn957   2.026   .     S
N930   Zn958   2.026   .     S
N931   Zn959   2.026   .     S
N932   Zn960   2.026   .     S
O933   Zn957   1.993   .     S
O934   Zn960   1.993   .     S
O935   Zn959   1.993   .     S
O936   Zn720   1.993   1_565 S
O937   Zn720   1.988   1_565 S
O938   Zn959   1.988   .     S
O939   Zn960   1.988   .     S
O940   Zn719   1.988   1_565 S
O944   Zn838   1.993   1_655 S
O950   Zn837   1.993   1_655 S
O951   Zn958   1.993   .     S
O952   Zn838   1.988   1_655 S
O953   Zn957   1.988   .     S
O954   Zn958   1.988   .     S
O955   Zn837   1.988   1_655 S
O956   Zn719   1.993   1_565 S
C961   O1071   1.289   .     A
C961   C990    1.415   .     S
C961   O1053   1.288   .     A
C962   O1062   1.383   .     S
C962   C123    1.441   1_556 S
C962   N1169   1.370   .     S
C963   N1050   1.369   .     A
C963   O1063   1.383   .     S
C963   C602    1.441   1_455 S
C964   N1049   1.370   .     A
C964   O1065   1.383   .     S
C964   C168    1.441   1_456 S
C965   O1066   1.376   .     S
C965   N1052   1.371   .     A
C966   O1067   1.377   .     S
C966   C7      1.421   1_556 S
C966   N1291   1.371   .     S
C967   O1068   1.376   .     S
C967   N1292   1.371   .     S
C968   N1051   1.371   .     A
C968   O1069   1.377   .     S
C968   C5      1.421   1_556 S
C969   H1009   1.084   .     S
C969   C980    1.371   .     A
C969   C988    1.395   .     A
C970   C987    1.395   .     A
C970   C981    1.371   .     A
C970   H1020   1.083   .     S
C971   C978    1.371   .     A
C971   H1031   1.084   .     S
C971   C987    1.395   .     A
C972   C989    1.415   .     S
C972   O1070   1.288   .     A
C972   O1064   1.289   .     A
C973   C988    1.395   .     A
C973   C979    1.371   .     A
C973   H1042   1.083   .     S
C974   H1044   1.084   .     S
C974   C990    1.396   .     A
C974   C985    1.371   .     A
C975   H1045   1.083   .     S
C975   C989    1.395   .     A
C975   C986    1.371   .     A
C976   H1046   1.084   .     S
C976   C989    1.396   .     A
C976   C982    1.371   .     A
C977   C990    1.395   .     A
C977   C984    1.371   .     A
C977   H1047   1.083   .     S
C978   H1048   1.084   .     S
C978   C992    1.395   .     A
C979   C991    1.395   .     A
C979   H1010   1.084   .     S
C980   H1011   1.084   .     S
C980   C991    1.395   .     A
C981   C992    1.395   .     A
C981   H1012   1.084   .     S
C982   C995    1.396   .     A
C982   H1013   1.083   .     S
C983   C988    1.411   .     S
C983   O1072   1.287   .     A
C983   O1075   1.288   .     A
C984   H1014   1.083   .     S
C984   C993    1.396   .     A
C985   H1015   1.083   .     S
C985   C993    1.396   .     A
C986   H1016   1.083   .     S
C986   C995    1.396   .     A
C987   C994    1.411   .     S
C991   C1007   1.411   .     S
C992   C1006   1.411   .     S
C993   C1005   1.415   .     S
C994   O1073   1.288   .     A
C994   O1074   1.287   .     A
C995   C1004   1.415   .     S
C996   H1019   1.109   .     S
C996   H1018   1.115   .     S
C996   H1017   1.109   .     S
C996   O1061   1.412   .     S
C997   H1022   1.115   .     S
C997   O1062   1.413   .     S
C997   H1023   1.109   .     S
C997   H1021   1.109   .     S
C998   H1026   1.109   .     S
C998   H1024   1.109   .     S
C998   O1063   1.412   .     S
C998   H1025   1.115   .     S
C999   H1028   1.115   .     S
C999   H1029   1.109   .     S
C999   O1065   1.413   .     S
C999   H1027   1.109   .     S
C1000  H1030   1.109   .     S
C1000  H1033   1.113   .     S
C1000  H1032   1.113   .     S
C1000  O1066   1.410   .     S
C1001  H1034   1.109   .     S
C1001  O1067   1.411   .     S
C1001  H1036   1.112   .     S
C1001  H1275   1.113   .     S
C1002  H1039   1.113   .     S
C1002  H1038   1.113   .     S
C1002  H1037   1.109   .     S
C1002  O1068   1.410   .     S
C1003  H1043   1.112   .     S
C1003  H1040   1.109   .     S
C1003  O1069   1.411   .     S
C1003  H1281   1.113   1_545 S
C1004  O1056   1.289   .     A
C1004  O1076   1.288   .     A
C1005  O1054   1.289   .     A
C1005  O1055   1.288   .     A
C1006  O1057   1.287   .     A
C1006  O1060   1.288   .     A
C1007  O1059   1.287   .     A
C1007  O1058   1.288   .     A
C1008  O1061   1.383   .     S
C1008  N1170   1.369   .     S
H1035  C1241   1.113   1_545 S
H1041  C1243   1.113   .     S
N1049  C1082   1.370   1_455 S
N1049  Zn1077  2.026   .     S
N1050  C1128   1.369   1_455 S
N1050  Zn1078  2.026   .     S
N1051  Zn1079  2.026   .     S
N1051  C1206   1.371   1_545 S
N1052  Zn1080  2.026   .     S
N1052  C1207   1.371   1_545 S
O1053  Zn1077  1.993   .     S
O1054  Zn1080  1.993   .     S
O1055  Zn1079  1.993   .     S
O1056  Zn1320  1.993   .     S
O1057  Zn1320  1.988   .     S
O1058  Zn1079  1.988   .     S
O1059  Zn1080  1.988   .     S
O1060  Zn1319  1.988   .     S
O1064  Zn1198  1.993   .     S
O1070  Zn1197  1.993   .     S
O1071  Zn1078  1.993   .     S
O1072  Zn1198  1.988   .     S
O1073  Zn1077  1.988   .     S
O1074  Zn1078  1.988   .     S
O1075  Zn1197  1.988   .     S
O1076  Zn1319  1.993   .     S
Zn1077 O1195   1.988   1_455 S
Zn1077 O1190   1.993   1_455 S
Zn1078 O1184   1.993   1_455 S
Zn1078 O1192   1.988   1_455 S
Zn1079 O1300   1.988   1_545 S
Zn1079 O1316   1.993   1_545 S
Zn1080 O1297   1.988   1_545 S
Zn1080 O1296   1.993   1_545 S
C1081  O1191   1.289   .     A
C1081  C1110   1.415   .     S
C1081  O1173   1.288   .     A
C1082  O1182   1.383   .     S
C1082  C3      1.441   1_656 S
C1082  N1049   1.370   1_655 S
C1083  N1170   1.369   .     A
C1083  O1183   1.383   .     S
C1084  N1169   1.370   .     A
C1084  O1185   1.383   .     S
C1084  C48     1.441   1_556 S
C1085  O1186   1.376   .     S
C1085  N1172   1.371   .     A
C1086  O1187   1.377   .     S
C1086  C127    1.421   1_556 S
C1086  N1411   1.371   .     S
C1087  O1188   1.376   .     S
C1087  N1412   1.371   .     S
C1088  N1171   1.371   .     A
C1088  O1189   1.377   .     S
C1088  C125    1.421   1_556 S
C1089  H1129   1.084   .     S
C1089  C1100   1.371   .     A
C1089  C1108   1.395   .     A
C1090  C1107   1.395   .     A
C1090  C1101   1.371   .     A
C1090  H1140   1.083   .     S
C1091  C1098   1.371   .     A
C1091  H1151   1.084   .     S
C1091  C1107   1.395   .     A
C1092  C1109   1.415   .     S
C1092  O1190   1.288   .     A
C1092  O1184   1.289   .     A
C1093  C1108   1.395   .     A
C1093  C1099   1.371   .     A
C1093  H1162   1.083   .     S
C1094  H1164   1.084   .     S
C1094  C1110   1.396   .     A
C1094  C1105   1.371   .     A
C1095  H1165   1.083   .     S
C1095  C1109   1.395   .     A
C1095  C1106   1.371   .     A
C1096  H1166   1.084   .     S
C1096  C1109   1.396   .     A
C1096  C1102   1.371   .     A
C1097  C1110   1.395   .     A
C1097  C1104   1.371   .     A
C1097  H1167   1.083   .     S
C1098  H1168   1.084   .     S
C1098  C1112   1.395   .     A
C1099  C1111   1.395   .     A
C1099  H1130   1.084   .     S
C1100  H1131   1.084   .     S
C1100  C1111   1.395   .     A
C1101  C1112   1.395   .     A
C1101  H1132   1.084   .     S
C1102  C1115   1.396   .     A
C1102  H1133   1.083   .     S
C1103  C1108   1.411   .     S
C1103  O1192   1.287   .     A
C1103  O1195   1.288   .     A
C1104  H1134   1.083   .     S
C1104  C1113   1.396   .     A
C1105  H1135   1.083   .     S
C1105  C1113   1.396   .     A
C1106  H1136   1.083   .     S
C1106  C1115   1.396   .     A
C1107  C1114   1.411   .     S
C1111  C1127   1.411   .     S
C1112  C1126   1.411   .     S
C1113  C1125   1.415   .     S
C1114  O1193   1.288   .     A
C1114  O1194   1.287   .     A
C1115  C1124   1.415   .     S
C1116  H1139   1.109   .     S
C1116  H1138   1.115   .     S
C1116  H1137   1.109   .     S
C1116  O1181   1.412   .     S
C1117  H1142   1.115   .     S
C1117  O1182   1.413   .     S
C1117  H1143   1.109   .     S
C1117  H1141   1.109   .     S
C1118  H1146   1.109   .     S
C1118  H1144   1.109   .     S
C1118  O1183   1.412   .     S
C1118  H1145   1.115   .     S
C1119  H1148   1.115   .     S
C1119  H1149   1.109   .     S
C1119  O1185   1.413   .     S
C1119  H1147   1.109   .     S
C1120  H1150   1.109   .     S
C1120  H1153   1.113   .     S
C1120  H1152   1.113   .     S
C1120  O1186   1.410   .     S
C1121  H1154   1.109   .     S
C1121  O1187   1.411   .     S
C1121  H1156   1.112   .     S
C1121  H1395   1.113   .     S
C1122  H1159   1.113   .     S
C1122  H1158   1.113   .     S
C1122  H1157   1.109   .     S
C1122  O1188   1.410   .     S
C1123  H1163   1.112   .     S
C1123  H1160   1.109   .     S
C1123  O1189   1.411   .     S
C1123  H1401   1.113   1_545 S
C1124  O1176   1.289   .     A
C1124  O1196   1.288   .     A
C1125  O1174   1.289   .     A
C1125  O1175   1.288   .     A
C1126  O1177   1.287   .     A
C1126  O1180   1.288   .     A
C1127  O1179   1.287   .     A
C1127  O1178   1.288   .     A
C1128  O1181   1.383   .     S
C1128  C484    1.441   1_655 S
C1128  N1050   1.369   1_655 S
H1155  C1361   1.113   1_545 S
H1161  C1363   1.113   .     S
N1169  Zn1197  2.026   .     S
N1170  Zn1198  2.026   .     S
N1171  Zn1199  2.026   .     S
N1171  C1326   1.371   1_545 S
N1172  Zn1200  2.026   .     S
N1172  C1327   1.371   1_545 S
O1173  Zn1197  1.993   .     S
O1174  Zn1200  1.993   .     S
O1175  Zn1199  1.993   .     S
O1176  Zn1440  1.993   .     S
O1177  Zn1440  1.988   .     S
O1178  Zn1199  1.988   .     S
O1179  Zn1200  1.988   .     S
O1180  Zn1439  1.988   .     S
O1184  Zn1078  1.993   1_655 S
O1190  Zn1077  1.993   1_655 S
O1191  Zn1198  1.993   .     S
O1192  Zn1078  1.988   1_655 S
O1193  Zn1197  1.988   .     S
O1194  Zn1198  1.988   .     S
O1195  Zn1077  1.988   1_655 S
O1196  Zn1439  1.993   .     S
Zn1199 O1420   1.988   1_545 S
Zn1199 O1436   1.993   1_545 S
Zn1200 O1417   1.988   1_545 S
Zn1200 O1416   1.993   1_545 S
C1201  O1311   1.289   .     A
C1201  C1230   1.415   .     S
C1201  O1293   1.288   .     A
C1202  O1302   1.383   .     S
C1202  C363    1.441   1_556 S
C1202  N1409   1.370   .     S
C1203  N1290   1.369   .     A
C1203  O1303   1.383   .     S
C1203  C842    1.441   1_455 S
C1204  N1289   1.370   .     A
C1204  O1305   1.383   .     S
C1204  C408    1.441   1_456 S
C1205  O1306   1.376   .     S
C1205  N1292   1.371   .     A
C1206  O1307   1.377   .     S
C1206  C247    1.421   1_556 S
C1206  N1051   1.371   1_565 S
C1207  O1308   1.376   .     S
C1207  N1052   1.371   1_565 S
C1208  N1291   1.371   .     A
C1208  O1309   1.377   .     S
C1208  C245    1.421   1_556 S
C1209  H1249   1.084   .     S
C1209  C1220   1.371   .     A
C1209  C1228   1.395   .     A
C1210  C1227   1.395   .     A
C1210  C1221   1.371   .     A
C1210  H1260   1.083   .     S
C1211  C1218   1.371   .     A
C1211  H1271   1.084   .     S
C1211  C1227   1.395   .     A
C1212  C1229   1.415   .     S
C1212  O1310   1.288   .     A
C1212  O1304   1.289   .     A
C1213  C1228   1.395   .     A
C1213  C1219   1.371   .     A
C1213  H1282   1.083   .     S
C1214  H1284   1.084   .     S
C1214  C1230   1.396   .     A
C1214  C1225   1.371   .     A
C1215  H1285   1.083   .     S
C1215  C1229   1.395   .     A
C1215  C1226   1.371   .     A
C1216  H1286   1.084   .     S
C1216  C1229   1.396   .     A
C1216  C1222   1.371   .     A
C1217  C1230   1.395   .     A
C1217  C1224   1.371   .     A
C1217  H1287   1.083   .     S
C1218  H1288   1.084   .     S
C1218  C1232   1.395   .     A
C1219  C1231   1.395   .     A
C1219  H1250   1.084   .     S
C1220  H1251   1.084   .     S
C1220  C1231   1.395   .     A
C1221  C1232   1.395   .     A
C1221  H1252   1.084   .     S
C1222  C1235   1.396   .     A
C1222  H1253   1.083   .     S
C1223  C1228   1.411   .     S
C1223  O1312   1.287   .     A
C1223  O1315   1.288   .     A
C1224  H1254   1.083   .     S
C1224  C1233   1.396   .     A
C1225  H1255   1.083   .     S
C1225  C1233   1.396   .     A
C1226  H1256   1.083   .     S
C1226  C1235   1.396   .     A
C1227  C1234   1.411   .     S
C1231  C1247   1.411   .     S
C1232  C1246   1.411   .     S
C1233  C1245   1.415   .     S
C1234  O1313   1.288   .     A
C1234  O1314   1.287   .     A
C1235  C1244   1.415   .     S
C1236  H1259   1.109   .     S
C1236  H1258   1.115   .     S
C1236  H1257   1.109   .     S
C1236  O1301   1.412   .     S
C1237  H1262   1.115   .     S
C1237  O1302   1.413   .     S
C1237  H1263   1.109   .     S
C1237  H1261   1.109   .     S
C1238  H1266   1.109   .     S
C1238  H1264   1.109   .     S
C1238  O1303   1.412   .     S
C1238  H1265   1.115   .     S
C1239  H1268   1.115   .     S
C1239  H1269   1.109   .     S
C1239  O1305   1.413   .     S
C1239  H1267   1.109   .     S
C1240  H1270   1.109   .     S
C1240  H1273   1.113   .     S
C1240  H1272   1.113   .     S
C1240  O1306   1.410   .     S
C1241  H1274   1.109   .     S
C1241  O1307   1.411   .     S
C1241  H1276   1.112   .     S
C1241  H1035   1.113   1_565 S
C1242  H1279   1.113   .     S
C1242  H1278   1.113   .     S
C1242  H1277   1.109   .     S
C1242  O1308   1.410   .     S
C1243  H1283   1.112   .     S
C1243  H1280   1.109   .     S
C1243  O1309   1.411   .     S
C1244  O1296   1.289   .     A
C1244  O1316   1.288   .     A
C1245  O1294   1.289   .     A
C1245  O1295   1.288   .     A
C1246  O1297   1.287   .     A
C1246  O1300   1.288   .     A
C1247  O1299   1.287   .     A
C1247  O1298   1.288   .     A
C1248  O1301   1.383   .     S
C1248  N1410   1.369   .     S
H1281  C1003   1.113   1_565 S
N1289  C1322   1.370   1_455 S
N1289  Zn1317  2.026   .     S
N1290  C1368   1.369   1_455 S
N1290  Zn1318  2.026   .     S
N1291  Zn1319  2.026   .     S
N1292  Zn1320  2.026   .     S
O1293  Zn1317  1.993   .     S
O1294  Zn1320  1.993   .     S
O1295  Zn1319  1.993   .     S
O1296  Zn1080  1.993   1_565 S
O1297  Zn1080  1.988   1_565 S
O1298  Zn1319  1.988   .     S
O1299  Zn1320  1.988   .     S
O1300  Zn1079  1.988   1_565 S
O1304  Zn1438  1.993   .     S
O1310  Zn1437  1.993   .     S
O1311  Zn1318  1.993   .     S
O1312  Zn1438  1.988   .     S
O1313  Zn1317  1.988   .     S
O1314  Zn1318  1.988   .     S
O1315  Zn1437  1.988   .     S
O1316  Zn1079  1.993   1_565 S
Zn1317 O1435   1.988   1_455 S
Zn1317 O1430   1.993   1_455 S
Zn1318 O1424   1.993   1_455 S
Zn1318 O1432   1.988   1_455 S
C1321  O1431   1.289   .     A
C1321  C1350   1.415   .     S
C1321  O1413   1.288   .     A
C1322  O1422   1.383   .     S
C1322  C243    1.441   1_656 S
C1322  N1289   1.370   1_655 S
C1323  N1410   1.369   .     A
C1323  O1423   1.383   .     S
C1324  N1409   1.370   .     A
C1324  O1425   1.383   .     S
C1324  C288    1.441   1_556 S
C1325  O1426   1.376   .     S
C1325  N1412   1.371   .     A
C1326  O1427   1.377   .     S
C1326  C367    1.421   1_556 S
C1326  N1171   1.371   1_565 S
C1327  O1428   1.376   .     S
C1327  N1172   1.371   1_565 S
C1328  N1411   1.371   .     A
C1328  O1429   1.377   .     S
C1328  C365    1.421   1_556 S
C1329  H1369   1.084   .     S
C1329  C1340   1.371   .     A
C1329  C1348   1.395   .     A
C1330  C1347   1.395   .     A
C1330  C1341   1.371   .     A
C1330  H1380   1.083   .     S
C1331  C1338   1.371   .     A
C1331  H1391   1.084   .     S
C1331  C1347   1.395   .     A
C1332  C1349   1.415   .     S
C1332  O1430   1.288   .     A
C1332  O1424   1.289   .     A
C1333  C1348   1.395   .     A
C1333  C1339   1.371   .     A
C1333  H1402   1.083   .     S
C1334  H1404   1.084   .     S
C1334  C1350   1.396   .     A
C1334  C1345   1.371   .     A
C1335  H1405   1.083   .     S
C1335  C1349   1.395   .     A
C1335  C1346   1.371   .     A
C1336  H1406   1.084   .     S
C1336  C1349   1.396   .     A
C1336  C1342   1.371   .     A
C1337  C1350   1.395   .     A
C1337  C1344   1.371   .     A
C1337  H1407   1.083   .     S
C1338  H1408   1.084   .     S
C1338  C1352   1.395   .     A
C1339  C1351   1.395   .     A
C1339  H1370   1.084   .     S
C1340  H1371   1.084   .     S
C1340  C1351   1.395   .     A
C1341  C1352   1.395   .     A
C1341  H1372   1.084   .     S
C1342  C1355   1.396   .     A
C1342  H1373   1.083   .     S
C1343  C1348   1.411   .     S
C1343  O1432   1.287   .     A
C1343  O1435   1.288   .     A
C1344  H1374   1.083   .     S
C1344  C1353   1.396   .     A
C1345  H1375   1.083   .     S
C1345  C1353   1.396   .     A
C1346  H1376   1.083   .     S
C1346  C1355   1.396   .     A
C1347  C1354   1.411   .     S
C1351  C1367   1.411   .     S
C1352  C1366   1.411   .     S
C1353  C1365   1.415   .     S
C1354  O1433   1.288   .     A
C1354  O1434   1.287   .     A
C1355  C1364   1.415   .     S
C1356  H1379   1.109   .     S
C1356  H1378   1.115   .     S
C1356  H1377   1.109   .     S
C1356  O1421   1.412   .     S
C1357  H1382   1.115   .     S
C1357  O1422   1.413   .     S
C1357  H1383   1.109   .     S
C1357  H1381   1.109   .     S
C1358  H1386   1.109   .     S
C1358  H1384   1.109   .     S
C1358  O1423   1.412   .     S
C1358  H1385   1.115   .     S
C1359  H1388   1.115   .     S
C1359  H1389   1.109   .     S
C1359  O1425   1.413   .     S
C1359  H1387   1.109   .     S
C1360  H1390   1.109   .     S
C1360  H1393   1.113   .     S
C1360  H1392   1.113   .     S
C1360  O1426   1.410   .     S
C1361  H1394   1.109   .     S
C1361  O1427   1.411   .     S
C1361  H1396   1.112   .     S
C1361  H1155   1.113   1_565 S
C1362  H1399   1.113   .     S
C1362  H1398   1.113   .     S
C1362  H1397   1.109   .     S
C1362  O1428   1.410   .     S
C1363  H1403   1.112   .     S
C1363  H1400   1.109   .     S
C1363  O1429   1.411   .     S
C1364  O1416   1.289   .     A
C1364  O1436   1.288   .     A
C1365  O1414   1.289   .     A
C1365  O1415   1.288   .     A
C1366  O1417   1.287   .     A
C1366  O1420   1.288   .     A
C1367  O1419   1.287   .     A
C1367  O1418   1.288   .     A
C1368  O1421   1.383   .     S
C1368  C724    1.441   1_655 S
C1368  N1290   1.369   1_655 S
H1401  C1123   1.113   1_565 S
N1409  Zn1437  2.026   .     S
N1410  Zn1438  2.026   .     S
N1411  Zn1439  2.026   .     S
N1412  Zn1440  2.026   .     S
O1413  Zn1437  1.993   .     S
O1414  Zn1440  1.993   .     S
O1415  Zn1439  1.993   .     S
O1416  Zn1200  1.993   1_565 S
O1417  Zn1200  1.988   1_565 S
O1418  Zn1439  1.988   .     S
O1419  Zn1440  1.988   .     S
O1420  Zn1199  1.988   1_565 S
O1424  Zn1318  1.993   1_655 S
O1430  Zn1317  1.993   1_655 S
O1431  Zn1438  1.993   .     S
O1432  Zn1318  1.988   1_655 S
O1433  Zn1437  1.988   .     S
O1434  Zn1438  1.988   .     S
O1435  Zn1317  1.988   1_655 S
O1436  Zn1199  1.993   1_565 S
