data_str_m3_o1_o5_pcu_sym.91
_audit_creation_date              2020-01-03
_audit_creation_method            'Materials Studio'
_symmetry_space_group_name_H-M    'P1'
_symmetry_Int_Tables_number       1
_symmetry_cell_setting            triclinic
loop_
_symmetry_equiv_pos_as_xyz
  x,y,z
_cell_length_a                    32.3795
_cell_length_b                    29.8053
_cell_length_c                    26.7513
_cell_angle_alpha                 89.8904
_cell_angle_beta                  90.3751
_cell_angle_gamma                 89.9144
loop_
_atom_site_label
_atom_site_type_symbol
_atom_site_fract_x
_atom_site_fract_y
_atom_site_fract_z
_atom_site_U_iso_or_equiv
_atom_site_adp_type
_atom_site_occupancy
C1     C     0.08684   0.16703   0.16510   0.00000  Uiso   1.00
C2     C     0.02131   0.20746   0.17580   0.00000  Uiso   1.00
C3     C     0.29118   0.16747   0.16313   0.00000  Uiso   1.00
C4     C     0.04283   0.16867   0.16137   0.00000  Uiso   1.00
C5     C     0.18435   0.02410   0.20511   0.00000  Uiso   1.00
C6     C     0.14724   0.30916   0.12952   0.00000  Uiso   1.00
C7     C     0.14764   0.02395   0.12910   0.00000  Uiso   1.00
C8     C     0.18537   0.30977   0.20458   0.00000  Uiso   1.00
C9     C     0.04760   0.11954   0.06355   0.00000  Uiso   1.00
C10    C     0.00825   0.11891   0.03114   0.00000  Uiso   1.00
C11    C     0.01552   0.14160   0.31416   0.00000  Uiso   1.00
C12    C     0.24675   0.16673   0.16592   0.00000  Uiso   1.00
C13    C     0.28468   0.26769   0.12580   0.00000  Uiso   1.00
C14    C     0.32295   0.29043   0.10366   0.00000  Uiso   1.00
C15    C     0.31176   0.31949   0.05858   0.00000  Uiso   1.00
C16    C     0.29135   0.06474   0.19119   0.00000  Uiso   1.00
C17    C     0.33264   0.05121   0.21558   0.00000  Uiso   1.00
C18    C     0.32496   0.02453   0.26338   0.00000  Uiso   1.00
C19    C     0.04801   0.24647   0.24122   0.00000  Uiso   1.00
C20    C     0.07981   0.28246   0.25352   0.00000  Uiso   1.00
C21    C     0.08659   0.28670   0.30957   0.00000  Uiso   1.00
C22    C     0.16650   0.16670   0.07297   0.00000  Uiso   1.00
C23    C     0.16652   0.16665   0.26036   0.00000  Uiso   1.00
C24    C     0.16634   0.16672   0.02180   0.00000  Uiso   1.00
C25    C     0.16635   0.16665   0.31152   0.00000  Uiso   1.00
C26    C     0.02166   0.13207   0.14135   0.00000  Uiso   1.00
C27    C     0.31241   0.20858   0.16969   0.00000  Uiso   1.00
C28    C     0.31350   0.12809   0.15131   0.00000  Uiso   1.00
H29    H     0.07136   0.09930   0.04421   0.00000  Uiso   1.00
H30    H     0.00449   0.31176   0.13234   0.00000  Uiso   1.00
H31    H     0.01220   0.26453   0.09176   0.00000  Uiso   1.00
H32    H     0.00673   0.00262   0.04436   0.00000  Uiso   1.00
H33    H     0.28938   0.01267   0.06930   0.00000  Uiso   1.00
H34    H     0.29819   0.29857   0.02835   0.00000  Uiso   1.00
H35    H     0.27301   0.03384   0.18467   0.00000  Uiso   1.00
H36    H     0.27417   0.08591   0.21821   0.00000  Uiso   1.00
H37    H     0.01816   0.03113   0.18945   0.00000  Uiso   1.00
H38    H     0.01720   0.08157   0.22567   0.00000  Uiso   1.00
H39    H     0.30289   0.04251   0.28786   0.00000  Uiso   1.00
H40    H     0.06046   0.15421   0.06561   0.00000  Uiso   1.00
H41    H     0.02094   0.02055   0.28449   0.00000  Uiso   1.00
H42    H     0.31215   0.32432   0.25420   0.00000  Uiso   1.00
H43    H     0.06047   0.21370   0.25486   0.00000  Uiso   1.00
H44    H     0.01850   0.25393   0.26063   0.00000  Uiso   1.00
H45    H     0.10950   0.27338   0.23595   0.00000  Uiso   1.00
H46    H     0.06986   0.31520   0.23774   0.00000  Uiso   1.00
H47    H     0.05697   0.29317   0.32889   0.00000  Uiso   1.00
H48    H     0.10783   0.31518   0.31687   0.00000  Uiso   1.00
H49    H     0.10045   0.25528   0.32456   0.00000  Uiso   1.00
H50    H     0.22937   0.03594   0.25648   0.00000  Uiso   1.00
H51    H     0.33183   0.08368   0.02510   0.00000  Uiso   1.00
H52    H     0.18095   0.03991   0.27805   0.00000  Uiso   1.00
H53    H     0.14082   0.29255   0.05724   0.00000  Uiso   1.00
H54    H     0.09560   0.29424   0.08971   0.00000  Uiso   1.00
H55    H     0.09629   0.03779   0.08920   0.00000  Uiso   1.00
H56    H     0.14065   0.03937   0.05600   0.00000  Uiso   1.00
H57    H     0.22390   0.26154   0.23224   0.00000  Uiso   1.00
H58    H     0.18336   0.27617   0.27033   0.00000  Uiso   1.00
H59    H     0.31611   0.13698   0.05008   0.00000  Uiso   1.00
H60    H     0.02175   0.17785   0.31996   0.00000  Uiso   1.00
H61    H     0.32090   0.13821   0.29019   0.00000  Uiso   1.00
H62    H     0.04220   0.12607   0.29483   0.00000  Uiso   1.00
H63    H     0.25988   0.29320   0.12995   0.00000  Uiso   1.00
H64    H     0.27260   0.24211   0.09907   0.00000  Uiso   1.00
N65    N     0.16667   0.28573   0.16667   0.00000  Uiso   1.00
N66    N     0.16667   0.04760   0.16667   0.00000  Uiso   1.00
N67    N     0.19986   0.04778   0.24773   0.00000  Uiso   1.00
N68    N     0.12664   0.28463   0.09102   0.00000  Uiso   1.00
N69    N     0.12711   0.04802   0.09002   0.00000  Uiso   1.00
N70    N     0.20563   0.28769   0.24541   0.00000  Uiso   1.00
O71    O     0.10559   0.20487   0.16666   0.00000  Uiso   1.00
O72    O     0.29269   0.24968   0.17411   0.00000  Uiso   1.00
O73    O     0.29539   0.08658   0.14429   0.00000  Uiso   1.00
O74    O     0.04147   0.24650   0.18909   0.00000  Uiso   1.00
O75    O     0.22774   0.12846   0.16667   0.00000  Uiso   1.00
O76    O     0.22774   0.20487   0.16667   0.00000  Uiso   1.00
O77    O     0.10559   0.12846   0.16666   0.00000  Uiso   1.00
O78    O     0.16667   0.20488   0.09511   0.00000  Uiso   1.00
O79    O     0.16666   0.12845   0.23822   0.00000  Uiso   1.00
O80    O     0.16666   0.20488   0.23822   0.00000  Uiso   1.00
O81    O     0.16667   0.12845   0.09511   0.00000  Uiso   1.00
O82    O     0.04076   0.10038   0.11153   0.00000  Uiso   1.00
Zn83   Zn    0.16667   0.21771   0.16667   0.00000  Uiso   1.00
Zn84   Zn    0.16667   0.11563   0.16667   0.00000  Uiso   1.00
C85    C     0.42018   0.16703   0.16510   0.00000  Uiso   1.00
C86    C     0.35464   0.20746   0.17580   0.00000  Uiso   1.00
C87    C     0.62451   0.16747   0.16313   0.00000  Uiso   1.00
C88    C     0.37617   0.16867   0.16137   0.00000  Uiso   1.00
C89    C     0.51769   0.02410   0.20511   0.00000  Uiso   1.00
C90    C     0.48057   0.30916   0.12952   0.00000  Uiso   1.00
C91    C     0.48097   0.02395   0.12910   0.00000  Uiso   1.00
C92    C     0.51870   0.30977   0.20458   0.00000  Uiso   1.00
C93    C     0.38093   0.11954   0.06355   0.00000  Uiso   1.00
C94    C     0.34159   0.11891   0.03114   0.00000  Uiso   1.00
C95    C     0.34886   0.14160   0.31416   0.00000  Uiso   1.00
C96    C     0.58009   0.16673   0.16592   0.00000  Uiso   1.00
C97    C     0.61801   0.26769   0.12580   0.00000  Uiso   1.00
C98    C     0.65628   0.29043   0.10366   0.00000  Uiso   1.00
C99    C     0.64509   0.31949   0.05858   0.00000  Uiso   1.00
C100   C     0.62468   0.06474   0.19119   0.00000  Uiso   1.00
C101   C     0.66597   0.05121   0.21558   0.00000  Uiso   1.00
C102   C     0.65829   0.02453   0.26338   0.00000  Uiso   1.00
C103   C     0.38134   0.24647   0.24122   0.00000  Uiso   1.00
C104   C     0.41315   0.28246   0.25352   0.00000  Uiso   1.00
C105   C     0.41992   0.28670   0.30957   0.00000  Uiso   1.00
C106   C     0.49983   0.16670   0.07297   0.00000  Uiso   1.00
C107   C     0.49985   0.16665   0.26036   0.00000  Uiso   1.00
C108   C     0.49968   0.16672   0.02180   0.00000  Uiso   1.00
C109   C     0.49969   0.16665   0.31152   0.00000  Uiso   1.00
C110   C     0.35500   0.13207   0.14135   0.00000  Uiso   1.00
C111   C     0.64575   0.20858   0.16969   0.00000  Uiso   1.00
C112   C     0.64683   0.12809   0.15131   0.00000  Uiso   1.00
H113   H     0.40469   0.09930   0.04421   0.00000  Uiso   1.00
H114   H     0.33782   0.31176   0.13234   0.00000  Uiso   1.00
H115   H     0.34554   0.26453   0.09176   0.00000  Uiso   1.00
H116   H     0.34006   0.00262   0.04436   0.00000  Uiso   1.00
H117   H     0.62272   0.01267   0.06930   0.00000  Uiso   1.00
H118   H     0.63152   0.29857   0.02835   0.00000  Uiso   1.00
H119   H     0.60634   0.03384   0.18467   0.00000  Uiso   1.00
H120   H     0.60751   0.08591   0.21821   0.00000  Uiso   1.00
H121   H     0.35150   0.03113   0.18945   0.00000  Uiso   1.00
H122   H     0.35053   0.08157   0.22567   0.00000  Uiso   1.00
H123   H     0.63623   0.04251   0.28786   0.00000  Uiso   1.00
H124   H     0.39379   0.15421   0.06561   0.00000  Uiso   1.00
H125   H     0.35427   0.02055   0.28449   0.00000  Uiso   1.00
H126   H     0.64548   0.32432   0.25420   0.00000  Uiso   1.00
H127   H     0.39381   0.21370   0.25486   0.00000  Uiso   1.00
H128   H     0.35183   0.25393   0.26063   0.00000  Uiso   1.00
H129   H     0.44283   0.27338   0.23595   0.00000  Uiso   1.00
H130   H     0.40319   0.31520   0.23774   0.00000  Uiso   1.00
H131   H     0.39030   0.29317   0.32889   0.00000  Uiso   1.00
H132   H     0.44116   0.31518   0.31687   0.00000  Uiso   1.00
H133   H     0.43378   0.25528   0.32456   0.00000  Uiso   1.00
H134   H     0.56271   0.03594   0.25648   0.00000  Uiso   1.00
H135   H     0.66516   0.08368   0.02510   0.00000  Uiso   1.00
H136   H     0.51428   0.03991   0.27805   0.00000  Uiso   1.00
H137   H     0.47415   0.29255   0.05724   0.00000  Uiso   1.00
H138   H     0.42894   0.29424   0.08971   0.00000  Uiso   1.00
H139   H     0.42962   0.03779   0.08920   0.00000  Uiso   1.00
H140   H     0.47398   0.03937   0.05600   0.00000  Uiso   1.00
H141   H     0.55723   0.26154   0.23224   0.00000  Uiso   1.00
H142   H     0.51669   0.27617   0.27033   0.00000  Uiso   1.00
H143   H     0.64945   0.13698   0.05008   0.00000  Uiso   1.00
H144   H     0.35509   0.17785   0.31996   0.00000  Uiso   1.00
H145   H     0.65423   0.13821   0.29019   0.00000  Uiso   1.00
H146   H     0.37554   0.12607   0.29483   0.00000  Uiso   1.00
H147   H     0.59321   0.29320   0.12995   0.00000  Uiso   1.00
H148   H     0.60593   0.24211   0.09907   0.00000  Uiso   1.00
N149   N     0.50000   0.28573   0.16667   0.00000  Uiso   1.00
N150   N     0.50000   0.04760   0.16667   0.00000  Uiso   1.00
N151   N     0.53319   0.04778   0.24773   0.00000  Uiso   1.00
N152   N     0.45997   0.28463   0.09102   0.00000  Uiso   1.00
N153   N     0.46044   0.04802   0.09002   0.00000  Uiso   1.00
N154   N     0.53896   0.28769   0.24541   0.00000  Uiso   1.00
O155   O     0.43892   0.20487   0.16666   0.00000  Uiso   1.00
O156   O     0.62602   0.24968   0.17411   0.00000  Uiso   1.00
O157   O     0.62872   0.08658   0.14429   0.00000  Uiso   1.00
O158   O     0.37481   0.24650   0.18909   0.00000  Uiso   1.00
O159   O     0.56108   0.12846   0.16667   0.00000  Uiso   1.00
O160   O     0.56108   0.20487   0.16667   0.00000  Uiso   1.00
O161   O     0.43892   0.12846   0.16666   0.00000  Uiso   1.00
O162   O     0.50000   0.20488   0.09511   0.00000  Uiso   1.00
O163   O     0.50000   0.12845   0.23822   0.00000  Uiso   1.00
O164   O     0.50000   0.20488   0.23822   0.00000  Uiso   1.00
O165   O     0.50000   0.12845   0.09511   0.00000  Uiso   1.00
O166   O     0.37410   0.10038   0.11153   0.00000  Uiso   1.00
Zn167  Zn    0.50000   0.21771   0.16667   0.00000  Uiso   1.00
Zn168  Zn    0.50000   0.11563   0.16667   0.00000  Uiso   1.00
C169   C     0.75351   0.16703   0.16510   0.00000  Uiso   1.00
C170   C     0.68797   0.20746   0.17580   0.00000  Uiso   1.00
C171   C     0.95784   0.16747   0.16313   0.00000  Uiso   1.00
C172   C     0.70950   0.16867   0.16137   0.00000  Uiso   1.00
C173   C     0.85102   0.02410   0.20511   0.00000  Uiso   1.00
C174   C     0.81391   0.30916   0.12952   0.00000  Uiso   1.00
C175   C     0.81431   0.02395   0.12910   0.00000  Uiso   1.00
C176   C     0.85204   0.30977   0.20458   0.00000  Uiso   1.00
C177   C     0.71427   0.11954   0.06355   0.00000  Uiso   1.00
C178   C     0.67492   0.11891   0.03114   0.00000  Uiso   1.00
C179   C     0.68219   0.14160   0.31416   0.00000  Uiso   1.00
C180   C     0.91342   0.16673   0.16592   0.00000  Uiso   1.00
C181   C     0.95134   0.26769   0.12580   0.00000  Uiso   1.00
C182   C     0.98961   0.29043   0.10366   0.00000  Uiso   1.00
C183   C     0.97843   0.31949   0.05858   0.00000  Uiso   1.00
C184   C     0.95802   0.06474   0.19119   0.00000  Uiso   1.00
C185   C     0.99930   0.05121   0.21558   0.00000  Uiso   1.00
C186   C     0.99163   0.02453   0.26338   0.00000  Uiso   1.00
C187   C     0.71468   0.24647   0.24122   0.00000  Uiso   1.00
C188   C     0.74648   0.28246   0.25352   0.00000  Uiso   1.00
C189   C     0.75325   0.28670   0.30957   0.00000  Uiso   1.00
C190   C     0.83316   0.16670   0.07297   0.00000  Uiso   1.00
C191   C     0.83318   0.16665   0.26036   0.00000  Uiso   1.00
C192   C     0.83301   0.16672   0.02180   0.00000  Uiso   1.00
C193   C     0.83302   0.16665   0.31152   0.00000  Uiso   1.00
C194   C     0.68833   0.13207   0.14135   0.00000  Uiso   1.00
C195   C     0.97908   0.20858   0.16969   0.00000  Uiso   1.00
C196   C     0.98017   0.12809   0.15131   0.00000  Uiso   1.00
H197   H     0.73802   0.09930   0.04421   0.00000  Uiso   1.00
H198   H     0.67116   0.31176   0.13234   0.00000  Uiso   1.00
H199   H     0.67887   0.26453   0.09176   0.00000  Uiso   1.00
H200   H     0.67340   0.00262   0.04436   0.00000  Uiso   1.00
H201   H     0.95605   0.01267   0.06930   0.00000  Uiso   1.00
H202   H     0.96486   0.29857   0.02835   0.00000  Uiso   1.00
H203   H     0.93968   0.03384   0.18467   0.00000  Uiso   1.00
H204   H     0.94084   0.08591   0.21821   0.00000  Uiso   1.00
H205   H     0.68483   0.03113   0.18945   0.00000  Uiso   1.00
H206   H     0.68386   0.08157   0.22567   0.00000  Uiso   1.00
H207   H     0.96956   0.04251   0.28786   0.00000  Uiso   1.00
H208   H     0.72712   0.15421   0.06561   0.00000  Uiso   1.00
H209   H     0.68761   0.02055   0.28449   0.00000  Uiso   1.00
H210   H     0.97882   0.32432   0.25420   0.00000  Uiso   1.00
H211   H     0.72714   0.21370   0.25486   0.00000  Uiso   1.00
H212   H     0.68516   0.25393   0.26063   0.00000  Uiso   1.00
H213   H     0.77616   0.27338   0.23595   0.00000  Uiso   1.00
H214   H     0.73653   0.31520   0.23774   0.00000  Uiso   1.00
H215   H     0.72364   0.29317   0.32889   0.00000  Uiso   1.00
H216   H     0.77449   0.31518   0.31687   0.00000  Uiso   1.00
H217   H     0.76712   0.25528   0.32456   0.00000  Uiso   1.00
H218   H     0.89604   0.03594   0.25648   0.00000  Uiso   1.00
H219   H     0.99849   0.08368   0.02510   0.00000  Uiso   1.00
H220   H     0.84762   0.03991   0.27805   0.00000  Uiso   1.00
H221   H     0.80749   0.29255   0.05724   0.00000  Uiso   1.00
H222   H     0.76227   0.29424   0.08971   0.00000  Uiso   1.00
H223   H     0.76296   0.03779   0.08920   0.00000  Uiso   1.00
H224   H     0.80731   0.03937   0.05600   0.00000  Uiso   1.00
H225   H     0.89056   0.26154   0.23224   0.00000  Uiso   1.00
H226   H     0.85003   0.27617   0.27033   0.00000  Uiso   1.00
H227   H     0.98278   0.13698   0.05008   0.00000  Uiso   1.00
H228   H     0.68842   0.17785   0.31996   0.00000  Uiso   1.00
H229   H     0.98757   0.13821   0.29019   0.00000  Uiso   1.00
H230   H     0.70887   0.12607   0.29483   0.00000  Uiso   1.00
H231   H     0.92655   0.29320   0.12995   0.00000  Uiso   1.00
H232   H     0.93926   0.24211   0.09907   0.00000  Uiso   1.00
N233   N     0.83333   0.28573   0.16667   0.00000  Uiso   1.00
N234   N     0.83333   0.04760   0.16667   0.00000  Uiso   1.00
N235   N     0.86652   0.04778   0.24773   0.00000  Uiso   1.00
N236   N     0.79330   0.28463   0.09102   0.00000  Uiso   1.00
N237   N     0.79378   0.04802   0.09002   0.00000  Uiso   1.00
N238   N     0.87230   0.28769   0.24541   0.00000  Uiso   1.00
O239   O     0.77226   0.20487   0.16666   0.00000  Uiso   1.00
O240   O     0.95936   0.24968   0.17411   0.00000  Uiso   1.00
O241   O     0.96206   0.08658   0.14429   0.00000  Uiso   1.00
O242   O     0.70814   0.24650   0.18909   0.00000  Uiso   1.00
O243   O     0.89441   0.12846   0.16667   0.00000  Uiso   1.00
O244   O     0.89441   0.20487   0.16667   0.00000  Uiso   1.00
O245   O     0.77226   0.12846   0.16666   0.00000  Uiso   1.00
O246   O     0.83334   0.20488   0.09511   0.00000  Uiso   1.00
O247   O     0.83333   0.12845   0.23822   0.00000  Uiso   1.00
O248   O     0.83333   0.20488   0.23822   0.00000  Uiso   1.00
O249   O     0.83334   0.12845   0.09511   0.00000  Uiso   1.00
O250   O     0.70743   0.10038   0.11153   0.00000  Uiso   1.00
Zn251  Zn    0.83333   0.21771   0.16667   0.00000  Uiso   1.00
Zn252  Zn    0.83333   0.11563   0.16667   0.00000  Uiso   1.00
C253   C     0.08684   0.50036   0.16510   0.00000  Uiso   1.00
C254   C     0.02131   0.54079   0.17580   0.00000  Uiso   1.00
C255   C     0.29118   0.50080   0.16313   0.00000  Uiso   1.00
C256   C     0.04283   0.50200   0.16137   0.00000  Uiso   1.00
C257   C     0.18435   0.35743   0.20511   0.00000  Uiso   1.00
C258   C     0.14724   0.64249   0.12952   0.00000  Uiso   1.00
C259   C     0.14764   0.35729   0.12910   0.00000  Uiso   1.00
C260   C     0.18537   0.64310   0.20458   0.00000  Uiso   1.00
C261   C     0.04760   0.45287   0.06355   0.00000  Uiso   1.00
C262   C     0.00825   0.45225   0.03114   0.00000  Uiso   1.00
C263   C     0.01552   0.47494   0.31416   0.00000  Uiso   1.00
C264   C     0.24675   0.50006   0.16592   0.00000  Uiso   1.00
C265   C     0.28468   0.60103   0.12580   0.00000  Uiso   1.00
C266   C     0.32295   0.62376   0.10366   0.00000  Uiso   1.00
C267   C     0.31176   0.65282   0.05858   0.00000  Uiso   1.00
C268   C     0.29135   0.39808   0.19119   0.00000  Uiso   1.00
C269   C     0.33264   0.38454   0.21558   0.00000  Uiso   1.00
C270   C     0.32496   0.35787   0.26338   0.00000  Uiso   1.00
C271   C     0.04801   0.57980   0.24122   0.00000  Uiso   1.00
C272   C     0.07981   0.61579   0.25352   0.00000  Uiso   1.00
C273   C     0.08659   0.62004   0.30957   0.00000  Uiso   1.00
C274   C     0.16650   0.50003   0.07297   0.00000  Uiso   1.00
C275   C     0.16652   0.49998   0.26036   0.00000  Uiso   1.00
C276   C     0.16634   0.50005   0.02180   0.00000  Uiso   1.00
C277   C     0.16635   0.49998   0.31152   0.00000  Uiso   1.00
C278   C     0.02166   0.46540   0.14135   0.00000  Uiso   1.00
C279   C     0.31241   0.54192   0.16969   0.00000  Uiso   1.00
C280   C     0.31350   0.46142   0.15131   0.00000  Uiso   1.00
H281   H     0.07136   0.43263   0.04421   0.00000  Uiso   1.00
H282   H     0.00449   0.64509   0.13234   0.00000  Uiso   1.00
H283   H     0.01220   0.59786   0.09176   0.00000  Uiso   1.00
H284   H     0.00673   0.33595   0.04436   0.00000  Uiso   1.00
H285   H     0.28938   0.34601   0.06930   0.00000  Uiso   1.00
H286   H     0.29819   0.63190   0.02835   0.00000  Uiso   1.00
H287   H     0.27301   0.36717   0.18467   0.00000  Uiso   1.00
H288   H     0.27417   0.41925   0.21821   0.00000  Uiso   1.00
H289   H     0.01816   0.36446   0.18945   0.00000  Uiso   1.00
H290   H     0.01720   0.41491   0.22567   0.00000  Uiso   1.00
H291   H     0.30289   0.37584   0.28786   0.00000  Uiso   1.00
H292   H     0.06046   0.48754   0.06561   0.00000  Uiso   1.00
H293   H     0.02094   0.35389   0.28449   0.00000  Uiso   1.00
H294   H     0.31215   0.65765   0.25420   0.00000  Uiso   1.00
H295   H     0.06047   0.54704   0.25486   0.00000  Uiso   1.00
H296   H     0.01850   0.58727   0.26063   0.00000  Uiso   1.00
H297   H     0.10950   0.60672   0.23595   0.00000  Uiso   1.00
H298   H     0.06986   0.64853   0.23774   0.00000  Uiso   1.00
H299   H     0.05697   0.62650   0.32889   0.00000  Uiso   1.00
H300   H     0.10783   0.64851   0.31687   0.00000  Uiso   1.00
H301   H     0.10045   0.58862   0.32456   0.00000  Uiso   1.00
H302   H     0.22937   0.36927   0.25648   0.00000  Uiso   1.00
H303   H     0.33183   0.41701   0.02510   0.00000  Uiso   1.00
H304   H     0.18095   0.37325   0.27805   0.00000  Uiso   1.00
H305   H     0.14082   0.62589   0.05724   0.00000  Uiso   1.00
H306   H     0.09560   0.62757   0.08971   0.00000  Uiso   1.00
H307   H     0.09629   0.37113   0.08920   0.00000  Uiso   1.00
H308   H     0.14065   0.37270   0.05600   0.00000  Uiso   1.00
H309   H     0.22390   0.59488   0.23224   0.00000  Uiso   1.00
H310   H     0.18336   0.60950   0.27033   0.00000  Uiso   1.00
H311   H     0.31611   0.47031   0.05008   0.00000  Uiso   1.00
H312   H     0.02175   0.51118   0.31996   0.00000  Uiso   1.00
H313   H     0.32090   0.47155   0.29019   0.00000  Uiso   1.00
H314   H     0.04220   0.45940   0.29483   0.00000  Uiso   1.00
H315   H     0.25988   0.62654   0.12995   0.00000  Uiso   1.00
H316   H     0.27260   0.57544   0.09907   0.00000  Uiso   1.00
N317   N     0.16667   0.61907   0.16667   0.00000  Uiso   1.00
N318   N     0.16667   0.38093   0.16667   0.00000  Uiso   1.00
N319   N     0.19986   0.38111   0.24773   0.00000  Uiso   1.00
N320   N     0.12664   0.61796   0.09102   0.00000  Uiso   1.00
N321   N     0.12711   0.38136   0.09002   0.00000  Uiso   1.00
N322   N     0.20563   0.62102   0.24541   0.00000  Uiso   1.00
O323   O     0.10559   0.53821   0.16666   0.00000  Uiso   1.00
O324   O     0.29269   0.58301   0.17411   0.00000  Uiso   1.00
O325   O     0.29539   0.41991   0.14429   0.00000  Uiso   1.00
O326   O     0.04147   0.57984   0.18909   0.00000  Uiso   1.00
O327   O     0.22774   0.46179   0.16667   0.00000  Uiso   1.00
O328   O     0.22774   0.53821   0.16667   0.00000  Uiso   1.00
O329   O     0.10559   0.46179   0.16666   0.00000  Uiso   1.00
O330   O     0.16667   0.53821   0.09511   0.00000  Uiso   1.00
O331   O     0.16666   0.46179   0.23822   0.00000  Uiso   1.00
O332   O     0.16666   0.53821   0.23822   0.00000  Uiso   1.00
O333   O     0.16667   0.46179   0.09511   0.00000  Uiso   1.00
O334   O     0.04076   0.43371   0.11153   0.00000  Uiso   1.00
Zn335  Zn    0.16667   0.55104   0.16667   0.00000  Uiso   1.00
Zn336  Zn    0.16667   0.44896   0.16667   0.00000  Uiso   1.00
C337   C     0.42018   0.50036   0.16510   0.00000  Uiso   1.00
C338   C     0.35464   0.54079   0.17580   0.00000  Uiso   1.00
C339   C     0.62451   0.50080   0.16313   0.00000  Uiso   1.00
C340   C     0.37617   0.50200   0.16137   0.00000  Uiso   1.00
C341   C     0.51769   0.35743   0.20511   0.00000  Uiso   1.00
C342   C     0.48057   0.64249   0.12952   0.00000  Uiso   1.00
C343   C     0.48097   0.35729   0.12910   0.00000  Uiso   1.00
C344   C     0.51870   0.64310   0.20458   0.00000  Uiso   1.00
C345   C     0.38093   0.45287   0.06355   0.00000  Uiso   1.00
C346   C     0.34159   0.45225   0.03114   0.00000  Uiso   1.00
C347   C     0.34886   0.47494   0.31416   0.00000  Uiso   1.00
C348   C     0.58009   0.50006   0.16592   0.00000  Uiso   1.00
C349   C     0.61801   0.60103   0.12580   0.00000  Uiso   1.00
C350   C     0.65628   0.62376   0.10366   0.00000  Uiso   1.00
C351   C     0.64509   0.65282   0.05858   0.00000  Uiso   1.00
C352   C     0.62468   0.39808   0.19119   0.00000  Uiso   1.00
C353   C     0.66597   0.38454   0.21558   0.00000  Uiso   1.00
C354   C     0.65829   0.35787   0.26338   0.00000  Uiso   1.00
C355   C     0.38134   0.57980   0.24122   0.00000  Uiso   1.00
C356   C     0.41315   0.61579   0.25352   0.00000  Uiso   1.00
C357   C     0.41992   0.62004   0.30957   0.00000  Uiso   1.00
C358   C     0.49983   0.50003   0.07297   0.00000  Uiso   1.00
C359   C     0.49985   0.49998   0.26036   0.00000  Uiso   1.00
C360   C     0.49968   0.50005   0.02180   0.00000  Uiso   1.00
C361   C     0.49969   0.49998   0.31152   0.00000  Uiso   1.00
C362   C     0.35500   0.46540   0.14135   0.00000  Uiso   1.00
C363   C     0.64575   0.54192   0.16969   0.00000  Uiso   1.00
C364   C     0.64683   0.46142   0.15131   0.00000  Uiso   1.00
H365   H     0.40469   0.43263   0.04421   0.00000  Uiso   1.00
H366   H     0.33782   0.64509   0.13234   0.00000  Uiso   1.00
H367   H     0.34554   0.59786   0.09176   0.00000  Uiso   1.00
H368   H     0.34006   0.33595   0.04436   0.00000  Uiso   1.00
H369   H     0.62272   0.34601   0.06930   0.00000  Uiso   1.00
H370   H     0.63152   0.63190   0.02835   0.00000  Uiso   1.00
H371   H     0.60634   0.36717   0.18467   0.00000  Uiso   1.00
H372   H     0.60751   0.41925   0.21821   0.00000  Uiso   1.00
H373   H     0.35150   0.36446   0.18945   0.00000  Uiso   1.00
H374   H     0.35053   0.41491   0.22567   0.00000  Uiso   1.00
H375   H     0.63623   0.37584   0.28786   0.00000  Uiso   1.00
H376   H     0.39379   0.48754   0.06561   0.00000  Uiso   1.00
H377   H     0.35427   0.35389   0.28449   0.00000  Uiso   1.00
H378   H     0.64548   0.65765   0.25420   0.00000  Uiso   1.00
H379   H     0.39381   0.54704   0.25486   0.00000  Uiso   1.00
H380   H     0.35183   0.58727   0.26063   0.00000  Uiso   1.00
H381   H     0.44283   0.60672   0.23595   0.00000  Uiso   1.00
H382   H     0.40319   0.64853   0.23774   0.00000  Uiso   1.00
H383   H     0.39030   0.62650   0.32889   0.00000  Uiso   1.00
H384   H     0.44116   0.64851   0.31687   0.00000  Uiso   1.00
H385   H     0.43378   0.58862   0.32456   0.00000  Uiso   1.00
H386   H     0.56271   0.36927   0.25648   0.00000  Uiso   1.00
H387   H     0.66516   0.41701   0.02510   0.00000  Uiso   1.00
H388   H     0.51428   0.37325   0.27805   0.00000  Uiso   1.00
H389   H     0.47415   0.62589   0.05724   0.00000  Uiso   1.00
H390   H     0.42894   0.62757   0.08971   0.00000  Uiso   1.00
H391   H     0.42962   0.37113   0.08920   0.00000  Uiso   1.00
H392   H     0.47398   0.37270   0.05600   0.00000  Uiso   1.00
H393   H     0.55723   0.59488   0.23224   0.00000  Uiso   1.00
H394   H     0.51669   0.60950   0.27033   0.00000  Uiso   1.00
H395   H     0.64945   0.47031   0.05008   0.00000  Uiso   1.00
H396   H     0.35509   0.51118   0.31996   0.00000  Uiso   1.00
H397   H     0.65423   0.47155   0.29019   0.00000  Uiso   1.00
H398   H     0.37554   0.45940   0.29483   0.00000  Uiso   1.00
H399   H     0.59321   0.62654   0.12995   0.00000  Uiso   1.00
H400   H     0.60593   0.57544   0.09907   0.00000  Uiso   1.00
N401   N     0.50000   0.61907   0.16667   0.00000  Uiso   1.00
N402   N     0.50000   0.38093   0.16667   0.00000  Uiso   1.00
N403   N     0.53319   0.38111   0.24773   0.00000  Uiso   1.00
N404   N     0.45997   0.61796   0.09102   0.00000  Uiso   1.00
N405   N     0.46044   0.38136   0.09002   0.00000  Uiso   1.00
N406   N     0.53896   0.62102   0.24541   0.00000  Uiso   1.00
O407   O     0.43892   0.53821   0.16666   0.00000  Uiso   1.00
O408   O     0.62602   0.58301   0.17411   0.00000  Uiso   1.00
O409   O     0.62872   0.41991   0.14429   0.00000  Uiso   1.00
O410   O     0.37481   0.57984   0.18909   0.00000  Uiso   1.00
O411   O     0.56108   0.46179   0.16667   0.00000  Uiso   1.00
O412   O     0.56108   0.53821   0.16667   0.00000  Uiso   1.00
O413   O     0.43892   0.46179   0.16666   0.00000  Uiso   1.00
O414   O     0.50000   0.53821   0.09511   0.00000  Uiso   1.00
O415   O     0.50000   0.46179   0.23822   0.00000  Uiso   1.00
O416   O     0.50000   0.53821   0.23822   0.00000  Uiso   1.00
O417   O     0.50000   0.46179   0.09511   0.00000  Uiso   1.00
O418   O     0.37410   0.43371   0.11153   0.00000  Uiso   1.00
Zn419  Zn    0.50000   0.55104   0.16667   0.00000  Uiso   1.00
Zn420  Zn    0.50000   0.44896   0.16667   0.00000  Uiso   1.00
C421   C     0.75351   0.50036   0.16510   0.00000  Uiso   1.00
C422   C     0.68797   0.54079   0.17580   0.00000  Uiso   1.00
C423   C     0.95784   0.50080   0.16313   0.00000  Uiso   1.00
C424   C     0.70950   0.50200   0.16137   0.00000  Uiso   1.00
C425   C     0.85102   0.35743   0.20511   0.00000  Uiso   1.00
C426   C     0.81391   0.64249   0.12952   0.00000  Uiso   1.00
C427   C     0.81431   0.35729   0.12910   0.00000  Uiso   1.00
C428   C     0.85204   0.64310   0.20458   0.00000  Uiso   1.00
C429   C     0.71427   0.45287   0.06355   0.00000  Uiso   1.00
C430   C     0.67492   0.45225   0.03114   0.00000  Uiso   1.00
C431   C     0.68219   0.47494   0.31416   0.00000  Uiso   1.00
C432   C     0.91342   0.50006   0.16592   0.00000  Uiso   1.00
C433   C     0.95134   0.60103   0.12580   0.00000  Uiso   1.00
C434   C     0.98961   0.62376   0.10366   0.00000  Uiso   1.00
C435   C     0.97843   0.65282   0.05858   0.00000  Uiso   1.00
C436   C     0.95802   0.39808   0.19119   0.00000  Uiso   1.00
C437   C     0.99930   0.38454   0.21558   0.00000  Uiso   1.00
C438   C     0.99163   0.35787   0.26338   0.00000  Uiso   1.00
C439   C     0.71468   0.57980   0.24122   0.00000  Uiso   1.00
C440   C     0.74648   0.61579   0.25352   0.00000  Uiso   1.00
C441   C     0.75325   0.62004   0.30957   0.00000  Uiso   1.00
C442   C     0.83316   0.50003   0.07297   0.00000  Uiso   1.00
C443   C     0.83318   0.49998   0.26036   0.00000  Uiso   1.00
C444   C     0.83301   0.50005   0.02180   0.00000  Uiso   1.00
C445   C     0.83302   0.49998   0.31152   0.00000  Uiso   1.00
C446   C     0.68833   0.46540   0.14135   0.00000  Uiso   1.00
C447   C     0.97908   0.54192   0.16969   0.00000  Uiso   1.00
C448   C     0.98017   0.46142   0.15131   0.00000  Uiso   1.00
H449   H     0.73802   0.43263   0.04421   0.00000  Uiso   1.00
H450   H     0.67116   0.64509   0.13234   0.00000  Uiso   1.00
H451   H     0.67887   0.59786   0.09176   0.00000  Uiso   1.00
H452   H     0.67340   0.33595   0.04436   0.00000  Uiso   1.00
H453   H     0.95605   0.34601   0.06930   0.00000  Uiso   1.00
H454   H     0.96486   0.63190   0.02835   0.00000  Uiso   1.00
H455   H     0.93968   0.36717   0.18467   0.00000  Uiso   1.00
H456   H     0.94084   0.41925   0.21821   0.00000  Uiso   1.00
H457   H     0.68483   0.36446   0.18945   0.00000  Uiso   1.00
H458   H     0.68386   0.41491   0.22567   0.00000  Uiso   1.00
H459   H     0.96956   0.37584   0.28786   0.00000  Uiso   1.00
H460   H     0.72712   0.48754   0.06561   0.00000  Uiso   1.00
H461   H     0.68761   0.35389   0.28449   0.00000  Uiso   1.00
H462   H     0.97882   0.65765   0.25420   0.00000  Uiso   1.00
H463   H     0.72714   0.54704   0.25486   0.00000  Uiso   1.00
H464   H     0.68516   0.58727   0.26063   0.00000  Uiso   1.00
H465   H     0.77616   0.60672   0.23595   0.00000  Uiso   1.00
H466   H     0.73653   0.64853   0.23774   0.00000  Uiso   1.00
H467   H     0.72364   0.62650   0.32889   0.00000  Uiso   1.00
H468   H     0.77449   0.64851   0.31687   0.00000  Uiso   1.00
H469   H     0.76712   0.58862   0.32456   0.00000  Uiso   1.00
H470   H     0.89604   0.36927   0.25648   0.00000  Uiso   1.00
H471   H     0.99849   0.41701   0.02510   0.00000  Uiso   1.00
H472   H     0.84762   0.37325   0.27805   0.00000  Uiso   1.00
H473   H     0.80749   0.62589   0.05724   0.00000  Uiso   1.00
H474   H     0.76227   0.62757   0.08971   0.00000  Uiso   1.00
H475   H     0.76296   0.37113   0.08920   0.00000  Uiso   1.00
H476   H     0.80731   0.37270   0.05600   0.00000  Uiso   1.00
H477   H     0.89056   0.59488   0.23224   0.00000  Uiso   1.00
H478   H     0.85003   0.60950   0.27033   0.00000  Uiso   1.00
H479   H     0.98278   0.47031   0.05008   0.00000  Uiso   1.00
H480   H     0.68842   0.51118   0.31996   0.00000  Uiso   1.00
H481   H     0.98757   0.47155   0.29019   0.00000  Uiso   1.00
H482   H     0.70887   0.45940   0.29483   0.00000  Uiso   1.00
H483   H     0.92655   0.62654   0.12995   0.00000  Uiso   1.00
H484   H     0.93926   0.57544   0.09907   0.00000  Uiso   1.00
N485   N     0.83333   0.61907   0.16667   0.00000  Uiso   1.00
N486   N     0.83333   0.38093   0.16667   0.00000  Uiso   1.00
N487   N     0.86652   0.38111   0.24773   0.00000  Uiso   1.00
N488   N     0.79330   0.61796   0.09102   0.00000  Uiso   1.00
N489   N     0.79378   0.38136   0.09002   0.00000  Uiso   1.00
N490   N     0.87230   0.62102   0.24541   0.00000  Uiso   1.00
O491   O     0.77226   0.53821   0.16666   0.00000  Uiso   1.00
O492   O     0.95936   0.58301   0.17411   0.00000  Uiso   1.00
O493   O     0.96206   0.41991   0.14429   0.00000  Uiso   1.00
O494   O     0.70814   0.57984   0.18909   0.00000  Uiso   1.00
O495   O     0.89441   0.46179   0.16667   0.00000  Uiso   1.00
O496   O     0.89441   0.53821   0.16667   0.00000  Uiso   1.00
O497   O     0.77226   0.46179   0.16666   0.00000  Uiso   1.00
O498   O     0.83334   0.53821   0.09511   0.00000  Uiso   1.00
O499   O     0.83333   0.46179   0.23822   0.00000  Uiso   1.00
O500   O     0.83333   0.53821   0.23822   0.00000  Uiso   1.00
O501   O     0.83334   0.46179   0.09511   0.00000  Uiso   1.00
O502   O     0.70743   0.43371   0.11153   0.00000  Uiso   1.00
Zn503  Zn    0.83333   0.55104   0.16667   0.00000  Uiso   1.00
Zn504  Zn    0.83333   0.44896   0.16667   0.00000  Uiso   1.00
C505   C     0.08684   0.83369   0.16510   0.00000  Uiso   1.00
C506   C     0.02131   0.87413   0.17580   0.00000  Uiso   1.00
C507   C     0.29118   0.83414   0.16313   0.00000  Uiso   1.00
C508   C     0.04283   0.83534   0.16137   0.00000  Uiso   1.00
C509   C     0.18435   0.69076   0.20511   0.00000  Uiso   1.00
C510   C     0.14724   0.97582   0.12952   0.00000  Uiso   1.00
C511   C     0.14764   0.69062   0.12910   0.00000  Uiso   1.00
C512   C     0.18537   0.97643   0.20458   0.00000  Uiso   1.00
C513   C     0.04760   0.78620   0.06355   0.00000  Uiso   1.00
C514   C     0.00825   0.78558   0.03114   0.00000  Uiso   1.00
C515   C     0.01552   0.80827   0.31416   0.00000  Uiso   1.00
C516   C     0.24675   0.83339   0.16592   0.00000  Uiso   1.00
C517   C     0.28468   0.93436   0.12580   0.00000  Uiso   1.00
C518   C     0.32295   0.95709   0.10366   0.00000  Uiso   1.00
C519   C     0.31176   0.98615   0.05858   0.00000  Uiso   1.00
C520   C     0.29135   0.73141   0.19119   0.00000  Uiso   1.00
C521   C     0.33264   0.71787   0.21558   0.00000  Uiso   1.00
C522   C     0.32496   0.69120   0.26338   0.00000  Uiso   1.00
C523   C     0.04801   0.91314   0.24122   0.00000  Uiso   1.00
C524   C     0.07981   0.94913   0.25352   0.00000  Uiso   1.00
C525   C     0.08659   0.95337   0.30957   0.00000  Uiso   1.00
C526   C     0.16650   0.83336   0.07297   0.00000  Uiso   1.00
C527   C     0.16652   0.83331   0.26036   0.00000  Uiso   1.00
C528   C     0.16634   0.83339   0.02180   0.00000  Uiso   1.00
C529   C     0.16635   0.83331   0.31152   0.00000  Uiso   1.00
C530   C     0.02166   0.79873   0.14135   0.00000  Uiso   1.00
C531   C     0.31241   0.87525   0.16969   0.00000  Uiso   1.00
C532   C     0.31350   0.79476   0.15131   0.00000  Uiso   1.00
H533   H     0.07136   0.76596   0.04421   0.00000  Uiso   1.00
H534   H     0.00449   0.97842   0.13234   0.00000  Uiso   1.00
H535   H     0.01220   0.93120   0.09176   0.00000  Uiso   1.00
H536   H     0.00673   0.66928   0.04436   0.00000  Uiso   1.00
H537   H     0.28938   0.67934   0.06930   0.00000  Uiso   1.00
H538   H     0.29819   0.96523   0.02835   0.00000  Uiso   1.00
H539   H     0.27301   0.70050   0.18467   0.00000  Uiso   1.00
H540   H     0.27417   0.75258   0.21821   0.00000  Uiso   1.00
H541   H     0.01816   0.69780   0.18945   0.00000  Uiso   1.00
H542   H     0.01720   0.74824   0.22567   0.00000  Uiso   1.00
H543   H     0.30289   0.70918   0.28786   0.00000  Uiso   1.00
H544   H     0.06046   0.82087   0.06561   0.00000  Uiso   1.00
H545   H     0.02094   0.68722   0.28449   0.00000  Uiso   1.00
H546   H     0.31215   0.99098   0.25420   0.00000  Uiso   1.00
H547   H     0.06047   0.88037   0.25486   0.00000  Uiso   1.00
H548   H     0.01850   0.92060   0.26063   0.00000  Uiso   1.00
H549   H     0.10950   0.94005   0.23595   0.00000  Uiso   1.00
H550   H     0.06986   0.98186   0.23774   0.00000  Uiso   1.00
H551   H     0.05697   0.95984   0.32889   0.00000  Uiso   1.00
H552   H     0.10783   0.98185   0.31687   0.00000  Uiso   1.00
H553   H     0.10045   0.92195   0.32456   0.00000  Uiso   1.00
H554   H     0.22937   0.70261   0.25648   0.00000  Uiso   1.00
H555   H     0.33183   0.75034   0.02510   0.00000  Uiso   1.00
H556   H     0.18095   0.70658   0.27805   0.00000  Uiso   1.00
H557   H     0.14082   0.95922   0.05724   0.00000  Uiso   1.00
H558   H     0.09560   0.96091   0.08971   0.00000  Uiso   1.00
H559   H     0.09629   0.70446   0.08920   0.00000  Uiso   1.00
H560   H     0.14065   0.70604   0.05600   0.00000  Uiso   1.00
H561   H     0.22390   0.92821   0.23224   0.00000  Uiso   1.00
H562   H     0.18336   0.94283   0.27033   0.00000  Uiso   1.00
H563   H     0.31611   0.80365   0.05008   0.00000  Uiso   1.00
H564   H     0.02175   0.84451   0.31996   0.00000  Uiso   1.00
H565   H     0.32090   0.80488   0.29019   0.00000  Uiso   1.00
H566   H     0.04220   0.79273   0.29483   0.00000  Uiso   1.00
H567   H     0.25988   0.95987   0.12995   0.00000  Uiso   1.00
H568   H     0.27260   0.90878   0.09907   0.00000  Uiso   1.00
N569   N     0.16667   0.95240   0.16667   0.00000  Uiso   1.00
N570   N     0.16667   0.71427   0.16667   0.00000  Uiso   1.00
N571   N     0.19986   0.71445   0.24773   0.00000  Uiso   1.00
N572   N     0.12664   0.95130   0.09102   0.00000  Uiso   1.00
N573   N     0.12711   0.71469   0.09002   0.00000  Uiso   1.00
N574   N     0.20563   0.95435   0.24541   0.00000  Uiso   1.00
O575   O     0.10559   0.87154   0.16666   0.00000  Uiso   1.00
O576   O     0.29269   0.91635   0.17411   0.00000  Uiso   1.00
O577   O     0.29539   0.75325   0.14429   0.00000  Uiso   1.00
O578   O     0.04147   0.91317   0.18909   0.00000  Uiso   1.00
O579   O     0.22774   0.79513   0.16667   0.00000  Uiso   1.00
O580   O     0.22774   0.87154   0.16667   0.00000  Uiso   1.00
O581   O     0.10559   0.79513   0.16666   0.00000  Uiso   1.00
O582   O     0.16667   0.87155   0.09511   0.00000  Uiso   1.00
O583   O     0.16666   0.79512   0.23822   0.00000  Uiso   1.00
O584   O     0.16666   0.87155   0.23822   0.00000  Uiso   1.00
O585   O     0.16667   0.79512   0.09511   0.00000  Uiso   1.00
O586   O     0.04076   0.76704   0.11153   0.00000  Uiso   1.00
Zn587  Zn    0.16667   0.88437   0.16667   0.00000  Uiso   1.00
Zn588  Zn    0.16667   0.78229   0.16667   0.00000  Uiso   1.00
C589   C     0.42018   0.83369   0.16510   0.00000  Uiso   1.00
C590   C     0.35464   0.87413   0.17580   0.00000  Uiso   1.00
C591   C     0.62451   0.83414   0.16313   0.00000  Uiso   1.00
C592   C     0.37617   0.83534   0.16137   0.00000  Uiso   1.00
C593   C     0.51769   0.69076   0.20511   0.00000  Uiso   1.00
C594   C     0.48057   0.97582   0.12952   0.00000  Uiso   1.00
C595   C     0.48097   0.69062   0.12910   0.00000  Uiso   1.00
C596   C     0.51870   0.97643   0.20458   0.00000  Uiso   1.00
C597   C     0.38093   0.78620   0.06355   0.00000  Uiso   1.00
C598   C     0.34159   0.78558   0.03114   0.00000  Uiso   1.00
C599   C     0.34886   0.80827   0.31416   0.00000  Uiso   1.00
C600   C     0.58009   0.83339   0.16592   0.00000  Uiso   1.00
C601   C     0.61801   0.93436   0.12580   0.00000  Uiso   1.00
C602   C     0.65628   0.95709   0.10366   0.00000  Uiso   1.00
C603   C     0.64509   0.98615   0.05858   0.00000  Uiso   1.00
C604   C     0.62468   0.73141   0.19119   0.00000  Uiso   1.00
C605   C     0.66597   0.71787   0.21558   0.00000  Uiso   1.00
C606   C     0.65829   0.69120   0.26338   0.00000  Uiso   1.00
C607   C     0.38134   0.91314   0.24122   0.00000  Uiso   1.00
C608   C     0.41315   0.94913   0.25352   0.00000  Uiso   1.00
C609   C     0.41992   0.95337   0.30957   0.00000  Uiso   1.00
C610   C     0.49983   0.83336   0.07297   0.00000  Uiso   1.00
C611   C     0.49985   0.83331   0.26036   0.00000  Uiso   1.00
C612   C     0.49968   0.83339   0.02180   0.00000  Uiso   1.00
C613   C     0.49969   0.83331   0.31152   0.00000  Uiso   1.00
C614   C     0.35500   0.79873   0.14135   0.00000  Uiso   1.00
C615   C     0.64575   0.87525   0.16969   0.00000  Uiso   1.00
C616   C     0.64683   0.79476   0.15131   0.00000  Uiso   1.00
H617   H     0.40469   0.76596   0.04421   0.00000  Uiso   1.00
H618   H     0.33782   0.97842   0.13234   0.00000  Uiso   1.00
H619   H     0.34554   0.93120   0.09176   0.00000  Uiso   1.00
H620   H     0.34006   0.66928   0.04436   0.00000  Uiso   1.00
H621   H     0.62272   0.67934   0.06930   0.00000  Uiso   1.00
H622   H     0.63152   0.96523   0.02835   0.00000  Uiso   1.00
H623   H     0.60634   0.70050   0.18467   0.00000  Uiso   1.00
H624   H     0.60751   0.75258   0.21821   0.00000  Uiso   1.00
H625   H     0.35150   0.69780   0.18945   0.00000  Uiso   1.00
H626   H     0.35053   0.74824   0.22567   0.00000  Uiso   1.00
H627   H     0.63623   0.70918   0.28786   0.00000  Uiso   1.00
H628   H     0.39379   0.82087   0.06561   0.00000  Uiso   1.00
H629   H     0.35427   0.68722   0.28449   0.00000  Uiso   1.00
H630   H     0.64548   0.99098   0.25420   0.00000  Uiso   1.00
H631   H     0.39381   0.88037   0.25486   0.00000  Uiso   1.00
H632   H     0.35183   0.92060   0.26063   0.00000  Uiso   1.00
H633   H     0.44283   0.94005   0.23595   0.00000  Uiso   1.00
H634   H     0.40319   0.98186   0.23774   0.00000  Uiso   1.00
H635   H     0.39030   0.95984   0.32889   0.00000  Uiso   1.00
H636   H     0.44116   0.98185   0.31687   0.00000  Uiso   1.00
H637   H     0.43378   0.92195   0.32456   0.00000  Uiso   1.00
H638   H     0.56271   0.70261   0.25648   0.00000  Uiso   1.00
H639   H     0.66516   0.75034   0.02510   0.00000  Uiso   1.00
H640   H     0.51428   0.70658   0.27805   0.00000  Uiso   1.00
H641   H     0.47415   0.95922   0.05724   0.00000  Uiso   1.00
H642   H     0.42894   0.96091   0.08971   0.00000  Uiso   1.00
H643   H     0.42962   0.70446   0.08920   0.00000  Uiso   1.00
H644   H     0.47398   0.70604   0.05600   0.00000  Uiso   1.00
H645   H     0.55723   0.92821   0.23224   0.00000  Uiso   1.00
H646   H     0.51669   0.94283   0.27033   0.00000  Uiso   1.00
H647   H     0.64945   0.80365   0.05008   0.00000  Uiso   1.00
H648   H     0.35509   0.84451   0.31996   0.00000  Uiso   1.00
H649   H     0.65423   0.80488   0.29019   0.00000  Uiso   1.00
H650   H     0.37554   0.79273   0.29483   0.00000  Uiso   1.00
H651   H     0.59321   0.95987   0.12995   0.00000  Uiso   1.00
H652   H     0.60593   0.90878   0.09907   0.00000  Uiso   1.00
N653   N     0.50000   0.95240   0.16667   0.00000  Uiso   1.00
N654   N     0.50000   0.71427   0.16667   0.00000  Uiso   1.00
N655   N     0.53319   0.71445   0.24773   0.00000  Uiso   1.00
N656   N     0.45997   0.95130   0.09102   0.00000  Uiso   1.00
N657   N     0.46044   0.71469   0.09002   0.00000  Uiso   1.00
N658   N     0.53896   0.95435   0.24541   0.00000  Uiso   1.00
O659   O     0.43892   0.87154   0.16666   0.00000  Uiso   1.00
O660   O     0.62602   0.91635   0.17411   0.00000  Uiso   1.00
O661   O     0.62872   0.75325   0.14429   0.00000  Uiso   1.00
O662   O     0.37481   0.91317   0.18909   0.00000  Uiso   1.00
O663   O     0.56108   0.79513   0.16667   0.00000  Uiso   1.00
O664   O     0.56108   0.87154   0.16667   0.00000  Uiso   1.00
O665   O     0.43892   0.79513   0.16666   0.00000  Uiso   1.00
O666   O     0.50000   0.87155   0.09511   0.00000  Uiso   1.00
O667   O     0.50000   0.79512   0.23822   0.00000  Uiso   1.00
O668   O     0.50000   0.87155   0.23822   0.00000  Uiso   1.00
O669   O     0.50000   0.79512   0.09511   0.00000  Uiso   1.00
O670   O     0.37410   0.76704   0.11153   0.00000  Uiso   1.00
Zn671  Zn    0.50000   0.88437   0.16667   0.00000  Uiso   1.00
Zn672  Zn    0.50000   0.78229   0.16667   0.00000  Uiso   1.00
C673   C     0.75351   0.83369   0.16510   0.00000  Uiso   1.00
C674   C     0.68797   0.87413   0.17580   0.00000  Uiso   1.00
C675   C     0.95784   0.83414   0.16313   0.00000  Uiso   1.00
C676   C     0.70950   0.83534   0.16137   0.00000  Uiso   1.00
C677   C     0.85102   0.69076   0.20511   0.00000  Uiso   1.00
C678   C     0.81391   0.97582   0.12952   0.00000  Uiso   1.00
C679   C     0.81431   0.69062   0.12910   0.00000  Uiso   1.00
C680   C     0.85204   0.97643   0.20458   0.00000  Uiso   1.00
C681   C     0.71427   0.78620   0.06355   0.00000  Uiso   1.00
C682   C     0.67492   0.78558   0.03114   0.00000  Uiso   1.00
C683   C     0.68219   0.80827   0.31416   0.00000  Uiso   1.00
C684   C     0.91342   0.83339   0.16592   0.00000  Uiso   1.00
C685   C     0.95134   0.93436   0.12580   0.00000  Uiso   1.00
C686   C     0.98961   0.95709   0.10366   0.00000  Uiso   1.00
C687   C     0.97843   0.98615   0.05858   0.00000  Uiso   1.00
C688   C     0.95802   0.73141   0.19119   0.00000  Uiso   1.00
C689   C     0.99930   0.71787   0.21558   0.00000  Uiso   1.00
C690   C     0.99163   0.69120   0.26338   0.00000  Uiso   1.00
C691   C     0.71468   0.91314   0.24122   0.00000  Uiso   1.00
C692   C     0.74648   0.94913   0.25352   0.00000  Uiso   1.00
C693   C     0.75325   0.95337   0.30957   0.00000  Uiso   1.00
C694   C     0.83316   0.83336   0.07297   0.00000  Uiso   1.00
C695   C     0.83318   0.83331   0.26036   0.00000  Uiso   1.00
C696   C     0.83301   0.83339   0.02180   0.00000  Uiso   1.00
C697   C     0.83302   0.83331   0.31152   0.00000  Uiso   1.00
C698   C     0.68833   0.79873   0.14135   0.00000  Uiso   1.00
C699   C     0.97908   0.87525   0.16969   0.00000  Uiso   1.00
C700   C     0.98017   0.79476   0.15131   0.00000  Uiso   1.00
H701   H     0.73802   0.76596   0.04421   0.00000  Uiso   1.00
H702   H     0.67116   0.97842   0.13234   0.00000  Uiso   1.00
H703   H     0.67887   0.93120   0.09176   0.00000  Uiso   1.00
H704   H     0.67340   0.66928   0.04436   0.00000  Uiso   1.00
H705   H     0.95605   0.67934   0.06930   0.00000  Uiso   1.00
H706   H     0.96486   0.96523   0.02835   0.00000  Uiso   1.00
H707   H     0.93968   0.70050   0.18467   0.00000  Uiso   1.00
H708   H     0.94084   0.75258   0.21821   0.00000  Uiso   1.00
H709   H     0.68483   0.69780   0.18945   0.00000  Uiso   1.00
H710   H     0.68386   0.74824   0.22567   0.00000  Uiso   1.00
H711   H     0.96956   0.70918   0.28786   0.00000  Uiso   1.00
H712   H     0.72712   0.82087   0.06561   0.00000  Uiso   1.00
H713   H     0.68761   0.68722   0.28449   0.00000  Uiso   1.00
H714   H     0.97882   0.99098   0.25420   0.00000  Uiso   1.00
H715   H     0.72714   0.88037   0.25486   0.00000  Uiso   1.00
H716   H     0.68516   0.92060   0.26063   0.00000  Uiso   1.00
H717   H     0.77616   0.94005   0.23595   0.00000  Uiso   1.00
H718   H     0.73653   0.98186   0.23774   0.00000  Uiso   1.00
H719   H     0.72364   0.95984   0.32889   0.00000  Uiso   1.00
H720   H     0.77449   0.98185   0.31687   0.00000  Uiso   1.00
H721   H     0.76712   0.92195   0.32456   0.00000  Uiso   1.00
H722   H     0.89604   0.70261   0.25648   0.00000  Uiso   1.00
H723   H     0.99849   0.75034   0.02510   0.00000  Uiso   1.00
H724   H     0.84762   0.70658   0.27805   0.00000  Uiso   1.00
H725   H     0.80749   0.95922   0.05724   0.00000  Uiso   1.00
H726   H     0.76227   0.96091   0.08971   0.00000  Uiso   1.00
H727   H     0.76296   0.70446   0.08920   0.00000  Uiso   1.00
H728   H     0.80731   0.70604   0.05600   0.00000  Uiso   1.00
H729   H     0.89056   0.92821   0.23224   0.00000  Uiso   1.00
H730   H     0.85003   0.94283   0.27033   0.00000  Uiso   1.00
H731   H     0.98278   0.80365   0.05008   0.00000  Uiso   1.00
H732   H     0.68842   0.84451   0.31996   0.00000  Uiso   1.00
H733   H     0.98757   0.80488   0.29019   0.00000  Uiso   1.00
H734   H     0.70887   0.79273   0.29483   0.00000  Uiso   1.00
H735   H     0.92655   0.95987   0.12995   0.00000  Uiso   1.00
H736   H     0.93926   0.90878   0.09907   0.00000  Uiso   1.00
N737   N     0.83333   0.95240   0.16667   0.00000  Uiso   1.00
N738   N     0.83333   0.71427   0.16667   0.00000  Uiso   1.00
N739   N     0.86652   0.71445   0.24773   0.00000  Uiso   1.00
N740   N     0.79330   0.95130   0.09102   0.00000  Uiso   1.00
N741   N     0.79378   0.71469   0.09002   0.00000  Uiso   1.00
N742   N     0.87230   0.95435   0.24541   0.00000  Uiso   1.00
O743   O     0.77226   0.87154   0.16666   0.00000  Uiso   1.00
O744   O     0.95936   0.91635   0.17411   0.00000  Uiso   1.00
O745   O     0.96206   0.75325   0.14429   0.00000  Uiso   1.00
O746   O     0.70814   0.91317   0.18909   0.00000  Uiso   1.00
O747   O     0.89441   0.79513   0.16667   0.00000  Uiso   1.00
O748   O     0.89441   0.87154   0.16667   0.00000  Uiso   1.00
O749   O     0.77226   0.79513   0.16666   0.00000  Uiso   1.00
O750   O     0.83334   0.87155   0.09511   0.00000  Uiso   1.00
O751   O     0.83333   0.79512   0.23822   0.00000  Uiso   1.00
O752   O     0.83333   0.87155   0.23822   0.00000  Uiso   1.00
O753   O     0.83334   0.79512   0.09511   0.00000  Uiso   1.00
O754   O     0.70743   0.76704   0.11153   0.00000  Uiso   1.00
Zn755  Zn    0.83333   0.88437   0.16667   0.00000  Uiso   1.00
Zn756  Zn    0.83333   0.78229   0.16667   0.00000  Uiso   1.00
C757   C     0.08684   0.16703   0.49844   0.00000  Uiso   1.00
C758   C     0.02131   0.20746   0.50913   0.00000  Uiso   1.00
C759   C     0.29118   0.16747   0.49646   0.00000  Uiso   1.00
C760   C     0.04283   0.16867   0.49470   0.00000  Uiso   1.00
C761   C     0.18435   0.02410   0.53844   0.00000  Uiso   1.00
C762   C     0.14724   0.30916   0.46285   0.00000  Uiso   1.00
C763   C     0.14764   0.02395   0.46243   0.00000  Uiso   1.00
C764   C     0.18537   0.30977   0.53791   0.00000  Uiso   1.00
C765   C     0.04760   0.11954   0.39689   0.00000  Uiso   1.00
C766   C     0.00825   0.11891   0.36448   0.00000  Uiso   1.00
C767   C     0.01552   0.14160   0.64749   0.00000  Uiso   1.00
C768   C     0.24675   0.16673   0.49926   0.00000  Uiso   1.00
C769   C     0.28468   0.26769   0.45913   0.00000  Uiso   1.00
C770   C     0.32295   0.29043   0.43700   0.00000  Uiso   1.00
C771   C     0.31176   0.31949   0.39191   0.00000  Uiso   1.00
C772   C     0.29135   0.06474   0.52452   0.00000  Uiso   1.00
C773   C     0.33264   0.05121   0.54892   0.00000  Uiso   1.00
C774   C     0.32496   0.02453   0.59671   0.00000  Uiso   1.00
C775   C     0.04801   0.24647   0.57455   0.00000  Uiso   1.00
C776   C     0.07981   0.28246   0.58685   0.00000  Uiso   1.00
C777   C     0.08659   0.28670   0.64291   0.00000  Uiso   1.00
C778   C     0.16650   0.16670   0.40630   0.00000  Uiso   1.00
C779   C     0.16652   0.16665   0.59369   0.00000  Uiso   1.00
C780   C     0.16634   0.16672   0.35514   0.00000  Uiso   1.00
C781   C     0.16635   0.16665   0.64485   0.00000  Uiso   1.00
C782   C     0.02166   0.13207   0.47468   0.00000  Uiso   1.00
C783   C     0.31241   0.20858   0.50302   0.00000  Uiso   1.00
C784   C     0.31350   0.12809   0.48465   0.00000  Uiso   1.00
H785   H     0.07136   0.09930   0.37754   0.00000  Uiso   1.00
H786   H     0.00449   0.31176   0.46568   0.00000  Uiso   1.00
H787   H     0.01220   0.26453   0.42509   0.00000  Uiso   1.00
H788   H     0.00673   0.00262   0.37770   0.00000  Uiso   1.00
H789   H     0.28938   0.01267   0.40263   0.00000  Uiso   1.00
H790   H     0.29819   0.29857   0.36168   0.00000  Uiso   1.00
H791   H     0.27301   0.03384   0.51800   0.00000  Uiso   1.00
H792   H     0.27417   0.08591   0.55154   0.00000  Uiso   1.00
H793   H     0.01816   0.03113   0.52278   0.00000  Uiso   1.00
H794   H     0.01720   0.08157   0.55901   0.00000  Uiso   1.00
H795   H     0.30289   0.04251   0.62119   0.00000  Uiso   1.00
H796   H     0.06046   0.15421   0.39894   0.00000  Uiso   1.00
H797   H     0.02094   0.02055   0.61782   0.00000  Uiso   1.00
H798   H     0.31215   0.32432   0.58754   0.00000  Uiso   1.00
H799   H     0.06047   0.21370   0.58819   0.00000  Uiso   1.00
H800   H     0.01850   0.25393   0.59396   0.00000  Uiso   1.00
H801   H     0.10950   0.27338   0.56928   0.00000  Uiso   1.00
H802   H     0.06986   0.31520   0.57108   0.00000  Uiso   1.00
H803   H     0.05697   0.29317   0.66222   0.00000  Uiso   1.00
H804   H     0.10783   0.31518   0.65021   0.00000  Uiso   1.00
H805   H     0.10045   0.25528   0.65790   0.00000  Uiso   1.00
H806   H     0.22937   0.03594   0.58981   0.00000  Uiso   1.00
H807   H     0.33183   0.08368   0.35843   0.00000  Uiso   1.00
H808   H     0.18095   0.03991   0.61138   0.00000  Uiso   1.00
H809   H     0.14082   0.29255   0.39057   0.00000  Uiso   1.00
H810   H     0.09560   0.29424   0.42305   0.00000  Uiso   1.00
H811   H     0.09629   0.03779   0.42254   0.00000  Uiso   1.00
H812   H     0.14065   0.03937   0.38934   0.00000  Uiso   1.00
H813   H     0.22390   0.26154   0.56557   0.00000  Uiso   1.00
H814   H     0.18336   0.27617   0.60367   0.00000  Uiso   1.00
H815   H     0.31611   0.13698   0.38341   0.00000  Uiso   1.00
H816   H     0.02175   0.17785   0.65329   0.00000  Uiso   1.00
H817   H     0.32090   0.13821   0.62352   0.00000  Uiso   1.00
H818   H     0.04220   0.12607   0.62816   0.00000  Uiso   1.00
H819   H     0.25988   0.29320   0.46328   0.00000  Uiso   1.00
H820   H     0.27260   0.24211   0.43240   0.00000  Uiso   1.00
N821   N     0.16667   0.28573   0.50000   0.00000  Uiso   1.00
N822   N     0.16667   0.04760   0.50000   0.00000  Uiso   1.00
N823   N     0.19986   0.04778   0.58107   0.00000  Uiso   1.00
N824   N     0.12664   0.28463   0.42435   0.00000  Uiso   1.00
N825   N     0.12711   0.04802   0.42335   0.00000  Uiso   1.00
N826   N     0.20563   0.28769   0.57875   0.00000  Uiso   1.00
O827   O     0.10559   0.20487   0.50000   0.00000  Uiso   1.00
O828   O     0.29269   0.24968   0.50744   0.00000  Uiso   1.00
O829   O     0.29539   0.08658   0.47763   0.00000  Uiso   1.00
O830   O     0.04147   0.24650   0.52242   0.00000  Uiso   1.00
O831   O     0.22774   0.12846   0.50000   0.00000  Uiso   1.00
O832   O     0.22774   0.20487   0.50000   0.00000  Uiso   1.00
O833   O     0.10559   0.12846   0.50000   0.00000  Uiso   1.00
O834   O     0.16667   0.20488   0.42845   0.00000  Uiso   1.00
O835   O     0.16666   0.12845   0.57155   0.00000  Uiso   1.00
O836   O     0.16666   0.20488   0.57155   0.00000  Uiso   1.00
O837   O     0.16667   0.12845   0.42845   0.00000  Uiso   1.00
O838   O     0.04076   0.10038   0.44486   0.00000  Uiso   1.00
Zn839  Zn    0.16667   0.21771   0.50000   0.00000  Uiso   1.00
Zn840  Zn    0.16667   0.11563   0.50000   0.00000  Uiso   1.00
C841   C     0.42018   0.16703   0.49844   0.00000  Uiso   1.00
C842   C     0.35464   0.20746   0.50913   0.00000  Uiso   1.00
C843   C     0.62451   0.16747   0.49646   0.00000  Uiso   1.00
C844   C     0.37617   0.16867   0.49470   0.00000  Uiso   1.00
C845   C     0.51769   0.02410   0.53844   0.00000  Uiso   1.00
C846   C     0.48057   0.30916   0.46285   0.00000  Uiso   1.00
C847   C     0.48097   0.02395   0.46243   0.00000  Uiso   1.00
C848   C     0.51870   0.30977   0.53791   0.00000  Uiso   1.00
C849   C     0.38093   0.11954   0.39689   0.00000  Uiso   1.00
C850   C     0.34159   0.11891   0.36448   0.00000  Uiso   1.00
C851   C     0.34886   0.14160   0.64749   0.00000  Uiso   1.00
C852   C     0.58009   0.16673   0.49926   0.00000  Uiso   1.00
C853   C     0.61801   0.26769   0.45913   0.00000  Uiso   1.00
C854   C     0.65628   0.29043   0.43700   0.00000  Uiso   1.00
C855   C     0.64509   0.31949   0.39191   0.00000  Uiso   1.00
C856   C     0.62468   0.06474   0.52452   0.00000  Uiso   1.00
C857   C     0.66597   0.05121   0.54892   0.00000  Uiso   1.00
C858   C     0.65829   0.02453   0.59671   0.00000  Uiso   1.00
C859   C     0.38134   0.24647   0.57455   0.00000  Uiso   1.00
C860   C     0.41315   0.28246   0.58685   0.00000  Uiso   1.00
C861   C     0.41992   0.28670   0.64291   0.00000  Uiso   1.00
C862   C     0.49983   0.16670   0.40630   0.00000  Uiso   1.00
C863   C     0.49985   0.16665   0.59369   0.00000  Uiso   1.00
C864   C     0.49968   0.16672   0.35514   0.00000  Uiso   1.00
C865   C     0.49969   0.16665   0.64485   0.00000  Uiso   1.00
C866   C     0.35500   0.13207   0.47468   0.00000  Uiso   1.00
C867   C     0.64575   0.20858   0.50302   0.00000  Uiso   1.00
C868   C     0.64683   0.12809   0.48465   0.00000  Uiso   1.00
H869   H     0.40469   0.09930   0.37754   0.00000  Uiso   1.00
H870   H     0.33782   0.31176   0.46568   0.00000  Uiso   1.00
H871   H     0.34554   0.26453   0.42509   0.00000  Uiso   1.00
H872   H     0.34006   0.00262   0.37770   0.00000  Uiso   1.00
H873   H     0.62272   0.01267   0.40263   0.00000  Uiso   1.00
H874   H     0.63152   0.29857   0.36168   0.00000  Uiso   1.00
H875   H     0.60634   0.03384   0.51800   0.00000  Uiso   1.00
H876   H     0.60751   0.08591   0.55154   0.00000  Uiso   1.00
H877   H     0.35150   0.03113   0.52278   0.00000  Uiso   1.00
H878   H     0.35053   0.08157   0.55901   0.00000  Uiso   1.00
H879   H     0.63623   0.04251   0.62119   0.00000  Uiso   1.00
H880   H     0.39379   0.15421   0.39894   0.00000  Uiso   1.00
H881   H     0.35427   0.02055   0.61782   0.00000  Uiso   1.00
H882   H     0.64548   0.32432   0.58754   0.00000  Uiso   1.00
H883   H     0.39381   0.21370   0.58819   0.00000  Uiso   1.00
H884   H     0.35183   0.25393   0.59396   0.00000  Uiso   1.00
H885   H     0.44283   0.27338   0.56928   0.00000  Uiso   1.00
H886   H     0.40319   0.31520   0.57108   0.00000  Uiso   1.00
H887   H     0.39030   0.29317   0.66222   0.00000  Uiso   1.00
H888   H     0.44116   0.31518   0.65021   0.00000  Uiso   1.00
H889   H     0.43378   0.25528   0.65790   0.00000  Uiso   1.00
H890   H     0.56271   0.03594   0.58981   0.00000  Uiso   1.00
H891   H     0.66516   0.08368   0.35843   0.00000  Uiso   1.00
H892   H     0.51428   0.03991   0.61138   0.00000  Uiso   1.00
H893   H     0.47415   0.29255   0.39057   0.00000  Uiso   1.00
H894   H     0.42894   0.29424   0.42305   0.00000  Uiso   1.00
H895   H     0.42962   0.03779   0.42254   0.00000  Uiso   1.00
H896   H     0.47398   0.03937   0.38934   0.00000  Uiso   1.00
H897   H     0.55723   0.26154   0.56557   0.00000  Uiso   1.00
H898   H     0.51669   0.27617   0.60367   0.00000  Uiso   1.00
H899   H     0.64945   0.13698   0.38341   0.00000  Uiso   1.00
H900   H     0.35509   0.17785   0.65329   0.00000  Uiso   1.00
H901   H     0.65423   0.13821   0.62352   0.00000  Uiso   1.00
H902   H     0.37554   0.12607   0.62816   0.00000  Uiso   1.00
H903   H     0.59321   0.29320   0.46328   0.00000  Uiso   1.00
H904   H     0.60593   0.24211   0.43240   0.00000  Uiso   1.00
N905   N     0.50000   0.28573   0.50000   0.00000  Uiso   1.00
N906   N     0.50000   0.04760   0.50000   0.00000  Uiso   1.00
N907   N     0.53319   0.04778   0.58107   0.00000  Uiso   1.00
N908   N     0.45997   0.28463   0.42435   0.00000  Uiso   1.00
N909   N     0.46044   0.04802   0.42335   0.00000  Uiso   1.00
N910   N     0.53896   0.28769   0.57875   0.00000  Uiso   1.00
O911   O     0.43892   0.20487   0.50000   0.00000  Uiso   1.00
O912   O     0.62602   0.24968   0.50744   0.00000  Uiso   1.00
O913   O     0.62872   0.08658   0.47763   0.00000  Uiso   1.00
O914   O     0.37481   0.24650   0.52242   0.00000  Uiso   1.00
O915   O     0.56108   0.12846   0.50000   0.00000  Uiso   1.00
O916   O     0.56108   0.20487   0.50000   0.00000  Uiso   1.00
O917   O     0.43892   0.12846   0.50000   0.00000  Uiso   1.00
O918   O     0.50000   0.20488   0.42845   0.00000  Uiso   1.00
O919   O     0.50000   0.12845   0.57155   0.00000  Uiso   1.00
O920   O     0.50000   0.20488   0.57155   0.00000  Uiso   1.00
O921   O     0.50000   0.12845   0.42845   0.00000  Uiso   1.00
O922   O     0.37410   0.10038   0.44486   0.00000  Uiso   1.00
Zn923  Zn    0.50000   0.21771   0.50000   0.00000  Uiso   1.00
Zn924  Zn    0.50000   0.11563   0.50000   0.00000  Uiso   1.00
C925   C     0.75351   0.16703   0.49844   0.00000  Uiso   1.00
C926   C     0.68797   0.20746   0.50913   0.00000  Uiso   1.00
C927   C     0.95784   0.16747   0.49646   0.00000  Uiso   1.00
C928   C     0.70950   0.16867   0.49470   0.00000  Uiso   1.00
C929   C     0.85102   0.02410   0.53844   0.00000  Uiso   1.00
C930   C     0.81391   0.30916   0.46285   0.00000  Uiso   1.00
C931   C     0.81431   0.02395   0.46243   0.00000  Uiso   1.00
C932   C     0.85204   0.30977   0.53791   0.00000  Uiso   1.00
C933   C     0.71427   0.11954   0.39689   0.00000  Uiso   1.00
C934   C     0.67492   0.11891   0.36448   0.00000  Uiso   1.00
C935   C     0.68219   0.14160   0.64749   0.00000  Uiso   1.00
C936   C     0.91342   0.16673   0.49926   0.00000  Uiso   1.00
C937   C     0.95134   0.26769   0.45913   0.00000  Uiso   1.00
C938   C     0.98961   0.29043   0.43700   0.00000  Uiso   1.00
C939   C     0.97843   0.31949   0.39191   0.00000  Uiso   1.00
C940   C     0.95802   0.06474   0.52452   0.00000  Uiso   1.00
C941   C     0.99930   0.05121   0.54892   0.00000  Uiso   1.00
C942   C     0.99163   0.02453   0.59671   0.00000  Uiso   1.00
C943   C     0.71468   0.24647   0.57455   0.00000  Uiso   1.00
C944   C     0.74648   0.28246   0.58685   0.00000  Uiso   1.00
C945   C     0.75325   0.28670   0.64291   0.00000  Uiso   1.00
C946   C     0.83316   0.16670   0.40630   0.00000  Uiso   1.00
C947   C     0.83318   0.16665   0.59369   0.00000  Uiso   1.00
C948   C     0.83301   0.16672   0.35514   0.00000  Uiso   1.00
C949   C     0.83302   0.16665   0.64485   0.00000  Uiso   1.00
C950   C     0.68833   0.13207   0.47468   0.00000  Uiso   1.00
C951   C     0.97908   0.20858   0.50302   0.00000  Uiso   1.00
C952   C     0.98017   0.12809   0.48465   0.00000  Uiso   1.00
H953   H     0.73802   0.09930   0.37754   0.00000  Uiso   1.00
H954   H     0.67116   0.31176   0.46568   0.00000  Uiso   1.00
H955   H     0.67887   0.26453   0.42509   0.00000  Uiso   1.00
H956   H     0.67340   0.00262   0.37770   0.00000  Uiso   1.00
H957   H     0.95605   0.01267   0.40263   0.00000  Uiso   1.00
H958   H     0.96486   0.29857   0.36168   0.00000  Uiso   1.00
H959   H     0.93968   0.03384   0.51800   0.00000  Uiso   1.00
H960   H     0.94084   0.08591   0.55154   0.00000  Uiso   1.00
H961   H     0.68483   0.03113   0.52278   0.00000  Uiso   1.00
H962   H     0.68386   0.08157   0.55901   0.00000  Uiso   1.00
H963   H     0.96956   0.04251   0.62119   0.00000  Uiso   1.00
H964   H     0.72712   0.15421   0.39894   0.00000  Uiso   1.00
H965   H     0.68761   0.02055   0.61782   0.00000  Uiso   1.00
H966   H     0.97882   0.32432   0.58754   0.00000  Uiso   1.00
H967   H     0.72714   0.21370   0.58819   0.00000  Uiso   1.00
H968   H     0.68516   0.25393   0.59396   0.00000  Uiso   1.00
H969   H     0.77616   0.27338   0.56928   0.00000  Uiso   1.00
H970   H     0.73653   0.31520   0.57108   0.00000  Uiso   1.00
H971   H     0.72364   0.29317   0.66222   0.00000  Uiso   1.00
H972   H     0.77449   0.31518   0.65021   0.00000  Uiso   1.00
H973   H     0.76712   0.25528   0.65790   0.00000  Uiso   1.00
H974   H     0.89604   0.03594   0.58981   0.00000  Uiso   1.00
H975   H     0.99849   0.08368   0.35843   0.00000  Uiso   1.00
H976   H     0.84762   0.03991   0.61138   0.00000  Uiso   1.00
H977   H     0.80749   0.29255   0.39057   0.00000  Uiso   1.00
H978   H     0.76227   0.29424   0.42305   0.00000  Uiso   1.00
H979   H     0.76296   0.03779   0.42254   0.00000  Uiso   1.00
H980   H     0.80731   0.03937   0.38934   0.00000  Uiso   1.00
H981   H     0.89056   0.26154   0.56557   0.00000  Uiso   1.00
H982   H     0.85003   0.27617   0.60367   0.00000  Uiso   1.00
H983   H     0.98278   0.13698   0.38341   0.00000  Uiso   1.00
H984   H     0.68842   0.17785   0.65329   0.00000  Uiso   1.00
H985   H     0.98757   0.13821   0.62352   0.00000  Uiso   1.00
H986   H     0.70887   0.12607   0.62816   0.00000  Uiso   1.00
H987   H     0.92655   0.29320   0.46328   0.00000  Uiso   1.00
H988   H     0.93926   0.24211   0.43240   0.00000  Uiso   1.00
N989   N     0.83333   0.28573   0.50000   0.00000  Uiso   1.00
N990   N     0.83333   0.04760   0.50000   0.00000  Uiso   1.00
N991   N     0.86652   0.04778   0.58107   0.00000  Uiso   1.00
N992   N     0.79330   0.28463   0.42435   0.00000  Uiso   1.00
N993   N     0.79378   0.04802   0.42335   0.00000  Uiso   1.00
N994   N     0.87230   0.28769   0.57875   0.00000  Uiso   1.00
O995   O     0.77226   0.20487   0.50000   0.00000  Uiso   1.00
O996   O     0.95936   0.24968   0.50744   0.00000  Uiso   1.00
O997   O     0.96206   0.08658   0.47763   0.00000  Uiso   1.00
O998   O     0.70814   0.24650   0.52242   0.00000  Uiso   1.00
O999   O     0.89441   0.12846   0.50000   0.00000  Uiso   1.00
O1000  O     0.89441   0.20487   0.50000   0.00000  Uiso   1.00
O1001  O     0.77226   0.12846   0.50000   0.00000  Uiso   1.00
O1002  O     0.83334   0.20488   0.42845   0.00000  Uiso   1.00
O1003  O     0.83333   0.12845   0.57155   0.00000  Uiso   1.00
O1004  O     0.83333   0.20488   0.57155   0.00000  Uiso   1.00
O1005  O     0.83334   0.12845   0.42845   0.00000  Uiso   1.00
O1006  O     0.70743   0.10038   0.44486   0.00000  Uiso   1.00
Zn1007 Zn    0.83333   0.21771   0.50000   0.00000  Uiso   1.00
Zn1008 Zn    0.83333   0.11563   0.50000   0.00000  Uiso   1.00
C1009  C     0.08684   0.50036   0.49844   0.00000  Uiso   1.00
C1010  C     0.02131   0.54079   0.50913   0.00000  Uiso   1.00
C1011  C     0.29118   0.50080   0.49646   0.00000  Uiso   1.00
C1012  C     0.04283   0.50200   0.49470   0.00000  Uiso   1.00
C1013  C     0.18435   0.35743   0.53844   0.00000  Uiso   1.00
C1014  C     0.14724   0.64249   0.46285   0.00000  Uiso   1.00
C1015  C     0.14764   0.35729   0.46243   0.00000  Uiso   1.00
C1016  C     0.18537   0.64310   0.53791   0.00000  Uiso   1.00
C1017  C     0.04760   0.45287   0.39689   0.00000  Uiso   1.00
C1018  C     0.00825   0.45225   0.36448   0.00000  Uiso   1.00
C1019  C     0.01552   0.47494   0.64749   0.00000  Uiso   1.00
C1020  C     0.24675   0.50006   0.49926   0.00000  Uiso   1.00
C1021  C     0.28468   0.60103   0.45913   0.00000  Uiso   1.00
C1022  C     0.32295   0.62376   0.43700   0.00000  Uiso   1.00
C1023  C     0.31176   0.65282   0.39191   0.00000  Uiso   1.00
C1024  C     0.29135   0.39808   0.52452   0.00000  Uiso   1.00
C1025  C     0.33264   0.38454   0.54892   0.00000  Uiso   1.00
C1026  C     0.32496   0.35787   0.59671   0.00000  Uiso   1.00
C1027  C     0.04801   0.57980   0.57455   0.00000  Uiso   1.00
C1028  C     0.07981   0.61579   0.58685   0.00000  Uiso   1.00
C1029  C     0.08659   0.62004   0.64291   0.00000  Uiso   1.00
C1030  C     0.16650   0.50003   0.40630   0.00000  Uiso   1.00
C1031  C     0.16652   0.49998   0.59369   0.00000  Uiso   1.00
C1032  C     0.16634   0.50005   0.35514   0.00000  Uiso   1.00
C1033  C     0.16635   0.49998   0.64485   0.00000  Uiso   1.00
C1034  C     0.02166   0.46540   0.47468   0.00000  Uiso   1.00
C1035  C     0.31241   0.54192   0.50302   0.00000  Uiso   1.00
C1036  C     0.31350   0.46142   0.48465   0.00000  Uiso   1.00
H1037  H     0.07136   0.43263   0.37754   0.00000  Uiso   1.00
H1038  H     0.00449   0.64509   0.46568   0.00000  Uiso   1.00
H1039  H     0.01220   0.59786   0.42509   0.00000  Uiso   1.00
H1040  H     0.00673   0.33595   0.37770   0.00000  Uiso   1.00
H1041  H     0.28938   0.34601   0.40263   0.00000  Uiso   1.00
H1042  H     0.29819   0.63190   0.36168   0.00000  Uiso   1.00
H1043  H     0.27301   0.36717   0.51800   0.00000  Uiso   1.00
H1044  H     0.27417   0.41925   0.55154   0.00000  Uiso   1.00
H1045  H     0.01816   0.36446   0.52278   0.00000  Uiso   1.00
H1046  H     0.01720   0.41491   0.55901   0.00000  Uiso   1.00
H1047  H     0.30289   0.37584   0.62119   0.00000  Uiso   1.00
H1048  H     0.06046   0.48754   0.39894   0.00000  Uiso   1.00
H1049  H     0.02094   0.35389   0.61782   0.00000  Uiso   1.00
H1050  H     0.31215   0.65765   0.58754   0.00000  Uiso   1.00
H1051  H     0.06047   0.54704   0.58819   0.00000  Uiso   1.00
H1052  H     0.01850   0.58727   0.59396   0.00000  Uiso   1.00
H1053  H     0.10950   0.60672   0.56928   0.00000  Uiso   1.00
H1054  H     0.06986   0.64853   0.57108   0.00000  Uiso   1.00
H1055  H     0.05697   0.62650   0.66222   0.00000  Uiso   1.00
H1056  H     0.10783   0.64851   0.65021   0.00000  Uiso   1.00
H1057  H     0.10045   0.58862   0.65790   0.00000  Uiso   1.00
H1058  H     0.22937   0.36927   0.58981   0.00000  Uiso   1.00
H1059  H     0.33183   0.41701   0.35843   0.00000  Uiso   1.00
H1060  H     0.18095   0.37325   0.61138   0.00000  Uiso   1.00
H1061  H     0.14082   0.62589   0.39057   0.00000  Uiso   1.00
H1062  H     0.09560   0.62757   0.42305   0.00000  Uiso   1.00
H1063  H     0.09629   0.37113   0.42254   0.00000  Uiso   1.00
H1064  H     0.14065   0.37270   0.38934   0.00000  Uiso   1.00
H1065  H     0.22390   0.59488   0.56557   0.00000  Uiso   1.00
H1066  H     0.18336   0.60950   0.60367   0.00000  Uiso   1.00
H1067  H     0.31611   0.47031   0.38341   0.00000  Uiso   1.00
H1068  H     0.02175   0.51118   0.65329   0.00000  Uiso   1.00
H1069  H     0.32090   0.47155   0.62352   0.00000  Uiso   1.00
H1070  H     0.04220   0.45940   0.62816   0.00000  Uiso   1.00
H1071  H     0.25988   0.62654   0.46328   0.00000  Uiso   1.00
H1072  H     0.27260   0.57544   0.43240   0.00000  Uiso   1.00
N1073  N     0.16667   0.61907   0.50000   0.00000  Uiso   1.00
N1074  N     0.16667   0.38093   0.50000   0.00000  Uiso   1.00
N1075  N     0.19986   0.38111   0.58107   0.00000  Uiso   1.00
N1076  N     0.12664   0.61796   0.42435   0.00000  Uiso   1.00
N1077  N     0.12711   0.38136   0.42335   0.00000  Uiso   1.00
N1078  N     0.20563   0.62102   0.57875   0.00000  Uiso   1.00
O1079  O     0.10559   0.53821   0.50000   0.00000  Uiso   1.00
O1080  O     0.29269   0.58301   0.50744   0.00000  Uiso   1.00
O1081  O     0.29539   0.41991   0.47763   0.00000  Uiso   1.00
O1082  O     0.04147   0.57984   0.52242   0.00000  Uiso   1.00
O1083  O     0.22774   0.46179   0.50000   0.00000  Uiso   1.00
O1084  O     0.22774   0.53821   0.50000   0.00000  Uiso   1.00
O1085  O     0.10559   0.46179   0.50000   0.00000  Uiso   1.00
O1086  O     0.16667   0.53821   0.42845   0.00000  Uiso   1.00
O1087  O     0.16666   0.46179   0.57155   0.00000  Uiso   1.00
O1088  O     0.16666   0.53821   0.57155   0.00000  Uiso   1.00
O1089  O     0.16667   0.46179   0.42845   0.00000  Uiso   1.00
O1090  O     0.04076   0.43371   0.44486   0.00000  Uiso   1.00
Zn1091 Zn    0.16667   0.55104   0.50000   0.00000  Uiso   1.00
Zn1092 Zn    0.16667   0.44896   0.50000   0.00000  Uiso   1.00
C1093  C     0.42018   0.50036   0.49844   0.00000  Uiso   1.00
C1094  C     0.35464   0.54079   0.50913   0.00000  Uiso   1.00
C1095  C     0.62451   0.50080   0.49646   0.00000  Uiso   1.00
C1096  C     0.37617   0.50200   0.49470   0.00000  Uiso   1.00
C1097  C     0.51769   0.35743   0.53844   0.00000  Uiso   1.00
C1098  C     0.48057   0.64249   0.46285   0.00000  Uiso   1.00
C1099  C     0.48097   0.35729   0.46243   0.00000  Uiso   1.00
C1100  C     0.51870   0.64310   0.53791   0.00000  Uiso   1.00
C1101  C     0.38093   0.45287   0.39689   0.00000  Uiso   1.00
C1102  C     0.34159   0.45225   0.36448   0.00000  Uiso   1.00
C1103  C     0.34886   0.47494   0.64749   0.00000  Uiso   1.00
C1104  C     0.58009   0.50006   0.49926   0.00000  Uiso   1.00
C1105  C     0.61801   0.60103   0.45913   0.00000  Uiso   1.00
C1106  C     0.65628   0.62376   0.43700   0.00000  Uiso   1.00
C1107  C     0.64509   0.65282   0.39191   0.00000  Uiso   1.00
C1108  C     0.62468   0.39808   0.52452   0.00000  Uiso   1.00
C1109  C     0.66597   0.38454   0.54892   0.00000  Uiso   1.00
C1110  C     0.65829   0.35787   0.59671   0.00000  Uiso   1.00
C1111  C     0.38134   0.57980   0.57455   0.00000  Uiso   1.00
C1112  C     0.41315   0.61579   0.58685   0.00000  Uiso   1.00
C1113  C     0.41992   0.62004   0.64291   0.00000  Uiso   1.00
C1114  C     0.49983   0.50003   0.40630   0.00000  Uiso   1.00
C1115  C     0.49985   0.49998   0.59369   0.00000  Uiso   1.00
C1116  C     0.49968   0.50005   0.35514   0.00000  Uiso   1.00
C1117  C     0.49969   0.49998   0.64485   0.00000  Uiso   1.00
C1118  C     0.35500   0.46540   0.47468   0.00000  Uiso   1.00
C1119  C     0.64575   0.54192   0.50302   0.00000  Uiso   1.00
C1120  C     0.64683   0.46142   0.48465   0.00000  Uiso   1.00
H1121  H     0.40469   0.43263   0.37754   0.00000  Uiso   1.00
H1122  H     0.33782   0.64509   0.46568   0.00000  Uiso   1.00
H1123  H     0.34554   0.59786   0.42509   0.00000  Uiso   1.00
H1124  H     0.34006   0.33595   0.37770   0.00000  Uiso   1.00
H1125  H     0.62272   0.34601   0.40263   0.00000  Uiso   1.00
H1126  H     0.63152   0.63190   0.36168   0.00000  Uiso   1.00
H1127  H     0.60634   0.36717   0.51800   0.00000  Uiso   1.00
H1128  H     0.60751   0.41925   0.55154   0.00000  Uiso   1.00
H1129  H     0.35150   0.36446   0.52278   0.00000  Uiso   1.00
H1130  H     0.35053   0.41491   0.55901   0.00000  Uiso   1.00
H1131  H     0.63623   0.37584   0.62119   0.00000  Uiso   1.00
H1132  H     0.39379   0.48754   0.39894   0.00000  Uiso   1.00
H1133  H     0.35427   0.35389   0.61782   0.00000  Uiso   1.00
H1134  H     0.64548   0.65765   0.58754   0.00000  Uiso   1.00
H1135  H     0.39381   0.54704   0.58819   0.00000  Uiso   1.00
H1136  H     0.35183   0.58727   0.59396   0.00000  Uiso   1.00
H1137  H     0.44283   0.60672   0.56928   0.00000  Uiso   1.00
H1138  H     0.40319   0.64853   0.57108   0.00000  Uiso   1.00
H1139  H     0.39030   0.62650   0.66222   0.00000  Uiso   1.00
H1140  H     0.44116   0.64851   0.65021   0.00000  Uiso   1.00
H1141  H     0.43378   0.58862   0.65790   0.00000  Uiso   1.00
H1142  H     0.56271   0.36927   0.58981   0.00000  Uiso   1.00
H1143  H     0.66516   0.41701   0.35843   0.00000  Uiso   1.00
H1144  H     0.51428   0.37325   0.61138   0.00000  Uiso   1.00
H1145  H     0.47415   0.62589   0.39057   0.00000  Uiso   1.00
H1146  H     0.42894   0.62757   0.42305   0.00000  Uiso   1.00
H1147  H     0.42962   0.37113   0.42254   0.00000  Uiso   1.00
H1148  H     0.47398   0.37270   0.38934   0.00000  Uiso   1.00
H1149  H     0.55723   0.59488   0.56557   0.00000  Uiso   1.00
H1150  H     0.51669   0.60950   0.60367   0.00000  Uiso   1.00
H1151  H     0.64945   0.47031   0.38341   0.00000  Uiso   1.00
H1152  H     0.35509   0.51118   0.65329   0.00000  Uiso   1.00
H1153  H     0.65423   0.47155   0.62352   0.00000  Uiso   1.00
H1154  H     0.37554   0.45940   0.62816   0.00000  Uiso   1.00
H1155  H     0.59321   0.62654   0.46328   0.00000  Uiso   1.00
H1156  H     0.60593   0.57544   0.43240   0.00000  Uiso   1.00
N1157  N     0.50000   0.61907   0.50000   0.00000  Uiso   1.00
N1158  N     0.50000   0.38093   0.50000   0.00000  Uiso   1.00
N1159  N     0.53319   0.38111   0.58107   0.00000  Uiso   1.00
N1160  N     0.45997   0.61796   0.42435   0.00000  Uiso   1.00
N1161  N     0.46044   0.38136   0.42335   0.00000  Uiso   1.00
N1162  N     0.53896   0.62102   0.57875   0.00000  Uiso   1.00
O1163  O     0.43892   0.53821   0.50000   0.00000  Uiso   1.00
O1164  O     0.62602   0.58301   0.50744   0.00000  Uiso   1.00
O1165  O     0.62872   0.41991   0.47763   0.00000  Uiso   1.00
O1166  O     0.37481   0.57984   0.52242   0.00000  Uiso   1.00
O1167  O     0.56108   0.46179   0.50000   0.00000  Uiso   1.00
O1168  O     0.56108   0.53821   0.50000   0.00000  Uiso   1.00
O1169  O     0.43892   0.46179   0.50000   0.00000  Uiso   1.00
O1170  O     0.50000   0.53821   0.42845   0.00000  Uiso   1.00
O1171  O     0.50000   0.46179   0.57155   0.00000  Uiso   1.00
O1172  O     0.50000   0.53821   0.57155   0.00000  Uiso   1.00
O1173  O     0.50000   0.46179   0.42845   0.00000  Uiso   1.00
O1174  O     0.37410   0.43371   0.44486   0.00000  Uiso   1.00
Zn1175 Zn    0.50000   0.55104   0.50000   0.00000  Uiso   1.00
Zn1176 Zn    0.50000   0.44896   0.50000   0.00000  Uiso   1.00
C1177  C     0.75351   0.50036   0.49844   0.00000  Uiso   1.00
C1178  C     0.68797   0.54079   0.50913   0.00000  Uiso   1.00
C1179  C     0.95784   0.50080   0.49646   0.00000  Uiso   1.00
C1180  C     0.70950   0.50200   0.49470   0.00000  Uiso   1.00
C1181  C     0.85102   0.35743   0.53844   0.00000  Uiso   1.00
C1182  C     0.81391   0.64249   0.46285   0.00000  Uiso   1.00
C1183  C     0.81431   0.35729   0.46243   0.00000  Uiso   1.00
C1184  C     0.85204   0.64310   0.53791   0.00000  Uiso   1.00
C1185  C     0.71427   0.45287   0.39689   0.00000  Uiso   1.00
C1186  C     0.67492   0.45225   0.36448   0.00000  Uiso   1.00
C1187  C     0.68219   0.47494   0.64749   0.00000  Uiso   1.00
C1188  C     0.91342   0.50006   0.49926   0.00000  Uiso   1.00
C1189  C     0.95134   0.60103   0.45913   0.00000  Uiso   1.00
C1190  C     0.98961   0.62376   0.43700   0.00000  Uiso   1.00
C1191  C     0.97843   0.65282   0.39191   0.00000  Uiso   1.00
C1192  C     0.95802   0.39808   0.52452   0.00000  Uiso   1.00
C1193  C     0.99930   0.38454   0.54892   0.00000  Uiso   1.00
C1194  C     0.99163   0.35787   0.59671   0.00000  Uiso   1.00
C1195  C     0.71468   0.57980   0.57455   0.00000  Uiso   1.00
C1196  C     0.74648   0.61579   0.58685   0.00000  Uiso   1.00
C1197  C     0.75325   0.62004   0.64291   0.00000  Uiso   1.00
C1198  C     0.83316   0.50003   0.40630   0.00000  Uiso   1.00
C1199  C     0.83318   0.49998   0.59369   0.00000  Uiso   1.00
C1200  C     0.83301   0.50005   0.35514   0.00000  Uiso   1.00
C1201  C     0.83302   0.49998   0.64485   0.00000  Uiso   1.00
C1202  C     0.68833   0.46540   0.47468   0.00000  Uiso   1.00
C1203  C     0.97908   0.54192   0.50302   0.00000  Uiso   1.00
C1204  C     0.98017   0.46142   0.48465   0.00000  Uiso   1.00
H1205  H     0.73802   0.43263   0.37754   0.00000  Uiso   1.00
H1206  H     0.67116   0.64509   0.46568   0.00000  Uiso   1.00
H1207  H     0.67887   0.59786   0.42509   0.00000  Uiso   1.00
H1208  H     0.67340   0.33595   0.37770   0.00000  Uiso   1.00
H1209  H     0.95605   0.34601   0.40263   0.00000  Uiso   1.00
H1210  H     0.96486   0.63190   0.36168   0.00000  Uiso   1.00
H1211  H     0.93968   0.36717   0.51800   0.00000  Uiso   1.00
H1212  H     0.94084   0.41925   0.55154   0.00000  Uiso   1.00
H1213  H     0.68483   0.36446   0.52278   0.00000  Uiso   1.00
H1214  H     0.68386   0.41491   0.55901   0.00000  Uiso   1.00
H1215  H     0.96956   0.37584   0.62119   0.00000  Uiso   1.00
H1216  H     0.72712   0.48754   0.39894   0.00000  Uiso   1.00
H1217  H     0.68761   0.35389   0.61782   0.00000  Uiso   1.00
H1218  H     0.97882   0.65765   0.58754   0.00000  Uiso   1.00
H1219  H     0.72714   0.54704   0.58819   0.00000  Uiso   1.00
H1220  H     0.68516   0.58727   0.59396   0.00000  Uiso   1.00
H1221  H     0.77616   0.60672   0.56928   0.00000  Uiso   1.00
H1222  H     0.73653   0.64853   0.57108   0.00000  Uiso   1.00
H1223  H     0.72364   0.62650   0.66222   0.00000  Uiso   1.00
H1224  H     0.77449   0.64851   0.65021   0.00000  Uiso   1.00
H1225  H     0.76712   0.58862   0.65790   0.00000  Uiso   1.00
H1226  H     0.89604   0.36927   0.58981   0.00000  Uiso   1.00
H1227  H     0.99849   0.41701   0.35843   0.00000  Uiso   1.00
H1228  H     0.84762   0.37325   0.61138   0.00000  Uiso   1.00
H1229  H     0.80749   0.62589   0.39057   0.00000  Uiso   1.00
H1230  H     0.76227   0.62757   0.42305   0.00000  Uiso   1.00
H1231  H     0.76296   0.37113   0.42254   0.00000  Uiso   1.00
H1232  H     0.80731   0.37270   0.38934   0.00000  Uiso   1.00
H1233  H     0.89056   0.59488   0.56557   0.00000  Uiso   1.00
H1234  H     0.85003   0.60950   0.60367   0.00000  Uiso   1.00
H1235  H     0.98278   0.47031   0.38341   0.00000  Uiso   1.00
H1236  H     0.68842   0.51118   0.65329   0.00000  Uiso   1.00
H1237  H     0.98757   0.47155   0.62352   0.00000  Uiso   1.00
H1238  H     0.70887   0.45940   0.62816   0.00000  Uiso   1.00
H1239  H     0.92655   0.62654   0.46328   0.00000  Uiso   1.00
H1240  H     0.93926   0.57544   0.43240   0.00000  Uiso   1.00
N1241  N     0.83333   0.61907   0.50000   0.00000  Uiso   1.00
N1242  N     0.83333   0.38093   0.50000   0.00000  Uiso   1.00
N1243  N     0.86652   0.38111   0.58107   0.00000  Uiso   1.00
N1244  N     0.79330   0.61796   0.42435   0.00000  Uiso   1.00
N1245  N     0.79378   0.38136   0.42335   0.00000  Uiso   1.00
N1246  N     0.87230   0.62102   0.57875   0.00000  Uiso   1.00
O1247  O     0.77226   0.53821   0.50000   0.00000  Uiso   1.00
O1248  O     0.95936   0.58301   0.50744   0.00000  Uiso   1.00
O1249  O     0.96206   0.41991   0.47763   0.00000  Uiso   1.00
O1250  O     0.70814   0.57984   0.52242   0.00000  Uiso   1.00
O1251  O     0.89441   0.46179   0.50000   0.00000  Uiso   1.00
O1252  O     0.89441   0.53821   0.50000   0.00000  Uiso   1.00
O1253  O     0.77226   0.46179   0.50000   0.00000  Uiso   1.00
O1254  O     0.83334   0.53821   0.42845   0.00000  Uiso   1.00
O1255  O     0.83333   0.46179   0.57155   0.00000  Uiso   1.00
O1256  O     0.83333   0.53821   0.57155   0.00000  Uiso   1.00
O1257  O     0.83334   0.46179   0.42845   0.00000  Uiso   1.00
O1258  O     0.70743   0.43371   0.44486   0.00000  Uiso   1.00
Zn1259 Zn    0.83333   0.55104   0.50000   0.00000  Uiso   1.00
Zn1260 Zn    0.83333   0.44896   0.50000   0.00000  Uiso   1.00
C1261  C     0.08684   0.83369   0.49844   0.00000  Uiso   1.00
C1262  C     0.02131   0.87413   0.50913   0.00000  Uiso   1.00
C1263  C     0.29118   0.83414   0.49646   0.00000  Uiso   1.00
C1264  C     0.04283   0.83534   0.49470   0.00000  Uiso   1.00
C1265  C     0.18435   0.69076   0.53844   0.00000  Uiso   1.00
C1266  C     0.14724   0.97582   0.46285   0.00000  Uiso   1.00
C1267  C     0.14764   0.69062   0.46243   0.00000  Uiso   1.00
C1268  C     0.18537   0.97643   0.53791   0.00000  Uiso   1.00
C1269  C     0.04760   0.78620   0.39689   0.00000  Uiso   1.00
C1270  C     0.00825   0.78558   0.36448   0.00000  Uiso   1.00
C1271  C     0.01552   0.80827   0.64749   0.00000  Uiso   1.00
C1272  C     0.24675   0.83339   0.49926   0.00000  Uiso   1.00
C1273  C     0.28468   0.93436   0.45913   0.00000  Uiso   1.00
C1274  C     0.32295   0.95709   0.43700   0.00000  Uiso   1.00
C1275  C     0.31176   0.98615   0.39191   0.00000  Uiso   1.00
C1276  C     0.29135   0.73141   0.52452   0.00000  Uiso   1.00
C1277  C     0.33264   0.71787   0.54892   0.00000  Uiso   1.00
C1278  C     0.32496   0.69120   0.59671   0.00000  Uiso   1.00
C1279  C     0.04801   0.91314   0.57455   0.00000  Uiso   1.00
C1280  C     0.07981   0.94913   0.58685   0.00000  Uiso   1.00
C1281  C     0.08659   0.95337   0.64291   0.00000  Uiso   1.00
C1282  C     0.16650   0.83336   0.40630   0.00000  Uiso   1.00
C1283  C     0.16652   0.83331   0.59369   0.00000  Uiso   1.00
C1284  C     0.16634   0.83339   0.35514   0.00000  Uiso   1.00
C1285  C     0.16635   0.83331   0.64485   0.00000  Uiso   1.00
C1286  C     0.02166   0.79873   0.47468   0.00000  Uiso   1.00
C1287  C     0.31241   0.87525   0.50302   0.00000  Uiso   1.00
C1288  C     0.31350   0.79476   0.48465   0.00000  Uiso   1.00
H1289  H     0.07136   0.76596   0.37754   0.00000  Uiso   1.00
H1290  H     0.00449   0.97842   0.46568   0.00000  Uiso   1.00
H1291  H     0.01220   0.93120   0.42509   0.00000  Uiso   1.00
H1292  H     0.00673   0.66928   0.37770   0.00000  Uiso   1.00
H1293  H     0.28938   0.67934   0.40263   0.00000  Uiso   1.00
H1294  H     0.29819   0.96523   0.36168   0.00000  Uiso   1.00
H1295  H     0.27301   0.70050   0.51800   0.00000  Uiso   1.00
H1296  H     0.27417   0.75258   0.55154   0.00000  Uiso   1.00
H1297  H     0.01816   0.69780   0.52278   0.00000  Uiso   1.00
H1298  H     0.01720   0.74824   0.55901   0.00000  Uiso   1.00
H1299  H     0.30289   0.70918   0.62119   0.00000  Uiso   1.00
H1300  H     0.06046   0.82087   0.39894   0.00000  Uiso   1.00
H1301  H     0.02094   0.68722   0.61782   0.00000  Uiso   1.00
H1302  H     0.31215   0.99098   0.58754   0.00000  Uiso   1.00
H1303  H     0.06047   0.88037   0.58819   0.00000  Uiso   1.00
H1304  H     0.01850   0.92060   0.59396   0.00000  Uiso   1.00
H1305  H     0.10950   0.94005   0.56928   0.00000  Uiso   1.00
H1306  H     0.06986   0.98186   0.57108   0.00000  Uiso   1.00
H1307  H     0.05697   0.95984   0.66222   0.00000  Uiso   1.00
H1308  H     0.10783   0.98185   0.65021   0.00000  Uiso   1.00
H1309  H     0.10045   0.92195   0.65790   0.00000  Uiso   1.00
H1310  H     0.22937   0.70261   0.58981   0.00000  Uiso   1.00
H1311  H     0.33183   0.75034   0.35843   0.00000  Uiso   1.00
H1312  H     0.18095   0.70658   0.61138   0.00000  Uiso   1.00
H1313  H     0.14082   0.95922   0.39057   0.00000  Uiso   1.00
H1314  H     0.09560   0.96091   0.42305   0.00000  Uiso   1.00
H1315  H     0.09629   0.70446   0.42254   0.00000  Uiso   1.00
H1316  H     0.14065   0.70604   0.38934   0.00000  Uiso   1.00
H1317  H     0.22390   0.92821   0.56557   0.00000  Uiso   1.00
H1318  H     0.18336   0.94283   0.60367   0.00000  Uiso   1.00
H1319  H     0.31611   0.80365   0.38341   0.00000  Uiso   1.00
H1320  H     0.02175   0.84451   0.65329   0.00000  Uiso   1.00
H1321  H     0.32090   0.80488   0.62352   0.00000  Uiso   1.00
H1322  H     0.04220   0.79273   0.62816   0.00000  Uiso   1.00
H1323  H     0.25988   0.95987   0.46328   0.00000  Uiso   1.00
H1324  H     0.27260   0.90878   0.43240   0.00000  Uiso   1.00
N1325  N     0.16667   0.95240   0.50000   0.00000  Uiso   1.00
N1326  N     0.16667   0.71427   0.50000   0.00000  Uiso   1.00
N1327  N     0.19986   0.71445   0.58107   0.00000  Uiso   1.00
N1328  N     0.12664   0.95130   0.42435   0.00000  Uiso   1.00
N1329  N     0.12711   0.71469   0.42335   0.00000  Uiso   1.00
N1330  N     0.20563   0.95435   0.57875   0.00000  Uiso   1.00
O1331  O     0.10559   0.87154   0.50000   0.00000  Uiso   1.00
O1332  O     0.29269   0.91635   0.50744   0.00000  Uiso   1.00
O1333  O     0.29539   0.75325   0.47763   0.00000  Uiso   1.00
O1334  O     0.04147   0.91317   0.52242   0.00000  Uiso   1.00
O1335  O     0.22774   0.79513   0.50000   0.00000  Uiso   1.00
O1336  O     0.22774   0.87154   0.50000   0.00000  Uiso   1.00
O1337  O     0.10559   0.79513   0.50000   0.00000  Uiso   1.00
O1338  O     0.16667   0.87155   0.42845   0.00000  Uiso   1.00
O1339  O     0.16666   0.79512   0.57155   0.00000  Uiso   1.00
O1340  O     0.16666   0.87155   0.57155   0.00000  Uiso   1.00
O1341  O     0.16667   0.79512   0.42845   0.00000  Uiso   1.00
O1342  O     0.04076   0.76704   0.44486   0.00000  Uiso   1.00
Zn1343 Zn    0.16667   0.88437   0.50000   0.00000  Uiso   1.00
Zn1344 Zn    0.16667   0.78229   0.50000   0.00000  Uiso   1.00
C1345  C     0.42018   0.83369   0.49844   0.00000  Uiso   1.00
C1346  C     0.35464   0.87413   0.50913   0.00000  Uiso   1.00
C1347  C     0.62451   0.83414   0.49646   0.00000  Uiso   1.00
C1348  C     0.37617   0.83534   0.49470   0.00000  Uiso   1.00
C1349  C     0.51769   0.69076   0.53844   0.00000  Uiso   1.00
C1350  C     0.48057   0.97582   0.46285   0.00000  Uiso   1.00
C1351  C     0.48097   0.69062   0.46243   0.00000  Uiso   1.00
C1352  C     0.51870   0.97643   0.53791   0.00000  Uiso   1.00
C1353  C     0.38093   0.78620   0.39689   0.00000  Uiso   1.00
C1354  C     0.34159   0.78558   0.36448   0.00000  Uiso   1.00
C1355  C     0.34886   0.80827   0.64749   0.00000  Uiso   1.00
C1356  C     0.58009   0.83339   0.49926   0.00000  Uiso   1.00
C1357  C     0.61801   0.93436   0.45913   0.00000  Uiso   1.00
C1358  C     0.65628   0.95709   0.43700   0.00000  Uiso   1.00
C1359  C     0.64509   0.98615   0.39191   0.00000  Uiso   1.00
C1360  C     0.62468   0.73141   0.52452   0.00000  Uiso   1.00
C1361  C     0.66597   0.71787   0.54892   0.00000  Uiso   1.00
C1362  C     0.65829   0.69120   0.59671   0.00000  Uiso   1.00
C1363  C     0.38134   0.91314   0.57455   0.00000  Uiso   1.00
C1364  C     0.41315   0.94913   0.58685   0.00000  Uiso   1.00
C1365  C     0.41992   0.95337   0.64291   0.00000  Uiso   1.00
C1366  C     0.49983   0.83336   0.40630   0.00000  Uiso   1.00
C1367  C     0.49985   0.83331   0.59369   0.00000  Uiso   1.00
C1368  C     0.49968   0.83339   0.35514   0.00000  Uiso   1.00
C1369  C     0.49969   0.83331   0.64485   0.00000  Uiso   1.00
C1370  C     0.35500   0.79873   0.47468   0.00000  Uiso   1.00
C1371  C     0.64575   0.87525   0.50302   0.00000  Uiso   1.00
C1372  C     0.64683   0.79476   0.48465   0.00000  Uiso   1.00
H1373  H     0.40469   0.76596   0.37754   0.00000  Uiso   1.00
H1374  H     0.33782   0.97842   0.46568   0.00000  Uiso   1.00
H1375  H     0.34554   0.93120   0.42509   0.00000  Uiso   1.00
H1376  H     0.34006   0.66928   0.37770   0.00000  Uiso   1.00
H1377  H     0.62272   0.67934   0.40263   0.00000  Uiso   1.00
H1378  H     0.63152   0.96523   0.36168   0.00000  Uiso   1.00
H1379  H     0.60634   0.70050   0.51800   0.00000  Uiso   1.00
H1380  H     0.60751   0.75258   0.55154   0.00000  Uiso   1.00
H1381  H     0.35150   0.69780   0.52278   0.00000  Uiso   1.00
H1382  H     0.35053   0.74824   0.55901   0.00000  Uiso   1.00
H1383  H     0.63623   0.70918   0.62119   0.00000  Uiso   1.00
H1384  H     0.39379   0.82087   0.39894   0.00000  Uiso   1.00
H1385  H     0.35427   0.68722   0.61782   0.00000  Uiso   1.00
H1386  H     0.64548   0.99098   0.58754   0.00000  Uiso   1.00
H1387  H     0.39381   0.88037   0.58819   0.00000  Uiso   1.00
H1388  H     0.35183   0.92060   0.59396   0.00000  Uiso   1.00
H1389  H     0.44283   0.94005   0.56928   0.00000  Uiso   1.00
H1390  H     0.40319   0.98186   0.57108   0.00000  Uiso   1.00
H1391  H     0.39030   0.95984   0.66222   0.00000  Uiso   1.00
H1392  H     0.44116   0.98185   0.65021   0.00000  Uiso   1.00
H1393  H     0.43378   0.92195   0.65790   0.00000  Uiso   1.00
H1394  H     0.56271   0.70261   0.58981   0.00000  Uiso   1.00
H1395  H     0.66516   0.75034   0.35843   0.00000  Uiso   1.00
H1396  H     0.51428   0.70658   0.61138   0.00000  Uiso   1.00
H1397  H     0.47415   0.95922   0.39057   0.00000  Uiso   1.00
H1398  H     0.42894   0.96091   0.42305   0.00000  Uiso   1.00
H1399  H     0.42962   0.70446   0.42254   0.00000  Uiso   1.00
H1400  H     0.47398   0.70604   0.38934   0.00000  Uiso   1.00
H1401  H     0.55723   0.92821   0.56557   0.00000  Uiso   1.00
H1402  H     0.51669   0.94283   0.60367   0.00000  Uiso   1.00
H1403  H     0.64945   0.80365   0.38341   0.00000  Uiso   1.00
H1404  H     0.35509   0.84451   0.65329   0.00000  Uiso   1.00
H1405  H     0.65423   0.80488   0.62352   0.00000  Uiso   1.00
H1406  H     0.37554   0.79273   0.62816   0.00000  Uiso   1.00
H1407  H     0.59321   0.95987   0.46328   0.00000  Uiso   1.00
H1408  H     0.60593   0.90878   0.43240   0.00000  Uiso   1.00
N1409  N     0.50000   0.95240   0.50000   0.00000  Uiso   1.00
N1410  N     0.50000   0.71427   0.50000   0.00000  Uiso   1.00
N1411  N     0.53319   0.71445   0.58107   0.00000  Uiso   1.00
N1412  N     0.45997   0.95130   0.42435   0.00000  Uiso   1.00
N1413  N     0.46044   0.71469   0.42335   0.00000  Uiso   1.00
N1414  N     0.53896   0.95435   0.57875   0.00000  Uiso   1.00
O1415  O     0.43892   0.87154   0.50000   0.00000  Uiso   1.00
O1416  O     0.62602   0.91635   0.50744   0.00000  Uiso   1.00
O1417  O     0.62872   0.75325   0.47763   0.00000  Uiso   1.00
O1418  O     0.37481   0.91317   0.52242   0.00000  Uiso   1.00
O1419  O     0.56108   0.79513   0.50000   0.00000  Uiso   1.00
O1420  O     0.56108   0.87154   0.50000   0.00000  Uiso   1.00
O1421  O     0.43892   0.79513   0.50000   0.00000  Uiso   1.00
O1422  O     0.50000   0.87155   0.42845   0.00000  Uiso   1.00
O1423  O     0.50000   0.79512   0.57155   0.00000  Uiso   1.00
O1424  O     0.50000   0.87155   0.57155   0.00000  Uiso   1.00
O1425  O     0.50000   0.79512   0.42845   0.00000  Uiso   1.00
O1426  O     0.37410   0.76704   0.44486   0.00000  Uiso   1.00
Zn1427 Zn    0.50000   0.88437   0.50000   0.00000  Uiso   1.00
Zn1428 Zn    0.50000   0.78229   0.50000   0.00000  Uiso   1.00
C1429  C     0.75351   0.83369   0.49844   0.00000  Uiso   1.00
C1430  C     0.68797   0.87413   0.50913   0.00000  Uiso   1.00
C1431  C     0.95784   0.83414   0.49646   0.00000  Uiso   1.00
C1432  C     0.70950   0.83534   0.49470   0.00000  Uiso   1.00
C1433  C     0.85102   0.69076   0.53844   0.00000  Uiso   1.00
C1434  C     0.81391   0.97582   0.46285   0.00000  Uiso   1.00
C1435  C     0.81431   0.69062   0.46243   0.00000  Uiso   1.00
C1436  C     0.85204   0.97643   0.53791   0.00000  Uiso   1.00
C1437  C     0.71427   0.78620   0.39689   0.00000  Uiso   1.00
C1438  C     0.67492   0.78558   0.36448   0.00000  Uiso   1.00
C1439  C     0.68219   0.80827   0.64749   0.00000  Uiso   1.00
C1440  C     0.91342   0.83339   0.49926   0.00000  Uiso   1.00
C1441  C     0.95134   0.93436   0.45913   0.00000  Uiso   1.00
C1442  C     0.98961   0.95709   0.43700   0.00000  Uiso   1.00
C1443  C     0.97843   0.98615   0.39191   0.00000  Uiso   1.00
C1444  C     0.95802   0.73141   0.52452   0.00000  Uiso   1.00
C1445  C     0.99930   0.71787   0.54892   0.00000  Uiso   1.00
C1446  C     0.99163   0.69120   0.59671   0.00000  Uiso   1.00
C1447  C     0.71468   0.91314   0.57455   0.00000  Uiso   1.00
C1448  C     0.74648   0.94913   0.58685   0.00000  Uiso   1.00
C1449  C     0.75325   0.95337   0.64291   0.00000  Uiso   1.00
C1450  C     0.83316   0.83336   0.40630   0.00000  Uiso   1.00
C1451  C     0.83318   0.83331   0.59369   0.00000  Uiso   1.00
C1452  C     0.83301   0.83339   0.35514   0.00000  Uiso   1.00
C1453  C     0.83302   0.83331   0.64485   0.00000  Uiso   1.00
C1454  C     0.68833   0.79873   0.47468   0.00000  Uiso   1.00
C1455  C     0.97908   0.87525   0.50302   0.00000  Uiso   1.00
C1456  C     0.98017   0.79476   0.48465   0.00000  Uiso   1.00
H1457  H     0.73802   0.76596   0.37754   0.00000  Uiso   1.00
H1458  H     0.67116   0.97842   0.46568   0.00000  Uiso   1.00
H1459  H     0.67887   0.93120   0.42509   0.00000  Uiso   1.00
H1460  H     0.67340   0.66928   0.37770   0.00000  Uiso   1.00
H1461  H     0.95605   0.67934   0.40263   0.00000  Uiso   1.00
H1462  H     0.96486   0.96523   0.36168   0.00000  Uiso   1.00
H1463  H     0.93968   0.70050   0.51800   0.00000  Uiso   1.00
H1464  H     0.94084   0.75258   0.55154   0.00000  Uiso   1.00
H1465  H     0.68483   0.69780   0.52278   0.00000  Uiso   1.00
H1466  H     0.68386   0.74824   0.55901   0.00000  Uiso   1.00
H1467  H     0.96956   0.70918   0.62119   0.00000  Uiso   1.00
H1468  H     0.72712   0.82087   0.39894   0.00000  Uiso   1.00
H1469  H     0.68761   0.68722   0.61782   0.00000  Uiso   1.00
H1470  H     0.97882   0.99098   0.58754   0.00000  Uiso   1.00
H1471  H     0.72714   0.88037   0.58819   0.00000  Uiso   1.00
H1472  H     0.68516   0.92060   0.59396   0.00000  Uiso   1.00
H1473  H     0.77616   0.94005   0.56928   0.00000  Uiso   1.00
H1474  H     0.73653   0.98186   0.57108   0.00000  Uiso   1.00
H1475  H     0.72364   0.95984   0.66222   0.00000  Uiso   1.00
H1476  H     0.77449   0.98185   0.65021   0.00000  Uiso   1.00
H1477  H     0.76712   0.92195   0.65790   0.00000  Uiso   1.00
H1478  H     0.89604   0.70261   0.58981   0.00000  Uiso   1.00
H1479  H     0.99849   0.75034   0.35843   0.00000  Uiso   1.00
H1480  H     0.84762   0.70658   0.61138   0.00000  Uiso   1.00
H1481  H     0.80749   0.95922   0.39057   0.00000  Uiso   1.00
H1482  H     0.76227   0.96091   0.42305   0.00000  Uiso   1.00
H1483  H     0.76296   0.70446   0.42254   0.00000  Uiso   1.00
H1484  H     0.80731   0.70604   0.38934   0.00000  Uiso   1.00
H1485  H     0.89056   0.92821   0.56557   0.00000  Uiso   1.00
H1486  H     0.85003   0.94283   0.60367   0.00000  Uiso   1.00
H1487  H     0.98278   0.80365   0.38341   0.00000  Uiso   1.00
H1488  H     0.68842   0.84451   0.65329   0.00000  Uiso   1.00
H1489  H     0.98757   0.80488   0.62352   0.00000  Uiso   1.00
H1490  H     0.70887   0.79273   0.62816   0.00000  Uiso   1.00
H1491  H     0.92655   0.95987   0.46328   0.00000  Uiso   1.00
H1492  H     0.93926   0.90878   0.43240   0.00000  Uiso   1.00
N1493  N     0.83333   0.95240   0.50000   0.00000  Uiso   1.00
N1494  N     0.83333   0.71427   0.50000   0.00000  Uiso   1.00
N1495  N     0.86652   0.71445   0.58107   0.00000  Uiso   1.00
N1496  N     0.79330   0.95130   0.42435   0.00000  Uiso   1.00
N1497  N     0.79378   0.71469   0.42335   0.00000  Uiso   1.00
N1498  N     0.87230   0.95435   0.57875   0.00000  Uiso   1.00
O1499  O     0.77226   0.87154   0.50000   0.00000  Uiso   1.00
O1500  O     0.95936   0.91635   0.50744   0.00000  Uiso   1.00
O1501  O     0.96206   0.75325   0.47763   0.00000  Uiso   1.00
O1502  O     0.70814   0.91317   0.52242   0.00000  Uiso   1.00
O1503  O     0.89441   0.79513   0.50000   0.00000  Uiso   1.00
O1504  O     0.89441   0.87154   0.50000   0.00000  Uiso   1.00
O1505  O     0.77226   0.79513   0.50000   0.00000  Uiso   1.00
O1506  O     0.83334   0.87155   0.42845   0.00000  Uiso   1.00
O1507  O     0.83333   0.79512   0.57155   0.00000  Uiso   1.00
O1508  O     0.83333   0.87155   0.57155   0.00000  Uiso   1.00
O1509  O     0.83334   0.79512   0.42845   0.00000  Uiso   1.00
O1510  O     0.70743   0.76704   0.44486   0.00000  Uiso   1.00
Zn1511 Zn    0.83333   0.88437   0.50000   0.00000  Uiso   1.00
Zn1512 Zn    0.83333   0.78229   0.50000   0.00000  Uiso   1.00
C1513  C     0.08684   0.16703   0.83177   0.00000  Uiso   1.00
C1514  C     0.02131   0.20746   0.84247   0.00000  Uiso   1.00
C1515  C     0.29118   0.16747   0.82980   0.00000  Uiso   1.00
C1516  C     0.04283   0.16867   0.82803   0.00000  Uiso   1.00
C1517  C     0.18435   0.02410   0.87178   0.00000  Uiso   1.00
C1518  C     0.14724   0.30916   0.79618   0.00000  Uiso   1.00
C1519  C     0.14764   0.02395   0.79577   0.00000  Uiso   1.00
C1520  C     0.18537   0.30977   0.87124   0.00000  Uiso   1.00
C1521  C     0.04760   0.11954   0.73022   0.00000  Uiso   1.00
C1522  C     0.00825   0.11891   0.69781   0.00000  Uiso   1.00
C1523  C     0.01552   0.14160   0.98083   0.00000  Uiso   1.00
C1524  C     0.24675   0.16673   0.83259   0.00000  Uiso   1.00
C1525  C     0.28468   0.26769   0.79246   0.00000  Uiso   1.00
C1526  C     0.32295   0.29043   0.77033   0.00000  Uiso   1.00
C1527  C     0.31176   0.31949   0.72525   0.00000  Uiso   1.00
C1528  C     0.29135   0.06474   0.85785   0.00000  Uiso   1.00
C1529  C     0.33264   0.05121   0.88225   0.00000  Uiso   1.00
C1530  C     0.32496   0.02453   0.93005   0.00000  Uiso   1.00
C1531  C     0.04801   0.24647   0.90788   0.00000  Uiso   1.00
C1532  C     0.07981   0.28246   0.92018   0.00000  Uiso   1.00
C1533  C     0.08659   0.28670   0.97624   0.00000  Uiso   1.00
C1534  C     0.16650   0.16670   0.73963   0.00000  Uiso   1.00
C1535  C     0.16652   0.16665   0.92703   0.00000  Uiso   1.00
C1536  C     0.16634   0.16672   0.68847   0.00000  Uiso   1.00
C1537  C     0.16635   0.16665   0.97819   0.00000  Uiso   1.00
C1538  C     0.02166   0.13207   0.80801   0.00000  Uiso   1.00
C1539  C     0.31241   0.20858   0.83636   0.00000  Uiso   1.00
C1540  C     0.31350   0.12809   0.81798   0.00000  Uiso   1.00
H1541  H     0.07136   0.09930   0.71088   0.00000  Uiso   1.00
H1542  H     0.00449   0.31176   0.79901   0.00000  Uiso   1.00
H1543  H     0.01220   0.26453   0.75842   0.00000  Uiso   1.00
H1544  H     0.00673   0.00262   0.71103   0.00000  Uiso   1.00
H1545  H     0.28938   0.01267   0.73596   0.00000  Uiso   1.00
H1546  H     0.29819   0.29857   0.69502   0.00000  Uiso   1.00
H1547  H     0.27301   0.03384   0.85134   0.00000  Uiso   1.00
H1548  H     0.27417   0.08591   0.88487   0.00000  Uiso   1.00
H1549  H     0.01816   0.03113   0.85612   0.00000  Uiso   1.00
H1550  H     0.01720   0.08157   0.89234   0.00000  Uiso   1.00
H1551  H     0.30289   0.04251   0.95453   0.00000  Uiso   1.00
H1552  H     0.06046   0.15421   0.73227   0.00000  Uiso   1.00
H1553  H     0.02094   0.02055   0.95116   0.00000  Uiso   1.00
H1554  H     0.31215   0.32432   0.92087   0.00000  Uiso   1.00
H1555  H     0.06047   0.21370   0.92153   0.00000  Uiso   1.00
H1556  H     0.01850   0.25393   0.92729   0.00000  Uiso   1.00
H1557  H     0.10950   0.27338   0.90262   0.00000  Uiso   1.00
H1558  H     0.06986   0.31520   0.90441   0.00000  Uiso   1.00
H1559  H     0.05697   0.29317   0.99555   0.00000  Uiso   1.00
H1560  H     0.10783   0.31518   0.98354   0.00000  Uiso   1.00
H1561  H     0.10045   0.25528   0.99123   0.00000  Uiso   1.00
H1562  H     0.22937   0.03594   0.92314   0.00000  Uiso   1.00
H1563  H     0.33183   0.08368   0.69176   0.00000  Uiso   1.00
H1564  H     0.18095   0.03991   0.94471   0.00000  Uiso   1.00
H1565  H     0.14082   0.29255   0.72390   0.00000  Uiso   1.00
H1566  H     0.09560   0.29424   0.75638   0.00000  Uiso   1.00
H1567  H     0.09629   0.03779   0.75587   0.00000  Uiso   1.00
H1568  H     0.14065   0.03937   0.72267   0.00000  Uiso   1.00
H1569  H     0.22390   0.26154   0.89890   0.00000  Uiso   1.00
H1570  H     0.18336   0.27617   0.93700   0.00000  Uiso   1.00
H1571  H     0.31611   0.13698   0.71675   0.00000  Uiso   1.00
H1572  H     0.02175   0.17785   0.98663   0.00000  Uiso   1.00
H1573  H     0.32090   0.13821   0.95685   0.00000  Uiso   1.00
H1574  H     0.04220   0.12607   0.96150   0.00000  Uiso   1.00
H1575  H     0.25988   0.29320   0.79661   0.00000  Uiso   1.00
H1576  H     0.27260   0.24211   0.76574   0.00000  Uiso   1.00
N1577  N     0.16667   0.28573   0.83333   0.00000  Uiso   1.00
N1578  N     0.16667   0.04760   0.83333   0.00000  Uiso   1.00
N1579  N     0.19986   0.04778   0.91440   0.00000  Uiso   1.00
N1580  N     0.12664   0.28463   0.75769   0.00000  Uiso   1.00
N1581  N     0.12711   0.04802   0.75668   0.00000  Uiso   1.00
N1582  N     0.20563   0.28769   0.91208   0.00000  Uiso   1.00
O1583  O     0.10559   0.20487   0.83333   0.00000  Uiso   1.00
O1584  O     0.29269   0.24968   0.84077   0.00000  Uiso   1.00
O1585  O     0.29539   0.08658   0.81096   0.00000  Uiso   1.00
O1586  O     0.04147   0.24650   0.85575   0.00000  Uiso   1.00
O1587  O     0.22774   0.12846   0.83334   0.00000  Uiso   1.00
O1588  O     0.22774   0.20487   0.83334   0.00000  Uiso   1.00
O1589  O     0.10559   0.12846   0.83333   0.00000  Uiso   1.00
O1590  O     0.16667   0.20488   0.76178   0.00000  Uiso   1.00
O1591  O     0.16666   0.12845   0.90489   0.00000  Uiso   1.00
O1592  O     0.16666   0.20488   0.90489   0.00000  Uiso   1.00
O1593  O     0.16667   0.12845   0.76178   0.00000  Uiso   1.00
O1594  O     0.04076   0.10038   0.77820   0.00000  Uiso   1.00
Zn1595 Zn    0.16667   0.21771   0.83333   0.00000  Uiso   1.00
Zn1596 Zn    0.16667   0.11563   0.83333   0.00000  Uiso   1.00
C1597  C     0.42018   0.16703   0.83177   0.00000  Uiso   1.00
C1598  C     0.35464   0.20746   0.84247   0.00000  Uiso   1.00
C1599  C     0.62451   0.16747   0.82980   0.00000  Uiso   1.00
C1600  C     0.37617   0.16867   0.82803   0.00000  Uiso   1.00
C1601  C     0.51769   0.02410   0.87178   0.00000  Uiso   1.00
C1602  C     0.48057   0.30916   0.79618   0.00000  Uiso   1.00
C1603  C     0.48097   0.02395   0.79577   0.00000  Uiso   1.00
C1604  C     0.51870   0.30977   0.87124   0.00000  Uiso   1.00
C1605  C     0.38093   0.11954   0.73022   0.00000  Uiso   1.00
C1606  C     0.34159   0.11891   0.69781   0.00000  Uiso   1.00
C1607  C     0.34886   0.14160   0.98083   0.00000  Uiso   1.00
C1608  C     0.58009   0.16673   0.83259   0.00000  Uiso   1.00
C1609  C     0.61801   0.26769   0.79246   0.00000  Uiso   1.00
C1610  C     0.65628   0.29043   0.77033   0.00000  Uiso   1.00
C1611  C     0.64509   0.31949   0.72525   0.00000  Uiso   1.00
C1612  C     0.62468   0.06474   0.85785   0.00000  Uiso   1.00
C1613  C     0.66597   0.05121   0.88225   0.00000  Uiso   1.00
C1614  C     0.65829   0.02453   0.93005   0.00000  Uiso   1.00
C1615  C     0.38134   0.24647   0.90788   0.00000  Uiso   1.00
C1616  C     0.41315   0.28246   0.92018   0.00000  Uiso   1.00
C1617  C     0.41992   0.28670   0.97624   0.00000  Uiso   1.00
C1618  C     0.49983   0.16670   0.73963   0.00000  Uiso   1.00
C1619  C     0.49985   0.16665   0.92703   0.00000  Uiso   1.00
C1620  C     0.49968   0.16672   0.68847   0.00000  Uiso   1.00
C1621  C     0.49969   0.16665   0.97819   0.00000  Uiso   1.00
C1622  C     0.35500   0.13207   0.80801   0.00000  Uiso   1.00
C1623  C     0.64575   0.20858   0.83636   0.00000  Uiso   1.00
C1624  C     0.64683   0.12809   0.81798   0.00000  Uiso   1.00
H1625  H     0.40469   0.09930   0.71088   0.00000  Uiso   1.00
H1626  H     0.33782   0.31176   0.79901   0.00000  Uiso   1.00
H1627  H     0.34554   0.26453   0.75842   0.00000  Uiso   1.00
H1628  H     0.34006   0.00262   0.71103   0.00000  Uiso   1.00
H1629  H     0.62272   0.01267   0.73596   0.00000  Uiso   1.00
H1630  H     0.63152   0.29857   0.69502   0.00000  Uiso   1.00
H1631  H     0.60634   0.03384   0.85134   0.00000  Uiso   1.00
H1632  H     0.60751   0.08591   0.88487   0.00000  Uiso   1.00
H1633  H     0.35150   0.03113   0.85612   0.00000  Uiso   1.00
H1634  H     0.35053   0.08157   0.89234   0.00000  Uiso   1.00
H1635  H     0.63623   0.04251   0.95453   0.00000  Uiso   1.00
H1636  H     0.39379   0.15421   0.73227   0.00000  Uiso   1.00
H1637  H     0.35427   0.02055   0.95116   0.00000  Uiso   1.00
H1638  H     0.64548   0.32432   0.92087   0.00000  Uiso   1.00
H1639  H     0.39381   0.21370   0.92153   0.00000  Uiso   1.00
H1640  H     0.35183   0.25393   0.92729   0.00000  Uiso   1.00
H1641  H     0.44283   0.27338   0.90262   0.00000  Uiso   1.00
H1642  H     0.40319   0.31520   0.90441   0.00000  Uiso   1.00
H1643  H     0.39030   0.29317   0.99555   0.00000  Uiso   1.00
H1644  H     0.44116   0.31518   0.98354   0.00000  Uiso   1.00
H1645  H     0.43378   0.25528   0.99123   0.00000  Uiso   1.00
H1646  H     0.56271   0.03594   0.92314   0.00000  Uiso   1.00
H1647  H     0.66516   0.08368   0.69176   0.00000  Uiso   1.00
H1648  H     0.51428   0.03991   0.94471   0.00000  Uiso   1.00
H1649  H     0.47415   0.29255   0.72390   0.00000  Uiso   1.00
H1650  H     0.42894   0.29424   0.75638   0.00000  Uiso   1.00
H1651  H     0.42962   0.03779   0.75587   0.00000  Uiso   1.00
H1652  H     0.47398   0.03937   0.72267   0.00000  Uiso   1.00
H1653  H     0.55723   0.26154   0.89890   0.00000  Uiso   1.00
H1654  H     0.51669   0.27617   0.93700   0.00000  Uiso   1.00
H1655  H     0.64945   0.13698   0.71675   0.00000  Uiso   1.00
H1656  H     0.35509   0.17785   0.98663   0.00000  Uiso   1.00
H1657  H     0.65423   0.13821   0.95685   0.00000  Uiso   1.00
H1658  H     0.37554   0.12607   0.96150   0.00000  Uiso   1.00
H1659  H     0.59321   0.29320   0.79661   0.00000  Uiso   1.00
H1660  H     0.60593   0.24211   0.76574   0.00000  Uiso   1.00
N1661  N     0.50000   0.28573   0.83333   0.00000  Uiso   1.00
N1662  N     0.50000   0.04760   0.83333   0.00000  Uiso   1.00
N1663  N     0.53319   0.04778   0.91440   0.00000  Uiso   1.00
N1664  N     0.45997   0.28463   0.75769   0.00000  Uiso   1.00
N1665  N     0.46044   0.04802   0.75668   0.00000  Uiso   1.00
N1666  N     0.53896   0.28769   0.91208   0.00000  Uiso   1.00
O1667  O     0.43892   0.20487   0.83333   0.00000  Uiso   1.00
O1668  O     0.62602   0.24968   0.84077   0.00000  Uiso   1.00
O1669  O     0.62872   0.08658   0.81096   0.00000  Uiso   1.00
O1670  O     0.37481   0.24650   0.85575   0.00000  Uiso   1.00
O1671  O     0.56108   0.12846   0.83334   0.00000  Uiso   1.00
O1672  O     0.56108   0.20487   0.83334   0.00000  Uiso   1.00
O1673  O     0.43892   0.12846   0.83333   0.00000  Uiso   1.00
O1674  O     0.50000   0.20488   0.76178   0.00000  Uiso   1.00
O1675  O     0.50000   0.12845   0.90489   0.00000  Uiso   1.00
O1676  O     0.50000   0.20488   0.90489   0.00000  Uiso   1.00
O1677  O     0.50000   0.12845   0.76178   0.00000  Uiso   1.00
O1678  O     0.37410   0.10038   0.77820   0.00000  Uiso   1.00
Zn1679 Zn    0.50000   0.21771   0.83333   0.00000  Uiso   1.00
Zn1680 Zn    0.50000   0.11563   0.83333   0.00000  Uiso   1.00
C1681  C     0.75351   0.16703   0.83177   0.00000  Uiso   1.00
C1682  C     0.68797   0.20746   0.84247   0.00000  Uiso   1.00
C1683  C     0.95784   0.16747   0.82980   0.00000  Uiso   1.00
C1684  C     0.70950   0.16867   0.82803   0.00000  Uiso   1.00
C1685  C     0.85102   0.02410   0.87178   0.00000  Uiso   1.00
C1686  C     0.81391   0.30916   0.79618   0.00000  Uiso   1.00
C1687  C     0.81431   0.02395   0.79577   0.00000  Uiso   1.00
C1688  C     0.85204   0.30977   0.87124   0.00000  Uiso   1.00
C1689  C     0.71427   0.11954   0.73022   0.00000  Uiso   1.00
C1690  C     0.67492   0.11891   0.69781   0.00000  Uiso   1.00
C1691  C     0.68219   0.14160   0.98083   0.00000  Uiso   1.00
C1692  C     0.91342   0.16673   0.83259   0.00000  Uiso   1.00
C1693  C     0.95134   0.26769   0.79246   0.00000  Uiso   1.00
C1694  C     0.98961   0.29043   0.77033   0.00000  Uiso   1.00
C1695  C     0.97843   0.31949   0.72525   0.00000  Uiso   1.00
C1696  C     0.95802   0.06474   0.85785   0.00000  Uiso   1.00
C1697  C     0.99930   0.05121   0.88225   0.00000  Uiso   1.00
C1698  C     0.99163   0.02453   0.93005   0.00000  Uiso   1.00
C1699  C     0.71468   0.24647   0.90788   0.00000  Uiso   1.00
C1700  C     0.74648   0.28246   0.92018   0.00000  Uiso   1.00
C1701  C     0.75325   0.28670   0.97624   0.00000  Uiso   1.00
C1702  C     0.83316   0.16670   0.73963   0.00000  Uiso   1.00
C1703  C     0.83318   0.16665   0.92703   0.00000  Uiso   1.00
C1704  C     0.83301   0.16672   0.68847   0.00000  Uiso   1.00
C1705  C     0.83302   0.16665   0.97819   0.00000  Uiso   1.00
C1706  C     0.68833   0.13207   0.80801   0.00000  Uiso   1.00
C1707  C     0.97908   0.20858   0.83636   0.00000  Uiso   1.00
C1708  C     0.98017   0.12809   0.81798   0.00000  Uiso   1.00
H1709  H     0.73802   0.09930   0.71088   0.00000  Uiso   1.00
H1710  H     0.67116   0.31176   0.79901   0.00000  Uiso   1.00
H1711  H     0.67887   0.26453   0.75842   0.00000  Uiso   1.00
H1712  H     0.67340   0.00262   0.71103   0.00000  Uiso   1.00
H1713  H     0.95605   0.01267   0.73596   0.00000  Uiso   1.00
H1714  H     0.96486   0.29857   0.69502   0.00000  Uiso   1.00
H1715  H     0.93968   0.03384   0.85134   0.00000  Uiso   1.00
H1716  H     0.94084   0.08591   0.88487   0.00000  Uiso   1.00
H1717  H     0.68483   0.03113   0.85612   0.00000  Uiso   1.00
H1718  H     0.68386   0.08157   0.89234   0.00000  Uiso   1.00
H1719  H     0.96956   0.04251   0.95453   0.00000  Uiso   1.00
H1720  H     0.72712   0.15421   0.73227   0.00000  Uiso   1.00
H1721  H     0.68761   0.02055   0.95116   0.00000  Uiso   1.00
H1722  H     0.97882   0.32432   0.92087   0.00000  Uiso   1.00
H1723  H     0.72714   0.21370   0.92153   0.00000  Uiso   1.00
H1724  H     0.68516   0.25393   0.92729   0.00000  Uiso   1.00
H1725  H     0.77616   0.27338   0.90262   0.00000  Uiso   1.00
H1726  H     0.73653   0.31520   0.90441   0.00000  Uiso   1.00
H1727  H     0.72364   0.29317   0.99555   0.00000  Uiso   1.00
H1728  H     0.77449   0.31518   0.98354   0.00000  Uiso   1.00
H1729  H     0.76712   0.25528   0.99123   0.00000  Uiso   1.00
H1730  H     0.89604   0.03594   0.92314   0.00000  Uiso   1.00
H1731  H     0.99849   0.08368   0.69176   0.00000  Uiso   1.00
H1732  H     0.84762   0.03991   0.94471   0.00000  Uiso   1.00
H1733  H     0.80749   0.29255   0.72390   0.00000  Uiso   1.00
H1734  H     0.76227   0.29424   0.75638   0.00000  Uiso   1.00
H1735  H     0.76296   0.03779   0.75587   0.00000  Uiso   1.00
H1736  H     0.80731   0.03937   0.72267   0.00000  Uiso   1.00
H1737  H     0.89056   0.26154   0.89890   0.00000  Uiso   1.00
H1738  H     0.85003   0.27617   0.93700   0.00000  Uiso   1.00
H1739  H     0.98278   0.13698   0.71675   0.00000  Uiso   1.00
H1740  H     0.68842   0.17785   0.98663   0.00000  Uiso   1.00
H1741  H     0.98757   0.13821   0.95685   0.00000  Uiso   1.00
H1742  H     0.70887   0.12607   0.96150   0.00000  Uiso   1.00
H1743  H     0.92655   0.29320   0.79661   0.00000  Uiso   1.00
H1744  H     0.93926   0.24211   0.76574   0.00000  Uiso   1.00
N1745  N     0.83333   0.28573   0.83333   0.00000  Uiso   1.00
N1746  N     0.83333   0.04760   0.83333   0.00000  Uiso   1.00
N1747  N     0.86652   0.04778   0.91440   0.00000  Uiso   1.00
N1748  N     0.79330   0.28463   0.75769   0.00000  Uiso   1.00
N1749  N     0.79378   0.04802   0.75668   0.00000  Uiso   1.00
N1750  N     0.87230   0.28769   0.91208   0.00000  Uiso   1.00
O1751  O     0.77226   0.20487   0.83333   0.00000  Uiso   1.00
O1752  O     0.95936   0.24968   0.84077   0.00000  Uiso   1.00
O1753  O     0.96206   0.08658   0.81096   0.00000  Uiso   1.00
O1754  O     0.70814   0.24650   0.85575   0.00000  Uiso   1.00
O1755  O     0.89441   0.12846   0.83334   0.00000  Uiso   1.00
O1756  O     0.89441   0.20487   0.83334   0.00000  Uiso   1.00
O1757  O     0.77226   0.12846   0.83333   0.00000  Uiso   1.00
O1758  O     0.83334   0.20488   0.76178   0.00000  Uiso   1.00
O1759  O     0.83333   0.12845   0.90489   0.00000  Uiso   1.00
O1760  O     0.83333   0.20488   0.90489   0.00000  Uiso   1.00
O1761  O     0.83334   0.12845   0.76178   0.00000  Uiso   1.00
O1762  O     0.70743   0.10038   0.77820   0.00000  Uiso   1.00
Zn1763 Zn    0.83333   0.21771   0.83333   0.00000  Uiso   1.00
Zn1764 Zn    0.83333   0.11563   0.83333   0.00000  Uiso   1.00
C1765  C     0.08684   0.50036   0.83177   0.00000  Uiso   1.00
C1766  C     0.02131   0.54079   0.84247   0.00000  Uiso   1.00
C1767  C     0.29118   0.50080   0.82980   0.00000  Uiso   1.00
C1768  C     0.04283   0.50200   0.82803   0.00000  Uiso   1.00
C1769  C     0.18435   0.35743   0.87178   0.00000  Uiso   1.00
C1770  C     0.14724   0.64249   0.79618   0.00000  Uiso   1.00
C1771  C     0.14764   0.35729   0.79577   0.00000  Uiso   1.00
C1772  C     0.18537   0.64310   0.87124   0.00000  Uiso   1.00
C1773  C     0.04760   0.45287   0.73022   0.00000  Uiso   1.00
C1774  C     0.00825   0.45225   0.69781   0.00000  Uiso   1.00
C1775  C     0.01552   0.47494   0.98083   0.00000  Uiso   1.00
C1776  C     0.24675   0.50006   0.83259   0.00000  Uiso   1.00
C1777  C     0.28468   0.60103   0.79246   0.00000  Uiso   1.00
C1778  C     0.32295   0.62376   0.77033   0.00000  Uiso   1.00
C1779  C     0.31176   0.65282   0.72525   0.00000  Uiso   1.00
C1780  C     0.29135   0.39808   0.85785   0.00000  Uiso   1.00
C1781  C     0.33264   0.38454   0.88225   0.00000  Uiso   1.00
C1782  C     0.32496   0.35787   0.93005   0.00000  Uiso   1.00
C1783  C     0.04801   0.57980   0.90788   0.00000  Uiso   1.00
C1784  C     0.07981   0.61579   0.92018   0.00000  Uiso   1.00
C1785  C     0.08659   0.62004   0.97624   0.00000  Uiso   1.00
C1786  C     0.16650   0.50003   0.73963   0.00000  Uiso   1.00
C1787  C     0.16652   0.49998   0.92703   0.00000  Uiso   1.00
C1788  C     0.16634   0.50005   0.68847   0.00000  Uiso   1.00
C1789  C     0.16635   0.49998   0.97819   0.00000  Uiso   1.00
C1790  C     0.02166   0.46540   0.80801   0.00000  Uiso   1.00
C1791  C     0.31241   0.54192   0.83636   0.00000  Uiso   1.00
C1792  C     0.31350   0.46142   0.81798   0.00000  Uiso   1.00
H1793  H     0.07136   0.43263   0.71088   0.00000  Uiso   1.00
H1794  H     0.00449   0.64509   0.79901   0.00000  Uiso   1.00
H1795  H     0.01220   0.59786   0.75842   0.00000  Uiso   1.00
H1796  H     0.00673   0.33595   0.71103   0.00000  Uiso   1.00
H1797  H     0.28938   0.34601   0.73596   0.00000  Uiso   1.00
H1798  H     0.29819   0.63190   0.69502   0.00000  Uiso   1.00
H1799  H     0.27301   0.36717   0.85134   0.00000  Uiso   1.00
H1800  H     0.27417   0.41925   0.88487   0.00000  Uiso   1.00
H1801  H     0.01816   0.36446   0.85612   0.00000  Uiso   1.00
H1802  H     0.01720   0.41491   0.89234   0.00000  Uiso   1.00
H1803  H     0.30289   0.37584   0.95453   0.00000  Uiso   1.00
H1804  H     0.06046   0.48754   0.73227   0.00000  Uiso   1.00
H1805  H     0.02094   0.35389   0.95116   0.00000  Uiso   1.00
H1806  H     0.31215   0.65765   0.92087   0.00000  Uiso   1.00
H1807  H     0.06047   0.54704   0.92153   0.00000  Uiso   1.00
H1808  H     0.01850   0.58727   0.92729   0.00000  Uiso   1.00
H1809  H     0.10950   0.60672   0.90262   0.00000  Uiso   1.00
H1810  H     0.06986   0.64853   0.90441   0.00000  Uiso   1.00
H1811  H     0.05697   0.62650   0.99555   0.00000  Uiso   1.00
H1812  H     0.10783   0.64851   0.98354   0.00000  Uiso   1.00
H1813  H     0.10045   0.58862   0.99123   0.00000  Uiso   1.00
H1814  H     0.22937   0.36927   0.92314   0.00000  Uiso   1.00
H1815  H     0.33183   0.41701   0.69176   0.00000  Uiso   1.00
H1816  H     0.18095   0.37325   0.94471   0.00000  Uiso   1.00
H1817  H     0.14082   0.62589   0.72390   0.00000  Uiso   1.00
H1818  H     0.09560   0.62757   0.75638   0.00000  Uiso   1.00
H1819  H     0.09629   0.37113   0.75587   0.00000  Uiso   1.00
H1820  H     0.14065   0.37270   0.72267   0.00000  Uiso   1.00
H1821  H     0.22390   0.59488   0.89890   0.00000  Uiso   1.00
H1822  H     0.18336   0.60950   0.93700   0.00000  Uiso   1.00
H1823  H     0.31611   0.47031   0.71675   0.00000  Uiso   1.00
H1824  H     0.02175   0.51118   0.98663   0.00000  Uiso   1.00
H1825  H     0.32090   0.47155   0.95685   0.00000  Uiso   1.00
H1826  H     0.04220   0.45940   0.96150   0.00000  Uiso   1.00
H1827  H     0.25988   0.62654   0.79661   0.00000  Uiso   1.00
H1828  H     0.27260   0.57544   0.76574   0.00000  Uiso   1.00
N1829  N     0.16667   0.61907   0.83333   0.00000  Uiso   1.00
N1830  N     0.16667   0.38093   0.83333   0.00000  Uiso   1.00
N1831  N     0.19986   0.38111   0.91440   0.00000  Uiso   1.00
N1832  N     0.12664   0.61796   0.75769   0.00000  Uiso   1.00
N1833  N     0.12711   0.38136   0.75668   0.00000  Uiso   1.00
N1834  N     0.20563   0.62102   0.91208   0.00000  Uiso   1.00
O1835  O     0.10559   0.53821   0.83333   0.00000  Uiso   1.00
O1836  O     0.29269   0.58301   0.84077   0.00000  Uiso   1.00
O1837  O     0.29539   0.41991   0.81096   0.00000  Uiso   1.00
O1838  O     0.04147   0.57984   0.85575   0.00000  Uiso   1.00
O1839  O     0.22774   0.46179   0.83334   0.00000  Uiso   1.00
O1840  O     0.22774   0.53821   0.83334   0.00000  Uiso   1.00
O1841  O     0.10559   0.46179   0.83333   0.00000  Uiso   1.00
O1842  O     0.16667   0.53821   0.76178   0.00000  Uiso   1.00
O1843  O     0.16666   0.46179   0.90489   0.00000  Uiso   1.00
O1844  O     0.16666   0.53821   0.90489   0.00000  Uiso   1.00
O1845  O     0.16667   0.46179   0.76178   0.00000  Uiso   1.00
O1846  O     0.04076   0.43371   0.77820   0.00000  Uiso   1.00
Zn1847 Zn    0.16667   0.55104   0.83333   0.00000  Uiso   1.00
Zn1848 Zn    0.16667   0.44896   0.83333   0.00000  Uiso   1.00
C1849  C     0.42018   0.50036   0.83177   0.00000  Uiso   1.00
C1850  C     0.35464   0.54079   0.84247   0.00000  Uiso   1.00
C1851  C     0.62451   0.50080   0.82980   0.00000  Uiso   1.00
C1852  C     0.37617   0.50200   0.82803   0.00000  Uiso   1.00
C1853  C     0.51769   0.35743   0.87178   0.00000  Uiso   1.00
C1854  C     0.48057   0.64249   0.79618   0.00000  Uiso   1.00
C1855  C     0.48097   0.35729   0.79577   0.00000  Uiso   1.00
C1856  C     0.51870   0.64310   0.87124   0.00000  Uiso   1.00
C1857  C     0.38093   0.45287   0.73022   0.00000  Uiso   1.00
C1858  C     0.34159   0.45225   0.69781   0.00000  Uiso   1.00
C1859  C     0.34886   0.47494   0.98083   0.00000  Uiso   1.00
C1860  C     0.58009   0.50006   0.83259   0.00000  Uiso   1.00
C1861  C     0.61801   0.60103   0.79246   0.00000  Uiso   1.00
C1862  C     0.65628   0.62376   0.77033   0.00000  Uiso   1.00
C1863  C     0.64509   0.65282   0.72525   0.00000  Uiso   1.00
C1864  C     0.62468   0.39808   0.85785   0.00000  Uiso   1.00
C1865  C     0.66597   0.38454   0.88225   0.00000  Uiso   1.00
C1866  C     0.65829   0.35787   0.93005   0.00000  Uiso   1.00
C1867  C     0.38134   0.57980   0.90788   0.00000  Uiso   1.00
C1868  C     0.41315   0.61579   0.92018   0.00000  Uiso   1.00
C1869  C     0.41992   0.62004   0.97624   0.00000  Uiso   1.00
C1870  C     0.49983   0.50003   0.73963   0.00000  Uiso   1.00
C1871  C     0.49985   0.49998   0.92703   0.00000  Uiso   1.00
C1872  C     0.49968   0.50005   0.68847   0.00000  Uiso   1.00
C1873  C     0.49969   0.49998   0.97819   0.00000  Uiso   1.00
C1874  C     0.35500   0.46540   0.80801   0.00000  Uiso   1.00
C1875  C     0.64575   0.54192   0.83636   0.00000  Uiso   1.00
C1876  C     0.64683   0.46142   0.81798   0.00000  Uiso   1.00
H1877  H     0.40469   0.43263   0.71088   0.00000  Uiso   1.00
H1878  H     0.33782   0.64509   0.79901   0.00000  Uiso   1.00
H1879  H     0.34554   0.59786   0.75842   0.00000  Uiso   1.00
H1880  H     0.34006   0.33595   0.71103   0.00000  Uiso   1.00
H1881  H     0.62272   0.34601   0.73596   0.00000  Uiso   1.00
H1882  H     0.63152   0.63190   0.69502   0.00000  Uiso   1.00
H1883  H     0.60634   0.36717   0.85134   0.00000  Uiso   1.00
H1884  H     0.60751   0.41925   0.88487   0.00000  Uiso   1.00
H1885  H     0.35150   0.36446   0.85612   0.00000  Uiso   1.00
H1886  H     0.35053   0.41491   0.89234   0.00000  Uiso   1.00
H1887  H     0.63623   0.37584   0.95453   0.00000  Uiso   1.00
H1888  H     0.39379   0.48754   0.73227   0.00000  Uiso   1.00
H1889  H     0.35427   0.35389   0.95116   0.00000  Uiso   1.00
H1890  H     0.64548   0.65765   0.92087   0.00000  Uiso   1.00
H1891  H     0.39381   0.54704   0.92153   0.00000  Uiso   1.00
H1892  H     0.35183   0.58727   0.92729   0.00000  Uiso   1.00
H1893  H     0.44283   0.60672   0.90262   0.00000  Uiso   1.00
H1894  H     0.40319   0.64853   0.90441   0.00000  Uiso   1.00
H1895  H     0.39030   0.62650   0.99555   0.00000  Uiso   1.00
H1896  H     0.44116   0.64851   0.98354   0.00000  Uiso   1.00
H1897  H     0.43378   0.58862   0.99123   0.00000  Uiso   1.00
H1898  H     0.56271   0.36927   0.92314   0.00000  Uiso   1.00
H1899  H     0.66516   0.41701   0.69176   0.00000  Uiso   1.00
H1900  H     0.51428   0.37325   0.94471   0.00000  Uiso   1.00
H1901  H     0.47415   0.62589   0.72390   0.00000  Uiso   1.00
H1902  H     0.42894   0.62757   0.75638   0.00000  Uiso   1.00
H1903  H     0.42962   0.37113   0.75587   0.00000  Uiso   1.00
H1904  H     0.47398   0.37270   0.72267   0.00000  Uiso   1.00
H1905  H     0.55723   0.59488   0.89890   0.00000  Uiso   1.00
H1906  H     0.51669   0.60950   0.93700   0.00000  Uiso   1.00
H1907  H     0.64945   0.47031   0.71675   0.00000  Uiso   1.00
H1908  H     0.35509   0.51118   0.98663   0.00000  Uiso   1.00
H1909  H     0.65423   0.47155   0.95685   0.00000  Uiso   1.00
H1910  H     0.37554   0.45940   0.96150   0.00000  Uiso   1.00
H1911  H     0.59321   0.62654   0.79661   0.00000  Uiso   1.00
H1912  H     0.60593   0.57544   0.76574   0.00000  Uiso   1.00
N1913  N     0.50000   0.61907   0.83333   0.00000  Uiso   1.00
N1914  N     0.50000   0.38093   0.83333   0.00000  Uiso   1.00
N1915  N     0.53319   0.38111   0.91440   0.00000  Uiso   1.00
N1916  N     0.45997   0.61796   0.75769   0.00000  Uiso   1.00
N1917  N     0.46044   0.38136   0.75668   0.00000  Uiso   1.00
N1918  N     0.53896   0.62102   0.91208   0.00000  Uiso   1.00
O1919  O     0.43892   0.53821   0.83333   0.00000  Uiso   1.00
O1920  O     0.62602   0.58301   0.84077   0.00000  Uiso   1.00
O1921  O     0.62872   0.41991   0.81096   0.00000  Uiso   1.00
O1922  O     0.37481   0.57984   0.85575   0.00000  Uiso   1.00
O1923  O     0.56108   0.46179   0.83334   0.00000  Uiso   1.00
O1924  O     0.56108   0.53821   0.83334   0.00000  Uiso   1.00
O1925  O     0.43892   0.46179   0.83333   0.00000  Uiso   1.00
O1926  O     0.50000   0.53821   0.76178   0.00000  Uiso   1.00
O1927  O     0.50000   0.46179   0.90489   0.00000  Uiso   1.00
O1928  O     0.50000   0.53821   0.90489   0.00000  Uiso   1.00
O1929  O     0.50000   0.46179   0.76178   0.00000  Uiso   1.00
O1930  O     0.37410   0.43371   0.77820   0.00000  Uiso   1.00
Zn1931 Zn    0.50000   0.55104   0.83333   0.00000  Uiso   1.00
Zn1932 Zn    0.50000   0.44896   0.83333   0.00000  Uiso   1.00
C1933  C     0.75351   0.50036   0.83177   0.00000  Uiso   1.00
C1934  C     0.68797   0.54079   0.84247   0.00000  Uiso   1.00
C1935  C     0.95784   0.50080   0.82980   0.00000  Uiso   1.00
C1936  C     0.70950   0.50200   0.82803   0.00000  Uiso   1.00
C1937  C     0.85102   0.35743   0.87178   0.00000  Uiso   1.00
C1938  C     0.81391   0.64249   0.79618   0.00000  Uiso   1.00
C1939  C     0.81431   0.35729   0.79577   0.00000  Uiso   1.00
C1940  C     0.85204   0.64310   0.87124   0.00000  Uiso   1.00
C1941  C     0.71427   0.45287   0.73022   0.00000  Uiso   1.00
C1942  C     0.67492   0.45225   0.69781   0.00000  Uiso   1.00
C1943  C     0.68219   0.47494   0.98083   0.00000  Uiso   1.00
C1944  C     0.91342   0.50006   0.83259   0.00000  Uiso   1.00
C1945  C     0.95134   0.60103   0.79246   0.00000  Uiso   1.00
C1946  C     0.98961   0.62376   0.77033   0.00000  Uiso   1.00
C1947  C     0.97843   0.65282   0.72525   0.00000  Uiso   1.00
C1948  C     0.95802   0.39808   0.85785   0.00000  Uiso   1.00
C1949  C     0.99930   0.38454   0.88225   0.00000  Uiso   1.00
C1950  C     0.99163   0.35787   0.93005   0.00000  Uiso   1.00
C1951  C     0.71468   0.57980   0.90788   0.00000  Uiso   1.00
C1952  C     0.74648   0.61579   0.92018   0.00000  Uiso   1.00
C1953  C     0.75325   0.62004   0.97624   0.00000  Uiso   1.00
C1954  C     0.83316   0.50003   0.73963   0.00000  Uiso   1.00
C1955  C     0.83318   0.49998   0.92703   0.00000  Uiso   1.00
C1956  C     0.83301   0.50005   0.68847   0.00000  Uiso   1.00
C1957  C     0.83302   0.49998   0.97819   0.00000  Uiso   1.00
C1958  C     0.68833   0.46540   0.80801   0.00000  Uiso   1.00
C1959  C     0.97908   0.54192   0.83636   0.00000  Uiso   1.00
C1960  C     0.98017   0.46142   0.81798   0.00000  Uiso   1.00
H1961  H     0.73802   0.43263   0.71088   0.00000  Uiso   1.00
H1962  H     0.67116   0.64509   0.79901   0.00000  Uiso   1.00
H1963  H     0.67887   0.59786   0.75842   0.00000  Uiso   1.00
H1964  H     0.67340   0.33595   0.71103   0.00000  Uiso   1.00
H1965  H     0.95605   0.34601   0.73596   0.00000  Uiso   1.00
H1966  H     0.96486   0.63190   0.69502   0.00000  Uiso   1.00
H1967  H     0.93968   0.36717   0.85134   0.00000  Uiso   1.00
H1968  H     0.94084   0.41925   0.88487   0.00000  Uiso   1.00
H1969  H     0.68483   0.36446   0.85612   0.00000  Uiso   1.00
H1970  H     0.68386   0.41491   0.89234   0.00000  Uiso   1.00
H1971  H     0.96956   0.37584   0.95453   0.00000  Uiso   1.00
H1972  H     0.72712   0.48754   0.73227   0.00000  Uiso   1.00
H1973  H     0.68761   0.35389   0.95116   0.00000  Uiso   1.00
H1974  H     0.97882   0.65765   0.92087   0.00000  Uiso   1.00
H1975  H     0.72714   0.54704   0.92153   0.00000  Uiso   1.00
H1976  H     0.68516   0.58727   0.92729   0.00000  Uiso   1.00
H1977  H     0.77616   0.60672   0.90262   0.00000  Uiso   1.00
H1978  H     0.73653   0.64853   0.90441   0.00000  Uiso   1.00
H1979  H     0.72364   0.62650   0.99555   0.00000  Uiso   1.00
H1980  H     0.77449   0.64851   0.98354   0.00000  Uiso   1.00
H1981  H     0.76712   0.58862   0.99123   0.00000  Uiso   1.00
H1982  H     0.89604   0.36927   0.92314   0.00000  Uiso   1.00
H1983  H     0.99849   0.41701   0.69176   0.00000  Uiso   1.00
H1984  H     0.84762   0.37325   0.94471   0.00000  Uiso   1.00
H1985  H     0.80749   0.62589   0.72390   0.00000  Uiso   1.00
H1986  H     0.76227   0.62757   0.75638   0.00000  Uiso   1.00
H1987  H     0.76296   0.37113   0.75587   0.00000  Uiso   1.00
H1988  H     0.80731   0.37270   0.72267   0.00000  Uiso   1.00
H1989  H     0.89056   0.59488   0.89890   0.00000  Uiso   1.00
H1990  H     0.85003   0.60950   0.93700   0.00000  Uiso   1.00
H1991  H     0.98278   0.47031   0.71675   0.00000  Uiso   1.00
H1992  H     0.68842   0.51118   0.98663   0.00000  Uiso   1.00
H1993  H     0.98757   0.47155   0.95685   0.00000  Uiso   1.00
H1994  H     0.70887   0.45940   0.96150   0.00000  Uiso   1.00
H1995  H     0.92655   0.62654   0.79661   0.00000  Uiso   1.00
H1996  H     0.93926   0.57544   0.76574   0.00000  Uiso   1.00
N1997  N     0.83333   0.61907   0.83333   0.00000  Uiso   1.00
N1998  N     0.83333   0.38093   0.83333   0.00000  Uiso   1.00
N1999  N     0.86652   0.38111   0.91440   0.00000  Uiso   1.00
N2000  N     0.79330   0.61796   0.75769   0.00000  Uiso   1.00
N2001  N     0.79378   0.38136   0.75668   0.00000  Uiso   1.00
N2002  N     0.87230   0.62102   0.91208   0.00000  Uiso   1.00
O2003  O     0.77226   0.53821   0.83333   0.00000  Uiso   1.00
O2004  O     0.95936   0.58301   0.84077   0.00000  Uiso   1.00
O2005  O     0.96206   0.41991   0.81096   0.00000  Uiso   1.00
O2006  O     0.70814   0.57984   0.85575   0.00000  Uiso   1.00
O2007  O     0.89441   0.46179   0.83334   0.00000  Uiso   1.00
O2008  O     0.89441   0.53821   0.83334   0.00000  Uiso   1.00
O2009  O     0.77226   0.46179   0.83333   0.00000  Uiso   1.00
O2010  O     0.83334   0.53821   0.76178   0.00000  Uiso   1.00
O2011  O     0.83333   0.46179   0.90489   0.00000  Uiso   1.00
O2012  O     0.83333   0.53821   0.90489   0.00000  Uiso   1.00
O2013  O     0.83334   0.46179   0.76178   0.00000  Uiso   1.00
O2014  O     0.70743   0.43371   0.77820   0.00000  Uiso   1.00
Zn2015 Zn    0.83333   0.55104   0.83333   0.00000  Uiso   1.00
Zn2016 Zn    0.83333   0.44896   0.83333   0.00000  Uiso   1.00
C2017  C     0.08684   0.83369   0.83177   0.00000  Uiso   1.00
C2018  C     0.02131   0.87413   0.84247   0.00000  Uiso   1.00
C2019  C     0.29118   0.83414   0.82980   0.00000  Uiso   1.00
C2020  C     0.04283   0.83534   0.82803   0.00000  Uiso   1.00
C2021  C     0.18435   0.69076   0.87178   0.00000  Uiso   1.00
C2022  C     0.14724   0.97582   0.79618   0.00000  Uiso   1.00
C2023  C     0.14764   0.69062   0.79577   0.00000  Uiso   1.00
C2024  C     0.18537   0.97643   0.87124   0.00000  Uiso   1.00
C2025  C     0.04760   0.78620   0.73022   0.00000  Uiso   1.00
C2026  C     0.00825   0.78558   0.69781   0.00000  Uiso   1.00
C2027  C     0.01552   0.80827   0.98083   0.00000  Uiso   1.00
C2028  C     0.24675   0.83339   0.83259   0.00000  Uiso   1.00
C2029  C     0.28468   0.93436   0.79246   0.00000  Uiso   1.00
C2030  C     0.32295   0.95709   0.77033   0.00000  Uiso   1.00
C2031  C     0.31176   0.98615   0.72525   0.00000  Uiso   1.00
C2032  C     0.29135   0.73141   0.85785   0.00000  Uiso   1.00
C2033  C     0.33264   0.71787   0.88225   0.00000  Uiso   1.00
C2034  C     0.32496   0.69120   0.93005   0.00000  Uiso   1.00
C2035  C     0.04801   0.91314   0.90788   0.00000  Uiso   1.00
C2036  C     0.07981   0.94913   0.92018   0.00000  Uiso   1.00
C2037  C     0.08659   0.95337   0.97624   0.00000  Uiso   1.00
C2038  C     0.16650   0.83336   0.73963   0.00000  Uiso   1.00
C2039  C     0.16652   0.83331   0.92703   0.00000  Uiso   1.00
C2040  C     0.16634   0.83339   0.68847   0.00000  Uiso   1.00
C2041  C     0.16635   0.83331   0.97819   0.00000  Uiso   1.00
C2042  C     0.02166   0.79873   0.80801   0.00000  Uiso   1.00
C2043  C     0.31241   0.87525   0.83636   0.00000  Uiso   1.00
C2044  C     0.31350   0.79476   0.81798   0.00000  Uiso   1.00
H2045  H     0.07136   0.76596   0.71088   0.00000  Uiso   1.00
H2046  H     0.00449   0.97842   0.79901   0.00000  Uiso   1.00
H2047  H     0.01220   0.93120   0.75842   0.00000  Uiso   1.00
H2048  H     0.00673   0.66928   0.71103   0.00000  Uiso   1.00
H2049  H     0.28938   0.67934   0.73596   0.00000  Uiso   1.00
H2050  H     0.29819   0.96523   0.69502   0.00000  Uiso   1.00
H2051  H     0.27301   0.70050   0.85134   0.00000  Uiso   1.00
H2052  H     0.27417   0.75258   0.88487   0.00000  Uiso   1.00
H2053  H     0.01816   0.69780   0.85612   0.00000  Uiso   1.00
H2054  H     0.01720   0.74824   0.89234   0.00000  Uiso   1.00
H2055  H     0.30289   0.70918   0.95453   0.00000  Uiso   1.00
H2056  H     0.06046   0.82087   0.73227   0.00000  Uiso   1.00
H2057  H     0.02094   0.68722   0.95116   0.00000  Uiso   1.00
H2058  H     0.31215   0.99098   0.92087   0.00000  Uiso   1.00
H2059  H     0.06047   0.88037   0.92153   0.00000  Uiso   1.00
H2060  H     0.01850   0.92060   0.92729   0.00000  Uiso   1.00
H2061  H     0.10950   0.94005   0.90262   0.00000  Uiso   1.00
H2062  H     0.06986   0.98186   0.90441   0.00000  Uiso   1.00
H2063  H     0.05697   0.95984   0.99555   0.00000  Uiso   1.00
H2064  H     0.10783   0.98185   0.98354   0.00000  Uiso   1.00
H2065  H     0.10045   0.92195   0.99123   0.00000  Uiso   1.00
H2066  H     0.22937   0.70261   0.92314   0.00000  Uiso   1.00
H2067  H     0.33183   0.75034   0.69176   0.00000  Uiso   1.00
H2068  H     0.18095   0.70658   0.94471   0.00000  Uiso   1.00
H2069  H     0.14082   0.95922   0.72390   0.00000  Uiso   1.00
H2070  H     0.09560   0.96091   0.75638   0.00000  Uiso   1.00
H2071  H     0.09629   0.70446   0.75587   0.00000  Uiso   1.00
H2072  H     0.14065   0.70604   0.72267   0.00000  Uiso   1.00
H2073  H     0.22390   0.92821   0.89890   0.00000  Uiso   1.00
H2074  H     0.18336   0.94283   0.93700   0.00000  Uiso   1.00
H2075  H     0.31611   0.80365   0.71675   0.00000  Uiso   1.00
H2076  H     0.02175   0.84451   0.98663   0.00000  Uiso   1.00
H2077  H     0.32090   0.80488   0.95685   0.00000  Uiso   1.00
H2078  H     0.04220   0.79273   0.96150   0.00000  Uiso   1.00
H2079  H     0.25988   0.95987   0.79661   0.00000  Uiso   1.00
H2080  H     0.27260   0.90878   0.76574   0.00000  Uiso   1.00
N2081  N     0.16667   0.95240   0.83333   0.00000  Uiso   1.00
N2082  N     0.16667   0.71427   0.83333   0.00000  Uiso   1.00
N2083  N     0.19986   0.71445   0.91440   0.00000  Uiso   1.00
N2084  N     0.12664   0.95130   0.75769   0.00000  Uiso   1.00
N2085  N     0.12711   0.71469   0.75668   0.00000  Uiso   1.00
N2086  N     0.20563   0.95435   0.91208   0.00000  Uiso   1.00
O2087  O     0.10559   0.87154   0.83333   0.00000  Uiso   1.00
O2088  O     0.29269   0.91635   0.84077   0.00000  Uiso   1.00
O2089  O     0.29539   0.75325   0.81096   0.00000  Uiso   1.00
O2090  O     0.04147   0.91317   0.85575   0.00000  Uiso   1.00
O2091  O     0.22774   0.79513   0.83334   0.00000  Uiso   1.00
O2092  O     0.22774   0.87154   0.83334   0.00000  Uiso   1.00
O2093  O     0.10559   0.79513   0.83333   0.00000  Uiso   1.00
O2094  O     0.16667   0.87155   0.76178   0.00000  Uiso   1.00
O2095  O     0.16666   0.79512   0.90489   0.00000  Uiso   1.00
O2096  O     0.16666   0.87155   0.90489   0.00000  Uiso   1.00
O2097  O     0.16667   0.79512   0.76178   0.00000  Uiso   1.00
O2098  O     0.04076   0.76704   0.77820   0.00000  Uiso   1.00
Zn2099 Zn    0.16667   0.88437   0.83333   0.00000  Uiso   1.00
Zn2100 Zn    0.16667   0.78229   0.83333   0.00000  Uiso   1.00
C2101  C     0.42018   0.83369   0.83177   0.00000  Uiso   1.00
C2102  C     0.35464   0.87413   0.84247   0.00000  Uiso   1.00
C2103  C     0.62451   0.83414   0.82980   0.00000  Uiso   1.00
C2104  C     0.37617   0.83534   0.82803   0.00000  Uiso   1.00
C2105  C     0.51769   0.69076   0.87178   0.00000  Uiso   1.00
C2106  C     0.48057   0.97582   0.79618   0.00000  Uiso   1.00
C2107  C     0.48097   0.69062   0.79577   0.00000  Uiso   1.00
C2108  C     0.51870   0.97643   0.87124   0.00000  Uiso   1.00
C2109  C     0.38093   0.78620   0.73022   0.00000  Uiso   1.00
C2110  C     0.34159   0.78558   0.69781   0.00000  Uiso   1.00
C2111  C     0.34886   0.80827   0.98083   0.00000  Uiso   1.00
C2112  C     0.58009   0.83339   0.83259   0.00000  Uiso   1.00
C2113  C     0.61801   0.93436   0.79246   0.00000  Uiso   1.00
C2114  C     0.65628   0.95709   0.77033   0.00000  Uiso   1.00
C2115  C     0.64509   0.98615   0.72525   0.00000  Uiso   1.00
C2116  C     0.62468   0.73141   0.85785   0.00000  Uiso   1.00
C2117  C     0.66597   0.71787   0.88225   0.00000  Uiso   1.00
C2118  C     0.65829   0.69120   0.93005   0.00000  Uiso   1.00
C2119  C     0.38134   0.91314   0.90788   0.00000  Uiso   1.00
C2120  C     0.41315   0.94913   0.92018   0.00000  Uiso   1.00
C2121  C     0.41992   0.95337   0.97624   0.00000  Uiso   1.00
C2122  C     0.49983   0.83336   0.73963   0.00000  Uiso   1.00
C2123  C     0.49985   0.83331   0.92703   0.00000  Uiso   1.00
C2124  C     0.49968   0.83339   0.68847   0.00000  Uiso   1.00
C2125  C     0.49969   0.83331   0.97819   0.00000  Uiso   1.00
C2126  C     0.35500   0.79873   0.80801   0.00000  Uiso   1.00
C2127  C     0.64575   0.87525   0.83636   0.00000  Uiso   1.00
C2128  C     0.64683   0.79476   0.81798   0.00000  Uiso   1.00
H2129  H     0.40469   0.76596   0.71088   0.00000  Uiso   1.00
H2130  H     0.33782   0.97842   0.79901   0.00000  Uiso   1.00
H2131  H     0.34554   0.93120   0.75842   0.00000  Uiso   1.00
H2132  H     0.34006   0.66928   0.71103   0.00000  Uiso   1.00
H2133  H     0.62272   0.67934   0.73596   0.00000  Uiso   1.00
H2134  H     0.63152   0.96523   0.69502   0.00000  Uiso   1.00
H2135  H     0.60634   0.70050   0.85134   0.00000  Uiso   1.00
H2136  H     0.60751   0.75258   0.88487   0.00000  Uiso   1.00
H2137  H     0.35150   0.69780   0.85612   0.00000  Uiso   1.00
H2138  H     0.35053   0.74824   0.89234   0.00000  Uiso   1.00
H2139  H     0.63623   0.70918   0.95453   0.00000  Uiso   1.00
H2140  H     0.39379   0.82087   0.73227   0.00000  Uiso   1.00
H2141  H     0.35427   0.68722   0.95116   0.00000  Uiso   1.00
H2142  H     0.64548   0.99098   0.92087   0.00000  Uiso   1.00
H2143  H     0.39381   0.88037   0.92153   0.00000  Uiso   1.00
H2144  H     0.35183   0.92060   0.92729   0.00000  Uiso   1.00
H2145  H     0.44283   0.94005   0.90262   0.00000  Uiso   1.00
H2146  H     0.40319   0.98186   0.90441   0.00000  Uiso   1.00
H2147  H     0.39030   0.95984   0.99555   0.00000  Uiso   1.00
H2148  H     0.44116   0.98185   0.98354   0.00000  Uiso   1.00
H2149  H     0.43378   0.92195   0.99123   0.00000  Uiso   1.00
H2150  H     0.56271   0.70261   0.92314   0.00000  Uiso   1.00
H2151  H     0.66516   0.75034   0.69176   0.00000  Uiso   1.00
H2152  H     0.51428   0.70658   0.94471   0.00000  Uiso   1.00
H2153  H     0.47415   0.95922   0.72390   0.00000  Uiso   1.00
H2154  H     0.42894   0.96091   0.75638   0.00000  Uiso   1.00
H2155  H     0.42962   0.70446   0.75587   0.00000  Uiso   1.00
H2156  H     0.47398   0.70604   0.72267   0.00000  Uiso   1.00
H2157  H     0.55723   0.92821   0.89890   0.00000  Uiso   1.00
H2158  H     0.51669   0.94283   0.93700   0.00000  Uiso   1.00
H2159  H     0.64945   0.80365   0.71675   0.00000  Uiso   1.00
H2160  H     0.35509   0.84451   0.98663   0.00000  Uiso   1.00
H2161  H     0.65423   0.80488   0.95685   0.00000  Uiso   1.00
H2162  H     0.37554   0.79273   0.96150   0.00000  Uiso   1.00
H2163  H     0.59321   0.95987   0.79661   0.00000  Uiso   1.00
H2164  H     0.60593   0.90878   0.76574   0.00000  Uiso   1.00
N2165  N     0.50000   0.95240   0.83333   0.00000  Uiso   1.00
N2166  N     0.50000   0.71427   0.83333   0.00000  Uiso   1.00
N2167  N     0.53319   0.71445   0.91440   0.00000  Uiso   1.00
N2168  N     0.45997   0.95130   0.75769   0.00000  Uiso   1.00
N2169  N     0.46044   0.71469   0.75668   0.00000  Uiso   1.00
N2170  N     0.53896   0.95435   0.91208   0.00000  Uiso   1.00
O2171  O     0.43892   0.87154   0.83333   0.00000  Uiso   1.00
O2172  O     0.62602   0.91635   0.84077   0.00000  Uiso   1.00
O2173  O     0.62872   0.75325   0.81096   0.00000  Uiso   1.00
O2174  O     0.37481   0.91317   0.85575   0.00000  Uiso   1.00
O2175  O     0.56108   0.79513   0.83334   0.00000  Uiso   1.00
O2176  O     0.56108   0.87154   0.83334   0.00000  Uiso   1.00
O2177  O     0.43892   0.79513   0.83333   0.00000  Uiso   1.00
O2178  O     0.50000   0.87155   0.76178   0.00000  Uiso   1.00
O2179  O     0.50000   0.79512   0.90489   0.00000  Uiso   1.00
O2180  O     0.50000   0.87155   0.90489   0.00000  Uiso   1.00
O2181  O     0.50000   0.79512   0.76178   0.00000  Uiso   1.00
O2182  O     0.37410   0.76704   0.77820   0.00000  Uiso   1.00
Zn2183 Zn    0.50000   0.88437   0.83333   0.00000  Uiso   1.00
Zn2184 Zn    0.50000   0.78229   0.83333   0.00000  Uiso   1.00
C2185  C     0.75351   0.83369   0.83177   0.00000  Uiso   1.00
C2186  C     0.68797   0.87413   0.84247   0.00000  Uiso   1.00
C2187  C     0.95784   0.83414   0.82980   0.00000  Uiso   1.00
C2188  C     0.70950   0.83534   0.82803   0.00000  Uiso   1.00
C2189  C     0.85102   0.69076   0.87178   0.00000  Uiso   1.00
C2190  C     0.81391   0.97582   0.79618   0.00000  Uiso   1.00
C2191  C     0.81431   0.69062   0.79577   0.00000  Uiso   1.00
C2192  C     0.85204   0.97643   0.87124   0.00000  Uiso   1.00
C2193  C     0.71427   0.78620   0.73022   0.00000  Uiso   1.00
C2194  C     0.67492   0.78558   0.69781   0.00000  Uiso   1.00
C2195  C     0.68219   0.80827   0.98083   0.00000  Uiso   1.00
C2196  C     0.91342   0.83339   0.83259   0.00000  Uiso   1.00
C2197  C     0.95134   0.93436   0.79246   0.00000  Uiso   1.00
C2198  C     0.98961   0.95709   0.77033   0.00000  Uiso   1.00
C2199  C     0.97843   0.98615   0.72525   0.00000  Uiso   1.00
C2200  C     0.95802   0.73141   0.85785   0.00000  Uiso   1.00
C2201  C     0.99930   0.71787   0.88225   0.00000  Uiso   1.00
C2202  C     0.99163   0.69120   0.93005   0.00000  Uiso   1.00
C2203  C     0.71468   0.91314   0.90788   0.00000  Uiso   1.00
C2204  C     0.74648   0.94913   0.92018   0.00000  Uiso   1.00
C2205  C     0.75325   0.95337   0.97624   0.00000  Uiso   1.00
C2206  C     0.83316   0.83336   0.73963   0.00000  Uiso   1.00
C2207  C     0.83318   0.83331   0.92703   0.00000  Uiso   1.00
C2208  C     0.83301   0.83339   0.68847   0.00000  Uiso   1.00
C2209  C     0.83302   0.83331   0.97819   0.00000  Uiso   1.00
C2210  C     0.68833   0.79873   0.80801   0.00000  Uiso   1.00
C2211  C     0.97908   0.87525   0.83636   0.00000  Uiso   1.00
C2212  C     0.98017   0.79476   0.81798   0.00000  Uiso   1.00
H2213  H     0.73802   0.76596   0.71088   0.00000  Uiso   1.00
H2214  H     0.67116   0.97842   0.79901   0.00000  Uiso   1.00
H2215  H     0.67887   0.93120   0.75842   0.00000  Uiso   1.00
H2216  H     0.67340   0.66928   0.71103   0.00000  Uiso   1.00
H2217  H     0.95605   0.67934   0.73596   0.00000  Uiso   1.00
H2218  H     0.96486   0.96523   0.69502   0.00000  Uiso   1.00
H2219  H     0.93968   0.70050   0.85134   0.00000  Uiso   1.00
H2220  H     0.94084   0.75258   0.88487   0.00000  Uiso   1.00
H2221  H     0.68483   0.69780   0.85612   0.00000  Uiso   1.00
H2222  H     0.68386   0.74824   0.89234   0.00000  Uiso   1.00
H2223  H     0.96956   0.70918   0.95453   0.00000  Uiso   1.00
H2224  H     0.72712   0.82087   0.73227   0.00000  Uiso   1.00
H2225  H     0.68761   0.68722   0.95116   0.00000  Uiso   1.00
H2226  H     0.97882   0.99098   0.92087   0.00000  Uiso   1.00
H2227  H     0.72714   0.88037   0.92153   0.00000  Uiso   1.00
H2228  H     0.68516   0.92060   0.92729   0.00000  Uiso   1.00
H2229  H     0.77616   0.94005   0.90262   0.00000  Uiso   1.00
H2230  H     0.73653   0.98186   0.90441   0.00000  Uiso   1.00
H2231  H     0.72364   0.95984   0.99555   0.00000  Uiso   1.00
H2232  H     0.77449   0.98185   0.98354   0.00000  Uiso   1.00
H2233  H     0.76712   0.92195   0.99123   0.00000  Uiso   1.00
H2234  H     0.89604   0.70261   0.92314   0.00000  Uiso   1.00
H2235  H     0.99849   0.75034   0.69176   0.00000  Uiso   1.00
H2236  H     0.84762   0.70658   0.94471   0.00000  Uiso   1.00
H2237  H     0.80749   0.95922   0.72390   0.00000  Uiso   1.00
H2238  H     0.76227   0.96091   0.75638   0.00000  Uiso   1.00
H2239  H     0.76296   0.70446   0.75587   0.00000  Uiso   1.00
H2240  H     0.80731   0.70604   0.72267   0.00000  Uiso   1.00
H2241  H     0.89056   0.92821   0.89890   0.00000  Uiso   1.00
H2242  H     0.85003   0.94283   0.93700   0.00000  Uiso   1.00
H2243  H     0.98278   0.80365   0.71675   0.00000  Uiso   1.00
H2244  H     0.68842   0.84451   0.98663   0.00000  Uiso   1.00
H2245  H     0.98757   0.80488   0.95685   0.00000  Uiso   1.00
H2246  H     0.70887   0.79273   0.96150   0.00000  Uiso   1.00
H2247  H     0.92655   0.95987   0.79661   0.00000  Uiso   1.00
H2248  H     0.93926   0.90878   0.76574   0.00000  Uiso   1.00
N2249  N     0.83333   0.95240   0.83333   0.00000  Uiso   1.00
N2250  N     0.83333   0.71427   0.83333   0.00000  Uiso   1.00
N2251  N     0.86652   0.71445   0.91440   0.00000  Uiso   1.00
N2252  N     0.79330   0.95130   0.75769   0.00000  Uiso   1.00
N2253  N     0.79378   0.71469   0.75668   0.00000  Uiso   1.00
N2254  N     0.87230   0.95435   0.91208   0.00000  Uiso   1.00
O2255  O     0.77226   0.87154   0.83333   0.00000  Uiso   1.00
O2256  O     0.95936   0.91635   0.84077   0.00000  Uiso   1.00
O2257  O     0.96206   0.75325   0.81096   0.00000  Uiso   1.00
O2258  O     0.70814   0.91317   0.85575   0.00000  Uiso   1.00
O2259  O     0.89441   0.79513   0.83334   0.00000  Uiso   1.00
O2260  O     0.89441   0.87154   0.83334   0.00000  Uiso   1.00
O2261  O     0.77226   0.79513   0.83333   0.00000  Uiso   1.00
O2262  O     0.83334   0.87155   0.76178   0.00000  Uiso   1.00
O2263  O     0.83333   0.79512   0.90489   0.00000  Uiso   1.00
O2264  O     0.83333   0.87155   0.90489   0.00000  Uiso   1.00
O2265  O     0.83334   0.79512   0.76178   0.00000  Uiso   1.00
O2266  O     0.70743   0.76704   0.77820   0.00000  Uiso   1.00
Zn2267 Zn    0.83333   0.88437   0.83333   0.00000  Uiso   1.00
Zn2268 Zn    0.83333   0.78229   0.83333   0.00000  Uiso   1.00
loop_
_geom_bond_atom_site_label_1
_geom_bond_atom_site_label_2
_geom_bond_distance
_geom_bond_site_symmetry_2
_ccdc_geom_bond_type
C1     O77     1.300   .     A
C1     O71     1.282   .     A
C1     C4      1.429   .     S
C2     O74     1.381   .     S
C2     C4      1.405   .     A
C2     C195    1.376   1_455 S
C3     C28     1.415   .     A
C3     C12     1.441   .     S
C3     C27     1.417   .     A
C4     C26     1.395   .     A
C5     N67     1.431   .     S
C5     N66     1.366   .     A
C5     C512    1.421   1_545 S
C6     N65     1.363   .     A
C6     N68     1.427   .     S
C6     C259    1.435   .     S
C7     N69     1.427   .     S
C7     N66     1.372   .     A
C7     C510    1.435   1_545 S
C8     N65     1.380   .     A
C8     N70     1.429   .     S
C8     C257    1.421   .     S
C9     C10     1.536   .     S
C9     H29     1.108   .     S
C9     O82     1.423   .     S
C9     H40     1.116   .     S
C10    C1523   1.525   1_554 S
C10    H219    1.109   1_455 S
C10    H227    1.110   1_455 S
C11    H62     1.111   .     S
C11    H60     1.110   .     S
C11    C766    1.525   .     S
C11    H229    1.111   1_455 S
C12    O76     1.292   .     A
C12    O75     1.297   .     A
C13    C14     1.535   .     S
C13    H63     1.111   .     S
C13    O72     1.421   .     S
C13    H64     1.116   .     S
C14    C15     1.525   .     S
C14    H114    1.106   .     S
C14    H115    1.111   .     S
C15    H34     1.111   .     S
C15    H368    1.109   .     S
C15    H285    1.111   .     S
C16    H35     1.110   .     S
C16    C17     1.537   .     S
C16    O73     1.419   .     S
C16    H36     1.112   .     S
C17    C18     1.526   .     S
C17    H121    1.107   .     S
C17    H122    1.108   .     S
C18    H39     1.110   .     S
C18    H125    1.107   .     S
C18    H546    1.110   1_545 S
C19    C20     1.523   .     S
C19    H43     1.116   .     S
C19    H44     1.113   .     S
C19    O74     1.409   .     S
C20    H45     1.106   .     S
C20    C21     1.520   .     S
C20    H46     1.109   .     S
C21    H49     1.111   .     S
C21    H48     1.110   .     S
C21    H47     1.109   .     S
C22    O81     1.284   .     A
C22    O78     1.284   .     A
C22    C24     1.369   .     S
C23    O80     1.283   .     A
C23    C25     1.369   .     S
C23    O79     1.284   .     A
C24    C1537   1.167   1_554 S
C25    C780    1.167   .     S
C26    O82     1.385   .     S
C26    C196    1.377   1_455 S
C27    O72     1.386   .     S
C27    C86     1.376   .     S
C28    O73     1.383   .     S
C28    C110    1.377   .     S
H30    C182    1.106   1_455 S
H31    C182    1.111   1_455 S
H32    C687    1.109   1_445 S
H33    C519    1.111   1_545 S
H37    C185    1.107   1_455 S
H38    C185    1.108   1_455 S
H41    C186    1.107   1_455 S
H42    C270    1.110   .     S
H50    N67     1.043   .     S
H51    C94     1.109   .     S
H52    N67     1.046   .     S
H53    N68     1.043   .     S
H54    N68     1.045   .     S
H55    N69     1.044   .     S
H56    N69     1.045   .     S
H57    N70     1.041   .     S
H58    N70     1.043   .     S
H59    C94     1.110   .     S
H61    C95     1.111   .     S
N65    Zn83    2.028   .     S
N66    Zn84    2.028   .     S
O71    Zn83    2.015   .     S
O75    Zn84    2.015   .     S
O76    Zn83    2.014   .     S
O77    Zn84    2.014   .     S
O78    Zn83    1.953   .     S
O79    Zn84    1.953   .     S
O80    Zn83    1.951   .     S
O81    Zn84    1.951   .     S
C85    O161    1.300   .     A
C85    O155    1.282   .     A
C85    C88     1.429   .     S
C86    O158    1.381   .     S
C86    C88     1.405   .     A
C87    C112    1.415   .     A
C87    C96     1.441   .     S
C87    C111    1.417   .     A
C88    C110    1.395   .     A
C89    N151    1.431   .     S
C89    N150    1.366   .     A
C89    C596    1.421   1_545 S
C90    N149    1.363   .     A
C90    N152    1.427   .     S
C90    C343    1.435   .     S
C91    N153    1.427   .     S
C91    N150    1.372   .     A
C91    C594    1.435   1_545 S
C92    N149    1.380   .     A
C92    N154    1.429   .     S
C92    C341    1.421   .     S
C93    C94     1.536   .     S
C93    H113    1.108   .     S
C93    O166    1.423   .     S
C93    H124    1.116   .     S
C94    C1607   1.525   1_554 S
C95    H146    1.111   .     S
C95    H144    1.110   .     S
C95    C850    1.525   .     S
C96    O160    1.292   .     A
C96    O159    1.297   .     A
C97    C98     1.535   .     S
C97    H147    1.111   .     S
C97    O156    1.421   .     S
C97    H148    1.116   .     S
C98    C99     1.525   .     S
C98    H198    1.106   .     S
C98    H199    1.111   .     S
C99    H118    1.111   .     S
C99    H452    1.109   .     S
C99    H369    1.111   .     S
C100   H119    1.110   .     S
C100   C101    1.537   .     S
C100   O157    1.419   .     S
C100   H120    1.112   .     S
C101   C102    1.526   .     S
C101   H205    1.107   .     S
C101   H206    1.108   .     S
C102   H123    1.110   .     S
C102   H209    1.107   .     S
C102   H630    1.110   1_545 S
C103   C104    1.523   .     S
C103   H127    1.116   .     S
C103   H128    1.113   .     S
C103   O158    1.409   .     S
C104   H129    1.106   .     S
C104   C105    1.520   .     S
C104   H130    1.109   .     S
C105   H133    1.111   .     S
C105   H132    1.110   .     S
C105   H131    1.109   .     S
C106   O165    1.284   .     A
C106   O162    1.284   .     A
C106   C108    1.369   .     S
C107   O164    1.283   .     A
C107   C109    1.369   .     S
C107   O163    1.284   .     A
C108   C1621   1.167   1_554 S
C109   C864    1.167   .     S
C110   O166    1.385   .     S
C111   O156    1.386   .     S
C111   C170    1.376   .     S
C112   O157    1.383   .     S
C112   C194    1.377   .     S
H116   C519    1.109   1_545 S
H117   C603    1.111   1_545 S
H126   C354    1.110   .     S
H134   N151    1.043   .     S
H135   C178    1.109   .     S
H136   N151    1.046   .     S
H137   N152    1.043   .     S
H138   N152    1.045   .     S
H139   N153    1.044   .     S
H140   N153    1.045   .     S
H141   N154    1.041   .     S
H142   N154    1.043   .     S
H143   C178    1.110   .     S
H145   C179    1.111   .     S
N149   Zn167   2.028   .     S
N150   Zn168   2.028   .     S
O155   Zn167   2.015   .     S
O159   Zn168   2.015   .     S
O160   Zn167   2.014   .     S
O161   Zn168   2.014   .     S
O162   Zn167   1.953   .     S
O163   Zn168   1.953   .     S
O164   Zn167   1.951   .     S
O165   Zn168   1.951   .     S
C169   O245    1.300   .     A
C169   O239    1.282   .     A
C169   C172    1.429   .     S
C170   O242    1.381   .     S
C170   C172    1.405   .     A
C171   C196    1.415   .     A
C171   C180    1.441   .     S
C171   C195    1.417   .     A
C172   C194    1.395   .     A
C173   N235    1.431   .     S
C173   N234    1.366   .     A
C173   C680    1.421   1_545 S
C174   N233    1.363   .     A
C174   N236    1.427   .     S
C174   C427    1.435   .     S
C175   N237    1.427   .     S
C175   N234    1.372   .     A
C175   C678    1.435   1_545 S
C176   N233    1.380   .     A
C176   N238    1.429   .     S
C176   C425    1.421   .     S
C177   C178    1.536   .     S
C177   H197    1.108   .     S
C177   O250    1.423   .     S
C177   H208    1.116   .     S
C178   C1691   1.525   1_554 S
C179   H230    1.111   .     S
C179   H228    1.110   .     S
C179   C934    1.525   .     S
C180   O244    1.292   .     A
C180   O243    1.297   .     A
C181   C182    1.535   .     S
C181   H231    1.111   .     S
C181   O240    1.421   .     S
C181   H232    1.116   .     S
C182   C183    1.525   .     S
C182   H30     1.106   1_655 S
C182   H31     1.111   1_655 S
C183   H202    1.111   .     S
C183   H284    1.109   1_655 S
C183   H453    1.111   .     S
C184   H203    1.110   .     S
C184   C185    1.537   .     S
C184   O241    1.419   .     S
C184   H204    1.112   .     S
C185   C186    1.526   .     S
C185   H37     1.107   1_655 S
C185   H38     1.108   1_655 S
C186   H207    1.110   .     S
C186   H41     1.107   1_655 S
C186   H714    1.110   1_545 S
C187   C188    1.523   .     S
C187   H211    1.116   .     S
C187   H212    1.113   .     S
C187   O242    1.409   .     S
C188   H213    1.106   .     S
C188   C189    1.520   .     S
C188   H214    1.109   .     S
C189   H217    1.111   .     S
C189   H216    1.110   .     S
C189   H215    1.109   .     S
C190   O249    1.284   .     A
C190   O246    1.284   .     A
C190   C192    1.369   .     S
C191   O248    1.283   .     A
C191   C193    1.369   .     S
C191   O247    1.284   .     A
C192   C1705   1.167   1_554 S
C193   C948    1.167   .     S
C194   O250    1.385   .     S
C195   O240    1.386   .     S
C195   C2      1.376   1_655 S
C196   O241    1.383   .     S
C196   C26     1.377   1_655 S
H200   C603    1.109   1_545 S
H201   C687    1.111   1_545 S
H210   C438    1.110   .     S
H218   N235    1.043   .     S
H219   C10     1.109   1_655 S
H220   N235    1.046   .     S
H221   N236    1.043   .     S
H222   N236    1.045   .     S
H223   N237    1.044   .     S
H224   N237    1.045   .     S
H225   N238    1.041   .     S
H226   N238    1.043   .     S
H227   C10     1.110   1_655 S
H229   C11     1.111   1_655 S
N233   Zn251   2.028   .     S
N234   Zn252   2.028   .     S
O239   Zn251   2.015   .     S
O243   Zn252   2.015   .     S
O244   Zn251   2.014   .     S
O245   Zn252   2.014   .     S
O246   Zn251   1.953   .     S
O247   Zn252   1.953   .     S
O248   Zn251   1.951   .     S
O249   Zn252   1.951   .     S
C253   O329    1.300   .     A
C253   O323    1.282   .     A
C253   C256    1.429   .     S
C254   O326    1.381   .     S
C254   C256    1.405   .     A
C254   C447    1.376   1_455 S
C255   C280    1.415   .     A
C255   C264    1.441   .     S
C255   C279    1.417   .     A
C256   C278    1.395   .     A
C257   N319    1.431   .     S
C257   N318    1.366   .     A
C258   N317    1.363   .     A
C258   N320    1.427   .     S
C258   C511    1.435   .     S
C259   N321    1.427   .     S
C259   N318    1.372   .     A
C260   N317    1.380   .     A
C260   N322    1.429   .     S
C260   C509    1.421   .     S
C261   C262    1.536   .     S
C261   H281    1.108   .     S
C261   O334    1.423   .     S
C261   H292    1.116   .     S
C262   C1775   1.525   1_554 S
C262   H471    1.109   1_455 S
C262   H479    1.110   1_455 S
C263   H314    1.111   .     S
C263   H312    1.110   .     S
C263   C1018   1.525   .     S
C263   H481    1.111   1_455 S
C264   O328    1.292   .     A
C264   O327    1.297   .     A
C265   C266    1.535   .     S
C265   H315    1.111   .     S
C265   O324    1.421   .     S
C265   H316    1.116   .     S
C266   C267    1.525   .     S
C266   H366    1.106   .     S
C266   H367    1.111   .     S
C267   H286    1.111   .     S
C267   H620    1.109   .     S
C267   H537    1.111   .     S
C268   H287    1.110   .     S
C268   C269    1.537   .     S
C268   O325    1.419   .     S
C268   H288    1.112   .     S
C269   C270    1.526   .     S
C269   H373    1.107   .     S
C269   H374    1.108   .     S
C270   H291    1.110   .     S
C270   H377    1.107   .     S
C271   C272    1.523   .     S
C271   H295    1.116   .     S
C271   H296    1.113   .     S
C271   O326    1.409   .     S
C272   H297    1.106   .     S
C272   C273    1.520   .     S
C272   H298    1.109   .     S
C273   H301    1.111   .     S
C273   H300    1.110   .     S
C273   H299    1.109   .     S
C274   O333    1.284   .     A
C274   O330    1.284   .     A
C274   C276    1.369   .     S
C275   O332    1.283   .     A
C275   C277    1.369   .     S
C275   O331    1.284   .     A
C276   C1789   1.167   1_554 S
C277   C1032   1.167   .     S
C278   O334    1.385   .     S
C278   C448    1.377   1_455 S
C279   O324    1.386   .     S
C279   C338    1.376   .     S
C280   O325    1.383   .     S
C280   C362    1.377   .     S
H282   C434    1.106   1_455 S
H283   C434    1.111   1_455 S
H284   C183    1.109   1_455 S
H289   C437    1.107   1_455 S
H290   C437    1.108   1_455 S
H293   C438    1.107   1_455 S
H294   C522    1.110   .     S
H302   N319    1.043   .     S
H303   C346    1.109   .     S
H304   N319    1.046   .     S
H305   N320    1.043   .     S
H306   N320    1.045   .     S
H307   N321    1.044   .     S
H308   N321    1.045   .     S
H309   N322    1.041   .     S
H310   N322    1.043   .     S
H311   C346    1.110   .     S
H313   C347    1.111   .     S
N317   Zn335   2.028   .     S
N318   Zn336   2.028   .     S
O323   Zn335   2.015   .     S
O327   Zn336   2.015   .     S
O328   Zn335   2.014   .     S
O329   Zn336   2.014   .     S
O330   Zn335   1.953   .     S
O331   Zn336   1.953   .     S
O332   Zn335   1.951   .     S
O333   Zn336   1.951   .     S
C337   O413    1.300   .     A
C337   O407    1.282   .     A
C337   C340    1.429   .     S
C338   O410    1.381   .     S
C338   C340    1.405   .     A
C339   C364    1.415   .     A
C339   C348    1.441   .     S
C339   C363    1.417   .     A
C340   C362    1.395   .     A
C341   N403    1.431   .     S
C341   N402    1.366   .     A
C342   N401    1.363   .     A
C342   N404    1.427   .     S
C342   C595    1.435   .     S
C343   N405    1.427   .     S
C343   N402    1.372   .     A
C344   N401    1.380   .     A
C344   N406    1.429   .     S
C344   C593    1.421   .     S
C345   C346    1.536   .     S
C345   H365    1.108   .     S
C345   O418    1.423   .     S
C345   H376    1.116   .     S
C346   C1859   1.525   1_554 S
C347   H398    1.111   .     S
C347   H396    1.110   .     S
C347   C1102   1.525   .     S
C348   O412    1.292   .     A
C348   O411    1.297   .     A
C349   C350    1.535   .     S
C349   H399    1.111   .     S
C349   O408    1.421   .     S
C349   H400    1.116   .     S
C350   C351    1.525   .     S
C350   H450    1.106   .     S
C350   H451    1.111   .     S
C351   H370    1.111   .     S
C351   H704    1.109   .     S
C351   H621    1.111   .     S
C352   H371    1.110   .     S
C352   C353    1.537   .     S
C352   O409    1.419   .     S
C352   H372    1.112   .     S
C353   C354    1.526   .     S
C353   H457    1.107   .     S
C353   H458    1.108   .     S
C354   H375    1.110   .     S
C354   H461    1.107   .     S
C355   C356    1.523   .     S
C355   H379    1.116   .     S
C355   H380    1.113   .     S
C355   O410    1.409   .     S
C356   H381    1.106   .     S
C356   C357    1.520   .     S
C356   H382    1.109   .     S
C357   H385    1.111   .     S
C357   H384    1.110   .     S
C357   H383    1.109   .     S
C358   O417    1.284   .     A
C358   O414    1.284   .     A
C358   C360    1.369   .     S
C359   O416    1.283   .     A
C359   C361    1.369   .     S
C359   O415    1.284   .     A
C360   C1873   1.167   1_554 S
C361   C1116   1.167   .     S
C362   O418    1.385   .     S
C363   O408    1.386   .     S
C363   C422    1.376   .     S
C364   O409    1.383   .     S
C364   C446    1.377   .     S
H378   C606    1.110   .     S
H386   N403    1.043   .     S
H387   C430    1.109   .     S
H388   N403    1.046   .     S
H389   N404    1.043   .     S
H390   N404    1.045   .     S
H391   N405    1.044   .     S
H392   N405    1.045   .     S
H393   N406    1.041   .     S
H394   N406    1.043   .     S
H395   C430    1.110   .     S
H397   C431    1.111   .     S
N401   Zn419   2.028   .     S
N402   Zn420   2.028   .     S
O407   Zn419   2.015   .     S
O411   Zn420   2.015   .     S
O412   Zn419   2.014   .     S
O413   Zn420   2.014   .     S
O414   Zn419   1.953   .     S
O415   Zn420   1.953   .     S
O416   Zn419   1.951   .     S
O417   Zn420   1.951   .     S
C421   O497    1.300   .     A
C421   O491    1.282   .     A
C421   C424    1.429   .     S
C422   O494    1.381   .     S
C422   C424    1.405   .     A
C423   C448    1.415   .     A
C423   C432    1.441   .     S
C423   C447    1.417   .     A
C424   C446    1.395   .     A
C425   N487    1.431   .     S
C425   N486    1.366   .     A
C426   N485    1.363   .     A
C426   N488    1.427   .     S
C426   C679    1.435   .     S
C427   N489    1.427   .     S
C427   N486    1.372   .     A
C428   N485    1.380   .     A
C428   N490    1.429   .     S
C428   C677    1.421   .     S
C429   C430    1.536   .     S
C429   H449    1.108   .     S
C429   O502    1.423   .     S
C429   H460    1.116   .     S
C430   C1943   1.525   1_554 S
C431   H482    1.111   .     S
C431   H480    1.110   .     S
C431   C1186   1.525   .     S
C432   O496    1.292   .     A
C432   O495    1.297   .     A
C433   C434    1.535   .     S
C433   H483    1.111   .     S
C433   O492    1.421   .     S
C433   H484    1.116   .     S
C434   C435    1.525   .     S
C434   H282    1.106   1_655 S
C434   H283    1.111   1_655 S
C435   H454    1.111   .     S
C435   H536    1.109   1_655 S
C435   H705    1.111   .     S
C436   H455    1.110   .     S
C436   C437    1.537   .     S
C436   O493    1.419   .     S
C436   H456    1.112   .     S
C437   C438    1.526   .     S
C437   H289    1.107   1_655 S
C437   H290    1.108   1_655 S
C438   H459    1.110   .     S
C438   H293    1.107   1_655 S
C439   C440    1.523   .     S
C439   H463    1.116   .     S
C439   H464    1.113   .     S
C439   O494    1.409   .     S
C440   H465    1.106   .     S
C440   C441    1.520   .     S
C440   H466    1.109   .     S
C441   H469    1.111   .     S
C441   H468    1.110   .     S
C441   H467    1.109   .     S
C442   O501    1.284   .     A
C442   O498    1.284   .     A
C442   C444    1.369   .     S
C443   O500    1.283   .     A
C443   C445    1.369   .     S
C443   O499    1.284   .     A
C444   C1957   1.167   1_554 S
C445   C1200   1.167   .     S
C446   O502    1.385   .     S
C447   O492    1.386   .     S
C447   C254    1.376   1_655 S
C448   O493    1.383   .     S
C448   C278    1.377   1_655 S
H462   C690    1.110   .     S
H470   N487    1.043   .     S
H471   C262    1.109   1_655 S
H472   N487    1.046   .     S
H473   N488    1.043   .     S
H474   N488    1.045   .     S
H475   N489    1.044   .     S
H476   N489    1.045   .     S
H477   N490    1.041   .     S
H478   N490    1.043   .     S
H479   C262    1.110   1_655 S
H481   C263    1.111   1_655 S
N485   Zn503   2.028   .     S
N486   Zn504   2.028   .     S
O491   Zn503   2.015   .     S
O495   Zn504   2.015   .     S
O496   Zn503   2.014   .     S
O497   Zn504   2.014   .     S
O498   Zn503   1.953   .     S
O499   Zn504   1.953   .     S
O500   Zn503   1.951   .     S
O501   Zn504   1.951   .     S
C505   O581    1.300   .     A
C505   O575    1.282   .     A
C505   C508    1.429   .     S
C506   O578    1.381   .     S
C506   C508    1.405   .     A
C506   C699    1.376   1_455 S
C507   C532    1.415   .     A
C507   C516    1.441   .     S
C507   C531    1.417   .     A
C508   C530    1.395   .     A
C509   N571    1.431   .     S
C509   N570    1.366   .     A
C510   N569    1.363   .     A
C510   N572    1.427   .     S
C510   C7      1.435   1_565 S
C511   N573    1.427   .     S
C511   N570    1.372   .     A
C512   N569    1.380   .     A
C512   N574    1.429   .     S
C512   C5      1.421   1_565 S
C513   C514    1.536   .     S
C513   H533    1.108   .     S
C513   O586    1.423   .     S
C513   H544    1.116   .     S
C514   C2027   1.525   1_554 S
C514   H723    1.109   1_455 S
C514   H731    1.110   1_455 S
C515   H566    1.111   .     S
C515   H564    1.110   .     S
C515   C1270   1.525   .     S
C515   H733    1.111   1_455 S
C516   O580    1.292   .     A
C516   O579    1.297   .     A
C517   C518    1.535   .     S
C517   H567    1.111   .     S
C517   O576    1.421   .     S
C517   H568    1.116   .     S
C518   C519    1.525   .     S
C518   H618    1.106   .     S
C518   H619    1.111   .     S
C519   H538    1.111   .     S
C519   H116    1.109   1_565 S
C519   H33     1.111   1_565 S
C520   H539    1.110   .     S
C520   C521    1.537   .     S
C520   O577    1.419   .     S
C520   H540    1.112   .     S
C521   C522    1.526   .     S
C521   H625    1.107   .     S
C521   H626    1.108   .     S
C522   H543    1.110   .     S
C522   H629    1.107   .     S
C523   C524    1.523   .     S
C523   H547    1.116   .     S
C523   H548    1.113   .     S
C523   O578    1.409   .     S
C524   H549    1.106   .     S
C524   C525    1.520   .     S
C524   H550    1.109   .     S
C525   H553    1.111   .     S
C525   H552    1.110   .     S
C525   H551    1.109   .     S
C526   O585    1.284   .     A
C526   O582    1.284   .     A
C526   C528    1.369   .     S
C527   O584    1.283   .     A
C527   C529    1.369   .     S
C527   O583    1.284   .     A
C528   C2041   1.167   1_554 S
C529   C1284   1.167   .     S
C530   O586    1.385   .     S
C530   C700    1.377   1_455 S
C531   O576    1.386   .     S
C531   C590    1.376   .     S
C532   O577    1.383   .     S
C532   C614    1.377   .     S
H534   C686    1.106   1_455 S
H535   C686    1.111   1_455 S
H536   C435    1.109   1_455 S
H541   C689    1.107   1_455 S
H542   C689    1.108   1_455 S
H545   C690    1.107   1_455 S
H546   C18     1.110   1_565 S
H554   N571    1.043   .     S
H555   C598    1.109   .     S
H556   N571    1.046   .     S
H557   N572    1.043   .     S
H558   N572    1.045   .     S
H559   N573    1.044   .     S
H560   N573    1.045   .     S
H561   N574    1.041   .     S
H562   N574    1.043   .     S
H563   C598    1.110   .     S
H565   C599    1.111   .     S
N569   Zn587   2.028   .     S
N570   Zn588   2.028   .     S
O575   Zn587   2.015   .     S
O579   Zn588   2.015   .     S
O580   Zn587   2.014   .     S
O581   Zn588   2.014   .     S
O582   Zn587   1.953   .     S
O583   Zn588   1.953   .     S
O584   Zn587   1.951   .     S
O585   Zn588   1.951   .     S
C589   O665    1.300   .     A
C589   O659    1.282   .     A
C589   C592    1.429   .     S
C590   O662    1.381   .     S
C590   C592    1.405   .     A
C591   C616    1.415   .     A
C591   C600    1.441   .     S
C591   C615    1.417   .     A
C592   C614    1.395   .     A
C593   N655    1.431   .     S
C593   N654    1.366   .     A
C594   N653    1.363   .     A
C594   N656    1.427   .     S
C594   C91     1.435   1_565 S
C595   N657    1.427   .     S
C595   N654    1.372   .     A
C596   N653    1.380   .     A
C596   N658    1.429   .     S
C596   C89     1.421   1_565 S
C597   C598    1.536   .     S
C597   H617    1.108   .     S
C597   O670    1.423   .     S
C597   H628    1.116   .     S
C598   C2111   1.525   1_554 S
C599   H650    1.111   .     S
C599   H648    1.110   .     S
C599   C1354   1.525   .     S
C600   O664    1.292   .     A
C600   O663    1.297   .     A
C601   C602    1.535   .     S
C601   H651    1.111   .     S
C601   O660    1.421   .     S
C601   H652    1.116   .     S
C602   C603    1.525   .     S
C602   H702    1.106   .     S
C602   H703    1.111   .     S
C603   H622    1.111   .     S
C603   H200    1.109   1_565 S
C603   H117    1.111   1_565 S
C604   H623    1.110   .     S
C604   C605    1.537   .     S
C604   O661    1.419   .     S
C604   H624    1.112   .     S
C605   C606    1.526   .     S
C605   H709    1.107   .     S
C605   H710    1.108   .     S
C606   H627    1.110   .     S
C606   H713    1.107   .     S
C607   C608    1.523   .     S
C607   H631    1.116   .     S
C607   H632    1.113   .     S
C607   O662    1.409   .     S
C608   H633    1.106   .     S
C608   C609    1.520   .     S
C608   H634    1.109   .     S
C609   H637    1.111   .     S
C609   H636    1.110   .     S
C609   H635    1.109   .     S
C610   O669    1.284   .     A
C610   O666    1.284   .     A
C610   C612    1.369   .     S
C611   O668    1.283   .     A
C611   C613    1.369   .     S
C611   O667    1.284   .     A
C612   C2125   1.167   1_554 S
C613   C1368   1.167   .     S
C614   O670    1.385   .     S
C615   O660    1.386   .     S
C615   C674    1.376   .     S
C616   O661    1.383   .     S
C616   C698    1.377   .     S
H630   C102    1.110   1_565 S
H638   N655    1.043   .     S
H639   C682    1.109   .     S
H640   N655    1.046   .     S
H641   N656    1.043   .     S
H642   N656    1.045   .     S
H643   N657    1.044   .     S
H644   N657    1.045   .     S
H645   N658    1.041   .     S
H646   N658    1.043   .     S
H647   C682    1.110   .     S
H649   C683    1.111   .     S
N653   Zn671   2.028   .     S
N654   Zn672   2.028   .     S
O659   Zn671   2.015   .     S
O663   Zn672   2.015   .     S
O664   Zn671   2.014   .     S
O665   Zn672   2.014   .     S
O666   Zn671   1.953   .     S
O667   Zn672   1.953   .     S
O668   Zn671   1.951   .     S
O669   Zn672   1.951   .     S
C673   O749    1.300   .     A
C673   O743    1.282   .     A
C673   C676    1.429   .     S
C674   O746    1.381   .     S
C674   C676    1.405   .     A
C675   C700    1.415   .     A
C675   C684    1.441   .     S
C675   C699    1.417   .     A
C676   C698    1.395   .     A
C677   N739    1.431   .     S
C677   N738    1.366   .     A
C678   N737    1.363   .     A
C678   N740    1.427   .     S
C678   C175    1.435   1_565 S
C679   N741    1.427   .     S
C679   N738    1.372   .     A
C680   N737    1.380   .     A
C680   N742    1.429   .     S
C680   C173    1.421   1_565 S
C681   C682    1.536   .     S
C681   H701    1.108   .     S
C681   O754    1.423   .     S
C681   H712    1.116   .     S
C682   C2195   1.525   1_554 S
C683   H734    1.111   .     S
C683   H732    1.110   .     S
C683   C1438   1.525   .     S
C684   O748    1.292   .     A
C684   O747    1.297   .     A
C685   C686    1.535   .     S
C685   H735    1.111   .     S
C685   O744    1.421   .     S
C685   H736    1.116   .     S
C686   C687    1.525   .     S
C686   H534    1.106   1_655 S
C686   H535    1.111   1_655 S
C687   H706    1.111   .     S
C687   H32     1.109   1_665 S
C687   H201    1.111   1_565 S
C688   H707    1.110   .     S
C688   C689    1.537   .     S
C688   O745    1.419   .     S
C688   H708    1.112   .     S
C689   C690    1.526   .     S
C689   H541    1.107   1_655 S
C689   H542    1.108   1_655 S
C690   H711    1.110   .     S
C690   H545    1.107   1_655 S
C691   C692    1.523   .     S
C691   H715    1.116   .     S
C691   H716    1.113   .     S
C691   O746    1.409   .     S
C692   H717    1.106   .     S
C692   C693    1.520   .     S
C692   H718    1.109   .     S
C693   H721    1.111   .     S
C693   H720    1.110   .     S
C693   H719    1.109   .     S
C694   O753    1.284   .     A
C694   O750    1.284   .     A
C694   C696    1.369   .     S
C695   O752    1.283   .     A
C695   C697    1.369   .     S
C695   O751    1.284   .     A
C696   C2209   1.167   1_554 S
C697   C1452   1.167   .     S
C698   O754    1.385   .     S
C699   O744    1.386   .     S
C699   C506    1.376   1_655 S
C700   O745    1.383   .     S
C700   C530    1.377   1_655 S
H714   C186    1.110   1_565 S
H722   N739    1.043   .     S
H723   C514    1.109   1_655 S
H724   N739    1.046   .     S
H725   N740    1.043   .     S
H726   N740    1.045   .     S
H727   N741    1.044   .     S
H728   N741    1.045   .     S
H729   N742    1.041   .     S
H730   N742    1.043   .     S
H731   C514    1.110   1_655 S
H733   C515    1.111   1_655 S
N737   Zn755   2.028   .     S
N738   Zn756   2.028   .     S
O743   Zn755   2.015   .     S
O747   Zn756   2.015   .     S
O748   Zn755   2.014   .     S
O749   Zn756   2.014   .     S
O750   Zn755   1.953   .     S
O751   Zn756   1.953   .     S
O752   Zn755   1.951   .     S
O753   Zn756   1.951   .     S
C757   O833    1.300   .     A
C757   O827    1.282   .     A
C757   C760    1.429   .     S
C758   O830    1.381   .     S
C758   C760    1.405   .     A
C758   C951    1.376   1_455 S
C759   C784    1.415   .     A
C759   C768    1.441   .     S
C759   C783    1.417   .     A
C760   C782    1.395   .     A
C761   N823    1.431   .     S
C761   N822    1.366   .     A
C761   C1268   1.421   1_545 S
C762   N821    1.363   .     A
C762   N824    1.427   .     S
C762   C1015   1.435   .     S
C763   N825    1.427   .     S
C763   N822    1.372   .     A
C763   C1266   1.435   1_545 S
C764   N821    1.380   .     A
C764   N826    1.429   .     S
C764   C1013   1.421   .     S
C765   C766    1.536   .     S
C765   H785    1.108   .     S
C765   O838    1.423   .     S
C765   H796    1.116   .     S
C766   H975    1.109   1_455 S
C766   H983    1.110   1_455 S
C767   H818    1.111   .     S
C767   H816    1.110   .     S
C767   C1522   1.525   .     S
C767   H985    1.111   1_455 S
C768   O832    1.292   .     A
C768   O831    1.297   .     A
C769   C770    1.535   .     S
C769   H819    1.111   .     S
C769   O828    1.421   .     S
C769   H820    1.116   .     S
C770   C771    1.525   .     S
C770   H870    1.106   .     S
C770   H871    1.111   .     S
C771   H790    1.111   .     S
C771   H1124   1.109   .     S
C771   H1041   1.111   .     S
C772   H791    1.110   .     S
C772   C773    1.537   .     S
C772   O829    1.419   .     S
C772   H792    1.112   .     S
C773   C774    1.526   .     S
C773   H877    1.107   .     S
C773   H878    1.108   .     S
C774   H795    1.110   .     S
C774   H881    1.107   .     S
C774   H1302   1.110   1_545 S
C775   C776    1.523   .     S
C775   H799    1.116   .     S
C775   H800    1.113   .     S
C775   O830    1.409   .     S
C776   H801    1.106   .     S
C776   C777    1.520   .     S
C776   H802    1.109   .     S
C777   H805    1.111   .     S
C777   H804    1.110   .     S
C777   H803    1.109   .     S
C778   O837    1.284   .     A
C778   O834    1.284   .     A
C778   C780    1.369   .     S
C779   O836    1.283   .     A
C779   C781    1.369   .     S
C779   O835    1.284   .     A
C781   C1536   1.167   .     S
C782   O838    1.385   .     S
C782   C952    1.377   1_455 S
C783   O828    1.386   .     S
C783   C842    1.376   .     S
C784   O829    1.383   .     S
C784   C866    1.377   .     S
H786   C938    1.106   1_455 S
H787   C938    1.111   1_455 S
H788   C1443   1.109   1_445 S
H789   C1275   1.111   1_545 S
H793   C941    1.107   1_455 S
H794   C941    1.108   1_455 S
H797   C942    1.107   1_455 S
H798   C1026   1.110   .     S
H806   N823    1.043   .     S
H807   C850    1.109   .     S
H808   N823    1.046   .     S
H809   N824    1.043   .     S
H810   N824    1.045   .     S
H811   N825    1.044   .     S
H812   N825    1.045   .     S
H813   N826    1.041   .     S
H814   N826    1.043   .     S
H815   C850    1.110   .     S
H817   C851    1.111   .     S
N821   Zn839   2.028   .     S
N822   Zn840   2.028   .     S
O827   Zn839   2.015   .     S
O831   Zn840   2.015   .     S
O832   Zn839   2.014   .     S
O833   Zn840   2.014   .     S
O834   Zn839   1.953   .     S
O835   Zn840   1.953   .     S
O836   Zn839   1.951   .     S
O837   Zn840   1.951   .     S
C841   O917    1.300   .     A
C841   O911    1.282   .     A
C841   C844    1.429   .     S
C842   O914    1.381   .     S
C842   C844    1.405   .     A
C843   C868    1.415   .     A
C843   C852    1.441   .     S
C843   C867    1.417   .     A
C844   C866    1.395   .     A
C845   N907    1.431   .     S
C845   N906    1.366   .     A
C845   C1352   1.421   1_545 S
C846   N905    1.363   .     A
C846   N908    1.427   .     S
C846   C1099   1.435   .     S
C847   N909    1.427   .     S
C847   N906    1.372   .     A
C847   C1350   1.435   1_545 S
C848   N905    1.380   .     A
C848   N910    1.429   .     S
C848   C1097   1.421   .     S
C849   C850    1.536   .     S
C849   H869    1.108   .     S
C849   O922    1.423   .     S
C849   H880    1.116   .     S
C851   H902    1.111   .     S
C851   H900    1.110   .     S
C851   C1606   1.525   .     S
C852   O916    1.292   .     A
C852   O915    1.297   .     A
C853   C854    1.535   .     S
C853   H903    1.111   .     S
C853   O912    1.421   .     S
C853   H904    1.116   .     S
C854   C855    1.525   .     S
C854   H954    1.106   .     S
C854   H955    1.111   .     S
C855   H874    1.111   .     S
C855   H1208   1.109   .     S
C855   H1125   1.111   .     S
C856   H875    1.110   .     S
C856   C857    1.537   .     S
C856   O913    1.419   .     S
C856   H876    1.112   .     S
C857   C858    1.526   .     S
C857   H961    1.107   .     S
C857   H962    1.108   .     S
C858   H879    1.110   .     S
C858   H965    1.107   .     S
C858   H1386   1.110   1_545 S
C859   C860    1.523   .     S
C859   H883    1.116   .     S
C859   H884    1.113   .     S
C859   O914    1.409   .     S
C860   H885    1.106   .     S
C860   C861    1.520   .     S
C860   H886    1.109   .     S
C861   H889    1.111   .     S
C861   H888    1.110   .     S
C861   H887    1.109   .     S
C862   O921    1.284   .     A
C862   O918    1.284   .     A
C862   C864    1.369   .     S
C863   O920    1.283   .     A
C863   C865    1.369   .     S
C863   O919    1.284   .     A
C865   C1620   1.167   .     S
C866   O922    1.385   .     S
C867   O912    1.386   .     S
C867   C926    1.376   .     S
C868   O913    1.383   .     S
C868   C950    1.377   .     S
H872   C1275   1.109   1_545 S
H873   C1359   1.111   1_545 S
H882   C1110   1.110   .     S
H890   N907    1.043   .     S
H891   C934    1.109   .     S
H892   N907    1.046   .     S
H893   N908    1.043   .     S
H894   N908    1.045   .     S
H895   N909    1.044   .     S
H896   N909    1.045   .     S
H897   N910    1.041   .     S
H898   N910    1.043   .     S
H899   C934    1.110   .     S
H901   C935    1.111   .     S
N905   Zn923   2.028   .     S
N906   Zn924   2.028   .     S
O911   Zn923   2.015   .     S
O915   Zn924   2.015   .     S
O916   Zn923   2.014   .     S
O917   Zn924   2.014   .     S
O918   Zn923   1.953   .     S
O919   Zn924   1.953   .     S
O920   Zn923   1.951   .     S
O921   Zn924   1.951   .     S
C925   O1001   1.300   .     A
C925   O995    1.282   .     A
C925   C928    1.429   .     S
C926   O998    1.381   .     S
C926   C928    1.405   .     A
C927   C952    1.415   .     A
C927   C936    1.441   .     S
C927   C951    1.417   .     A
C928   C950    1.395   .     A
C929   N991    1.431   .     S
C929   N990    1.366   .     A
C929   C1436   1.421   1_545 S
C930   N989    1.363   .     A
C930   N992    1.427   .     S
C930   C1183   1.435   .     S
C931   N993    1.427   .     S
C931   N990    1.372   .     A
C931   C1434   1.435   1_545 S
C932   N989    1.380   .     A
C932   N994    1.429   .     S
C932   C1181   1.421   .     S
C933   C934    1.536   .     S
C933   H953    1.108   .     S
C933   O1006   1.423   .     S
C933   H964    1.116   .     S
C935   H986    1.111   .     S
C935   H984    1.110   .     S
C935   C1690   1.525   .     S
C936   O1000   1.292   .     A
C936   O999    1.297   .     A
C937   C938    1.535   .     S
C937   H987    1.111   .     S
C937   O996    1.421   .     S
C937   H988    1.116   .     S
C938   C939    1.525   .     S
C938   H786    1.106   1_655 S
C938   H787    1.111   1_655 S
C939   H958    1.111   .     S
C939   H1040   1.109   1_655 S
C939   H1209   1.111   .     S
C940   H959    1.110   .     S
C940   C941    1.537   .     S
C940   O997    1.419   .     S
C940   H960    1.112   .     S
C941   C942    1.526   .     S
C941   H793    1.107   1_655 S
C941   H794    1.108   1_655 S
C942   H963    1.110   .     S
C942   H797    1.107   1_655 S
C942   H1470   1.110   1_545 S
C943   C944    1.523   .     S
C943   H967    1.116   .     S
C943   H968    1.113   .     S
C943   O998    1.409   .     S
C944   H969    1.106   .     S
C944   C945    1.520   .     S
C944   H970    1.109   .     S
C945   H973    1.111   .     S
C945   H972    1.110   .     S
C945   H971    1.109   .     S
C946   O1005   1.284   .     A
C946   O1002   1.284   .     A
C946   C948    1.369   .     S
C947   O1004   1.283   .     A
C947   C949    1.369   .     S
C947   O1003   1.284   .     A
C949   C1704   1.167   .     S
C950   O1006   1.385   .     S
C951   O996    1.386   .     S
C951   C758    1.376   1_655 S
C952   O997    1.383   .     S
C952   C782    1.377   1_655 S
H956   C1359   1.109   1_545 S
H957   C1443   1.111   1_545 S
H966   C1194   1.110   .     S
H974   N991    1.043   .     S
H975   C766    1.109   1_655 S
H976   N991    1.046   .     S
H977   N992    1.043   .     S
H978   N992    1.045   .     S
H979   N993    1.044   .     S
H980   N993    1.045   .     S
H981   N994    1.041   .     S
H982   N994    1.043   .     S
H983   C766    1.110   1_655 S
H985   C767    1.111   1_655 S
N989   Zn1007  2.028   .     S
N990   Zn1008  2.028   .     S
O995   Zn1007  2.015   .     S
O999   Zn1008  2.015   .     S
O1000  Zn1007  2.014   .     S
O1001  Zn1008  2.014   .     S
O1002  Zn1007  1.953   .     S
O1003  Zn1008  1.953   .     S
O1004  Zn1007  1.951   .     S
O1005  Zn1008  1.951   .     S
C1009  O1085   1.300   .     A
C1009  O1079   1.282   .     A
C1009  C1012   1.429   .     S
C1010  O1082   1.381   .     S
C1010  C1012   1.405   .     A
C1010  C1203   1.376   1_455 S
C1011  C1036   1.415   .     A
C1011  C1020   1.441   .     S
C1011  C1035   1.417   .     A
C1012  C1034   1.395   .     A
C1013  N1075   1.431   .     S
C1013  N1074   1.366   .     A
C1014  N1073   1.363   .     A
C1014  N1076   1.427   .     S
C1014  C1267   1.435   .     S
C1015  N1077   1.427   .     S
C1015  N1074   1.372   .     A
C1016  N1073   1.380   .     A
C1016  N1078   1.429   .     S
C1016  C1265   1.421   .     S
C1017  C1018   1.536   .     S
C1017  H1037   1.108   .     S
C1017  O1090   1.423   .     S
C1017  H1048   1.116   .     S
C1018  H1227   1.109   1_455 S
C1018  H1235   1.110   1_455 S
C1019  H1070   1.111   .     S
C1019  H1068   1.110   .     S
C1019  C1774   1.525   .     S
C1019  H1237   1.111   1_455 S
C1020  O1084   1.292   .     A
C1020  O1083   1.297   .     A
C1021  C1022   1.535   .     S
C1021  H1071   1.111   .     S
C1021  O1080   1.421   .     S
C1021  H1072   1.116   .     S
C1022  C1023   1.525   .     S
C1022  H1122   1.106   .     S
C1022  H1123   1.111   .     S
C1023  H1042   1.111   .     S
C1023  H1376   1.109   .     S
C1023  H1293   1.111   .     S
C1024  H1043   1.110   .     S
C1024  C1025   1.537   .     S
C1024  O1081   1.419   .     S
C1024  H1044   1.112   .     S
C1025  C1026   1.526   .     S
C1025  H1129   1.107   .     S
C1025  H1130   1.108   .     S
C1026  H1047   1.110   .     S
C1026  H1133   1.107   .     S
C1027  C1028   1.523   .     S
C1027  H1051   1.116   .     S
C1027  H1052   1.113   .     S
C1027  O1082   1.409   .     S
C1028  H1053   1.106   .     S
C1028  C1029   1.520   .     S
C1028  H1054   1.109   .     S
C1029  H1057   1.111   .     S
C1029  H1056   1.110   .     S
C1029  H1055   1.109   .     S
C1030  O1089   1.284   .     A
C1030  O1086   1.284   .     A
C1030  C1032   1.369   .     S
C1031  O1088   1.283   .     A
C1031  C1033   1.369   .     S
C1031  O1087   1.284   .     A
C1033  C1788   1.167   .     S
C1034  O1090   1.385   .     S
C1034  C1204   1.377   1_455 S
C1035  O1080   1.386   .     S
C1035  C1094   1.376   .     S
C1036  O1081   1.383   .     S
C1036  C1118   1.377   .     S
H1038  C1190   1.106   1_455 S
H1039  C1190   1.111   1_455 S
H1040  C939    1.109   1_455 S
H1045  C1193   1.107   1_455 S
H1046  C1193   1.108   1_455 S
H1049  C1194   1.107   1_455 S
H1050  C1278   1.110   .     S
H1058  N1075   1.043   .     S
H1059  C1102   1.109   .     S
H1060  N1075   1.046   .     S
H1061  N1076   1.043   .     S
H1062  N1076   1.045   .     S
H1063  N1077   1.044   .     S
H1064  N1077   1.045   .     S
H1065  N1078   1.041   .     S
H1066  N1078   1.043   .     S
H1067  C1102   1.110   .     S
H1069  C1103   1.111   .     S
N1073  Zn1091  2.028   .     S
N1074  Zn1092  2.028   .     S
O1079  Zn1091  2.015   .     S
O1083  Zn1092  2.015   .     S
O1084  Zn1091  2.014   .     S
O1085  Zn1092  2.014   .     S
O1086  Zn1091  1.953   .     S
O1087  Zn1092  1.953   .     S
O1088  Zn1091  1.951   .     S
O1089  Zn1092  1.951   .     S
C1093  O1169   1.300   .     A
C1093  O1163   1.282   .     A
C1093  C1096   1.429   .     S
C1094  O1166   1.381   .     S
C1094  C1096   1.405   .     A
C1095  C1120   1.415   .     A
C1095  C1104   1.441   .     S
C1095  C1119   1.417   .     A
C1096  C1118   1.395   .     A
C1097  N1159   1.431   .     S
C1097  N1158   1.366   .     A
C1098  N1157   1.363   .     A
C1098  N1160   1.427   .     S
C1098  C1351   1.435   .     S
C1099  N1161   1.427   .     S
C1099  N1158   1.372   .     A
C1100  N1157   1.380   .     A
C1100  N1162   1.429   .     S
C1100  C1349   1.421   .     S
C1101  C1102   1.536   .     S
C1101  H1121   1.108   .     S
C1101  O1174   1.423   .     S
C1101  H1132   1.116   .     S
C1103  H1154   1.111   .     S
C1103  H1152   1.110   .     S
C1103  C1858   1.525   .     S
C1104  O1168   1.292   .     A
C1104  O1167   1.297   .     A
C1105  C1106   1.535   .     S
C1105  H1155   1.111   .     S
C1105  O1164   1.421   .     S
C1105  H1156   1.116   .     S
C1106  C1107   1.525   .     S
C1106  H1206   1.106   .     S
C1106  H1207   1.111   .     S
C1107  H1126   1.111   .     S
C1107  H1460   1.109   .     S
C1107  H1377   1.111   .     S
C1108  H1127   1.110   .     S
C1108  C1109   1.537   .     S
C1108  O1165   1.419   .     S
C1108  H1128   1.112   .     S
C1109  C1110   1.526   .     S
C1109  H1213   1.107   .     S
C1109  H1214   1.108   .     S
C1110  H1131   1.110   .     S
C1110  H1217   1.107   .     S
C1111  C1112   1.523   .     S
C1111  H1135   1.116   .     S
C1111  H1136   1.113   .     S
C1111  O1166   1.409   .     S
C1112  H1137   1.106   .     S
C1112  C1113   1.520   .     S
C1112  H1138   1.109   .     S
C1113  H1141   1.111   .     S
C1113  H1140   1.110   .     S
C1113  H1139   1.109   .     S
C1114  O1173   1.284   .     A
C1114  O1170   1.284   .     A
C1114  C1116   1.369   .     S
C1115  O1172   1.283   .     A
C1115  C1117   1.369   .     S
C1115  O1171   1.284   .     A
C1117  C1872   1.167   .     S
C1118  O1174   1.385   .     S
C1119  O1164   1.386   .     S
C1119  C1178   1.376   .     S
C1120  O1165   1.383   .     S
C1120  C1202   1.377   .     S
H1134  C1362   1.110   .     S
H1142  N1159   1.043   .     S
H1143  C1186   1.109   .     S
H1144  N1159   1.046   .     S
H1145  N1160   1.043   .     S
H1146  N1160   1.045   .     S
H1147  N1161   1.044   .     S
H1148  N1161   1.045   .     S
H1149  N1162   1.041   .     S
H1150  N1162   1.043   .     S
H1151  C1186   1.110   .     S
H1153  C1187   1.111   .     S
N1157  Zn1175  2.028   .     S
N1158  Zn1176  2.028   .     S
O1163  Zn1175  2.015   .     S
O1167  Zn1176  2.015   .     S
O1168  Zn1175  2.014   .     S
O1169  Zn1176  2.014   .     S
O1170  Zn1175  1.953   .     S
O1171  Zn1176  1.953   .     S
O1172  Zn1175  1.951   .     S
O1173  Zn1176  1.951   .     S
C1177  O1253   1.300   .     A
C1177  O1247   1.282   .     A
C1177  C1180   1.429   .     S
C1178  O1250   1.381   .     S
C1178  C1180   1.405   .     A
C1179  C1204   1.415   .     A
C1179  C1188   1.441   .     S
C1179  C1203   1.417   .     A
C1180  C1202   1.395   .     A
C1181  N1243   1.431   .     S
C1181  N1242   1.366   .     A
C1182  N1241   1.363   .     A
C1182  N1244   1.427   .     S
C1182  C1435   1.435   .     S
C1183  N1245   1.427   .     S
C1183  N1242   1.372   .     A
C1184  N1241   1.380   .     A
C1184  N1246   1.429   .     S
C1184  C1433   1.421   .     S
C1185  C1186   1.536   .     S
C1185  H1205   1.108   .     S
C1185  O1258   1.423   .     S
C1185  H1216   1.116   .     S
C1187  H1238   1.111   .     S
C1187  H1236   1.110   .     S
C1187  C1942   1.525   .     S
C1188  O1252   1.292   .     A
C1188  O1251   1.297   .     A
C1189  C1190   1.535   .     S
C1189  H1239   1.111   .     S
C1189  O1248   1.421   .     S
C1189  H1240   1.116   .     S
C1190  C1191   1.525   .     S
C1190  H1038   1.106   1_655 S
C1190  H1039   1.111   1_655 S
C1191  H1210   1.111   .     S
C1191  H1292   1.109   1_655 S
C1191  H1461   1.111   .     S
C1192  H1211   1.110   .     S
C1192  C1193   1.537   .     S
C1192  O1249   1.419   .     S
C1192  H1212   1.112   .     S
C1193  C1194   1.526   .     S
C1193  H1045   1.107   1_655 S
C1193  H1046   1.108   1_655 S
C1194  H1215   1.110   .     S
C1194  H1049   1.107   1_655 S
C1195  C1196   1.523   .     S
C1195  H1219   1.116   .     S
C1195  H1220   1.113   .     S
C1195  O1250   1.409   .     S
C1196  H1221   1.106   .     S
C1196  C1197   1.520   .     S
C1196  H1222   1.109   .     S
C1197  H1225   1.111   .     S
C1197  H1224   1.110   .     S
C1197  H1223   1.109   .     S
C1198  O1257   1.284   .     A
C1198  O1254   1.284   .     A
C1198  C1200   1.369   .     S
C1199  O1256   1.283   .     A
C1199  C1201   1.369   .     S
C1199  O1255   1.284   .     A
C1201  C1956   1.167   .     S
C1202  O1258   1.385   .     S
C1203  O1248   1.386   .     S
C1203  C1010   1.376   1_655 S
C1204  O1249   1.383   .     S
C1204  C1034   1.377   1_655 S
H1218  C1446   1.110   .     S
H1226  N1243   1.043   .     S
H1227  C1018   1.109   1_655 S
H1228  N1243   1.046   .     S
H1229  N1244   1.043   .     S
H1230  N1244   1.045   .     S
H1231  N1245   1.044   .     S
H1232  N1245   1.045   .     S
H1233  N1246   1.041   .     S
H1234  N1246   1.043   .     S
H1235  C1018   1.110   1_655 S
H1237  C1019   1.111   1_655 S
N1241  Zn1259  2.028   .     S
N1242  Zn1260  2.028   .     S
O1247  Zn1259  2.015   .     S
O1251  Zn1260  2.015   .     S
O1252  Zn1259  2.014   .     S
O1253  Zn1260  2.014   .     S
O1254  Zn1259  1.953   .     S
O1255  Zn1260  1.953   .     S
O1256  Zn1259  1.951   .     S
O1257  Zn1260  1.951   .     S
C1261  O1337   1.300   .     A
C1261  O1331   1.282   .     A
C1261  C1264   1.429   .     S
C1262  O1334   1.381   .     S
C1262  C1264   1.405   .     A
C1262  C1455   1.376   1_455 S
C1263  C1288   1.415   .     A
C1263  C1272   1.441   .     S
C1263  C1287   1.417   .     A
C1264  C1286   1.395   .     A
C1265  N1327   1.431   .     S
C1265  N1326   1.366   .     A
C1266  N1325   1.363   .     A
C1266  N1328   1.427   .     S
C1266  C763    1.435   1_565 S
C1267  N1329   1.427   .     S
C1267  N1326   1.372   .     A
C1268  N1325   1.380   .     A
C1268  N1330   1.429   .     S
C1268  C761    1.421   1_565 S
C1269  C1270   1.536   .     S
C1269  H1289   1.108   .     S
C1269  O1342   1.423   .     S
C1269  H1300   1.116   .     S
C1270  H1479   1.109   1_455 S
C1270  H1487   1.110   1_455 S
C1271  H1322   1.111   .     S
C1271  H1320   1.110   .     S
C1271  C2026   1.525   .     S
C1271  H1489   1.111   1_455 S
C1272  O1336   1.292   .     A
C1272  O1335   1.297   .     A
C1273  C1274   1.535   .     S
C1273  H1323   1.111   .     S
C1273  O1332   1.421   .     S
C1273  H1324   1.116   .     S
C1274  C1275   1.525   .     S
C1274  H1374   1.106   .     S
C1274  H1375   1.111   .     S
C1275  H1294   1.111   .     S
C1275  H872    1.109   1_565 S
C1275  H789    1.111   1_565 S
C1276  H1295   1.110   .     S
C1276  C1277   1.537   .     S
C1276  O1333   1.419   .     S
C1276  H1296   1.112   .     S
C1277  C1278   1.526   .     S
C1277  H1381   1.107   .     S
C1277  H1382   1.108   .     S
C1278  H1299   1.110   .     S
C1278  H1385   1.107   .     S
C1279  C1280   1.523   .     S
C1279  H1303   1.116   .     S
C1279  H1304   1.113   .     S
C1279  O1334   1.409   .     S
C1280  H1305   1.106   .     S
C1280  C1281   1.520   .     S
C1280  H1306   1.109   .     S
C1281  H1309   1.111   .     S
C1281  H1308   1.110   .     S
C1281  H1307   1.109   .     S
C1282  O1341   1.284   .     A
C1282  O1338   1.284   .     A
C1282  C1284   1.369   .     S
C1283  O1340   1.283   .     A
C1283  C1285   1.369   .     S
C1283  O1339   1.284   .     A
C1285  C2040   1.167   .     S
C1286  O1342   1.385   .     S
C1286  C1456   1.377   1_455 S
C1287  O1332   1.386   .     S
C1287  C1346   1.376   .     S
C1288  O1333   1.383   .     S
C1288  C1370   1.377   .     S
H1290  C1442   1.106   1_455 S
H1291  C1442   1.111   1_455 S
H1292  C1191   1.109   1_455 S
H1297  C1445   1.107   1_455 S
H1298  C1445   1.108   1_455 S
H1301  C1446   1.107   1_455 S
H1302  C774    1.110   1_565 S
H1310  N1327   1.043   .     S
H1311  C1354   1.109   .     S
H1312  N1327   1.046   .     S
H1313  N1328   1.043   .     S
H1314  N1328   1.045   .     S
H1315  N1329   1.044   .     S
H1316  N1329   1.045   .     S
H1317  N1330   1.041   .     S
H1318  N1330   1.043   .     S
H1319  C1354   1.110   .     S
H1321  C1355   1.111   .     S
N1325  Zn1343  2.028   .     S
N1326  Zn1344  2.028   .     S
O1331  Zn1343  2.015   .     S
O1335  Zn1344  2.015   .     S
O1336  Zn1343  2.014   .     S
O1337  Zn1344  2.014   .     S
O1338  Zn1343  1.953   .     S
O1339  Zn1344  1.953   .     S
O1340  Zn1343  1.951   .     S
O1341  Zn1344  1.951   .     S
C1345  O1421   1.300   .     A
C1345  O1415   1.282   .     A
C1345  C1348   1.429   .     S
C1346  O1418   1.381   .     S
C1346  C1348   1.405   .     A
C1347  C1372   1.415   .     A
C1347  C1356   1.441   .     S
C1347  C1371   1.417   .     A
C1348  C1370   1.395   .     A
C1349  N1411   1.431   .     S
C1349  N1410   1.366   .     A
C1350  N1409   1.363   .     A
C1350  N1412   1.427   .     S
C1350  C847    1.435   1_565 S
C1351  N1413   1.427   .     S
C1351  N1410   1.372   .     A
C1352  N1409   1.380   .     A
C1352  N1414   1.429   .     S
C1352  C845    1.421   1_565 S
C1353  C1354   1.536   .     S
C1353  H1373   1.108   .     S
C1353  O1426   1.423   .     S
C1353  H1384   1.116   .     S
C1355  H1406   1.111   .     S
C1355  H1404   1.110   .     S
C1355  C2110   1.525   .     S
C1356  O1420   1.292   .     A
C1356  O1419   1.297   .     A
C1357  C1358   1.535   .     S
C1357  H1407   1.111   .     S
C1357  O1416   1.421   .     S
C1357  H1408   1.116   .     S
C1358  C1359   1.525   .     S
C1358  H1458   1.106   .     S
C1358  H1459   1.111   .     S
C1359  H1378   1.111   .     S
C1359  H956    1.109   1_565 S
C1359  H873    1.111   1_565 S
C1360  H1379   1.110   .     S
C1360  C1361   1.537   .     S
C1360  O1417   1.419   .     S
C1360  H1380   1.112   .     S
C1361  C1362   1.526   .     S
C1361  H1465   1.107   .     S
C1361  H1466   1.108   .     S
C1362  H1383   1.110   .     S
C1362  H1469   1.107   .     S
C1363  C1364   1.523   .     S
C1363  H1387   1.116   .     S
C1363  H1388   1.113   .     S
C1363  O1418   1.409   .     S
C1364  H1389   1.106   .     S
C1364  C1365   1.520   .     S
C1364  H1390   1.109   .     S
C1365  H1393   1.111   .     S
C1365  H1392   1.110   .     S
C1365  H1391   1.109   .     S
C1366  O1425   1.284   .     A
C1366  O1422   1.284   .     A
C1366  C1368   1.369   .     S
C1367  O1424   1.283   .     A
C1367  C1369   1.369   .     S
C1367  O1423   1.284   .     A
C1369  C2124   1.167   .     S
C1370  O1426   1.385   .     S
C1371  O1416   1.386   .     S
C1371  C1430   1.376   .     S
C1372  O1417   1.383   .     S
C1372  C1454   1.377   .     S
H1386  C858    1.110   1_565 S
H1394  N1411   1.043   .     S
H1395  C1438   1.109   .     S
H1396  N1411   1.046   .     S
H1397  N1412   1.043   .     S
H1398  N1412   1.045   .     S
H1399  N1413   1.044   .     S
H1400  N1413   1.045   .     S
H1401  N1414   1.041   .     S
H1402  N1414   1.043   .     S
H1403  C1438   1.110   .     S
H1405  C1439   1.111   .     S
N1409  Zn1427  2.028   .     S
N1410  Zn1428  2.028   .     S
O1415  Zn1427  2.015   .     S
O1419  Zn1428  2.015   .     S
O1420  Zn1427  2.014   .     S
O1421  Zn1428  2.014   .     S
O1422  Zn1427  1.953   .     S
O1423  Zn1428  1.953   .     S
O1424  Zn1427  1.951   .     S
O1425  Zn1428  1.951   .     S
C1429  O1505   1.300   .     A
C1429  O1499   1.282   .     A
C1429  C1432   1.429   .     S
C1430  O1502   1.381   .     S
C1430  C1432   1.405   .     A
C1431  C1456   1.415   .     A
C1431  C1440   1.441   .     S
C1431  C1455   1.417   .     A
C1432  C1454   1.395   .     A
C1433  N1495   1.431   .     S
C1433  N1494   1.366   .     A
C1434  N1493   1.363   .     A
C1434  N1496   1.427   .     S
C1434  C931    1.435   1_565 S
C1435  N1497   1.427   .     S
C1435  N1494   1.372   .     A
C1436  N1493   1.380   .     A
C1436  N1498   1.429   .     S
C1436  C929    1.421   1_565 S
C1437  C1438   1.536   .     S
C1437  H1457   1.108   .     S
C1437  O1510   1.423   .     S
C1437  H1468   1.116   .     S
C1439  H1490   1.111   .     S
C1439  H1488   1.110   .     S
C1439  C2194   1.525   .     S
C1440  O1504   1.292   .     A
C1440  O1503   1.297   .     A
C1441  C1442   1.535   .     S
C1441  H1491   1.111   .     S
C1441  O1500   1.421   .     S
C1441  H1492   1.116   .     S
C1442  C1443   1.525   .     S
C1442  H1290   1.106   1_655 S
C1442  H1291   1.111   1_655 S
C1443  H1462   1.111   .     S
C1443  H788    1.109   1_665 S
C1443  H957    1.111   1_565 S
C1444  H1463   1.110   .     S
C1444  C1445   1.537   .     S
C1444  O1501   1.419   .     S
C1444  H1464   1.112   .     S
C1445  C1446   1.526   .     S
C1445  H1297   1.107   1_655 S
C1445  H1298   1.108   1_655 S
C1446  H1467   1.110   .     S
C1446  H1301   1.107   1_655 S
C1447  C1448   1.523   .     S
C1447  H1471   1.116   .     S
C1447  H1472   1.113   .     S
C1447  O1502   1.409   .     S
C1448  H1473   1.106   .     S
C1448  C1449   1.520   .     S
C1448  H1474   1.109   .     S
C1449  H1477   1.111   .     S
C1449  H1476   1.110   .     S
C1449  H1475   1.109   .     S
C1450  O1509   1.284   .     A
C1450  O1506   1.284   .     A
C1450  C1452   1.369   .     S
C1451  O1508   1.283   .     A
C1451  C1453   1.369   .     S
C1451  O1507   1.284   .     A
C1453  C2208   1.167   .     S
C1454  O1510   1.385   .     S
C1455  O1500   1.386   .     S
C1455  C1262   1.376   1_655 S
C1456  O1501   1.383   .     S
C1456  C1286   1.377   1_655 S
H1470  C942    1.110   1_565 S
H1478  N1495   1.043   .     S
H1479  C1270   1.109   1_655 S
H1480  N1495   1.046   .     S
H1481  N1496   1.043   .     S
H1482  N1496   1.045   .     S
H1483  N1497   1.044   .     S
H1484  N1497   1.045   .     S
H1485  N1498   1.041   .     S
H1486  N1498   1.043   .     S
H1487  C1270   1.110   1_655 S
H1489  C1271   1.111   1_655 S
N1493  Zn1511  2.028   .     S
N1494  Zn1512  2.028   .     S
O1499  Zn1511  2.015   .     S
O1503  Zn1512  2.015   .     S
O1504  Zn1511  2.014   .     S
O1505  Zn1512  2.014   .     S
O1506  Zn1511  1.953   .     S
O1507  Zn1512  1.953   .     S
O1508  Zn1511  1.951   .     S
O1509  Zn1512  1.951   .     S
C1513  O1589   1.300   .     A
C1513  O1583   1.282   .     A
C1513  C1516   1.429   .     S
C1514  O1586   1.381   .     S
C1514  C1516   1.405   .     A
C1514  C1707   1.376   1_455 S
C1515  C1540   1.415   .     A
C1515  C1524   1.441   .     S
C1515  C1539   1.417   .     A
C1516  C1538   1.395   .     A
C1517  N1579   1.431   .     S
C1517  N1578   1.366   .     A
C1517  C2024   1.421   1_545 S
C1518  N1577   1.363   .     A
C1518  N1580   1.427   .     S
C1518  C1771   1.435   .     S
C1519  N1581   1.427   .     S
C1519  N1578   1.372   .     A
C1519  C2022   1.435   1_545 S
C1520  N1577   1.380   .     A
C1520  N1582   1.429   .     S
C1520  C1769   1.421   .     S
C1521  C1522   1.536   .     S
C1521  H1541   1.108   .     S
C1521  O1594   1.423   .     S
C1521  H1552   1.116   .     S
C1522  H1731   1.109   1_455 S
C1522  H1739   1.110   1_455 S
C1523  H1574   1.111   .     S
C1523  H1572   1.110   .     S
C1523  C10     1.525   1_556 S
C1523  H1741   1.111   1_455 S
C1524  O1588   1.292   .     A
C1524  O1587   1.297   .     A
C1525  C1526   1.535   .     S
C1525  H1575   1.111   .     S
C1525  O1584   1.421   .     S
C1525  H1576   1.116   .     S
C1526  C1527   1.525   .     S
C1526  H1626   1.106   .     S
C1526  H1627   1.111   .     S
C1527  H1546   1.111   .     S
C1527  H1880   1.109   .     S
C1527  H1797   1.111   .     S
C1528  H1547   1.110   .     S
C1528  C1529   1.537   .     S
C1528  O1585   1.419   .     S
C1528  H1548   1.112   .     S
C1529  C1530   1.526   .     S
C1529  H1633   1.107   .     S
C1529  H1634   1.108   .     S
C1530  H1551   1.110   .     S
C1530  H1637   1.107   .     S
C1530  H2058   1.110   1_545 S
C1531  C1532   1.523   .     S
C1531  H1555   1.116   .     S
C1531  H1556   1.113   .     S
C1531  O1586   1.409   .     S
C1532  H1557   1.106   .     S
C1532  C1533   1.520   .     S
C1532  H1558   1.109   .     S
C1533  H1561   1.111   .     S
C1533  H1560   1.110   .     S
C1533  H1559   1.109   .     S
C1534  O1593   1.284   .     A
C1534  O1590   1.284   .     A
C1534  C1536   1.369   .     S
C1535  O1592   1.283   .     A
C1535  C1537   1.369   .     S
C1535  O1591   1.284   .     A
C1537  C24     1.167   1_556 S
C1538  O1594   1.385   .     S
C1538  C1708   1.377   1_455 S
C1539  O1584   1.386   .     S
C1539  C1598   1.376   .     S
C1540  O1585   1.383   .     S
C1540  C1622   1.377   .     S
H1542  C1694   1.106   1_455 S
H1543  C1694   1.111   1_455 S
H1544  C2199   1.109   1_445 S
H1545  C2031   1.111   1_545 S
H1549  C1697   1.107   1_455 S
H1550  C1697   1.108   1_455 S
H1553  C1698   1.107   1_455 S
H1554  C1782   1.110   .     S
H1562  N1579   1.043   .     S
H1563  C1606   1.109   .     S
H1564  N1579   1.046   .     S
H1565  N1580   1.043   .     S
H1566  N1580   1.045   .     S
H1567  N1581   1.044   .     S
H1568  N1581   1.045   .     S
H1569  N1582   1.041   .     S
H1570  N1582   1.043   .     S
H1571  C1606   1.110   .     S
H1573  C1607   1.111   .     S
N1577  Zn1595  2.028   .     S
N1578  Zn1596  2.028   .     S
O1583  Zn1595  2.015   .     S
O1587  Zn1596  2.015   .     S
O1588  Zn1595  2.014   .     S
O1589  Zn1596  2.014   .     S
O1590  Zn1595  1.953   .     S
O1591  Zn1596  1.953   .     S
O1592  Zn1595  1.951   .     S
O1593  Zn1596  1.951   .     S
C1597  O1673   1.300   .     A
C1597  O1667   1.282   .     A
C1597  C1600   1.429   .     S
C1598  O1670   1.381   .     S
C1598  C1600   1.405   .     A
C1599  C1624   1.415   .     A
C1599  C1608   1.441   .     S
C1599  C1623   1.417   .     A
C1600  C1622   1.395   .     A
C1601  N1663   1.431   .     S
C1601  N1662   1.366   .     A
C1601  C2108   1.421   1_545 S
C1602  N1661   1.363   .     A
C1602  N1664   1.427   .     S
C1602  C1855   1.435   .     S
C1603  N1665   1.427   .     S
C1603  N1662   1.372   .     A
C1603  C2106   1.435   1_545 S
C1604  N1661   1.380   .     A
C1604  N1666   1.429   .     S
C1604  C1853   1.421   .     S
C1605  C1606   1.536   .     S
C1605  H1625   1.108   .     S
C1605  O1678   1.423   .     S
C1605  H1636   1.116   .     S
C1607  H1658   1.111   .     S
C1607  H1656   1.110   .     S
C1607  C94     1.525   1_556 S
C1608  O1672   1.292   .     A
C1608  O1671   1.297   .     A
C1609  C1610   1.535   .     S
C1609  H1659   1.111   .     S
C1609  O1668   1.421   .     S
C1609  H1660   1.116   .     S
C1610  C1611   1.525   .     S
C1610  H1710   1.106   .     S
C1610  H1711   1.111   .     S
C1611  H1630   1.111   .     S
C1611  H1964   1.109   .     S
C1611  H1881   1.111   .     S
C1612  H1631   1.110   .     S
C1612  C1613   1.537   .     S
C1612  O1669   1.419   .     S
C1612  H1632   1.112   .     S
C1613  C1614   1.526   .     S
C1613  H1717   1.107   .     S
C1613  H1718   1.108   .     S
C1614  H1635   1.110   .     S
C1614  H1721   1.107   .     S
C1614  H2142   1.110   1_545 S
C1615  C1616   1.523   .     S
C1615  H1639   1.116   .     S
C1615  H1640   1.113   .     S
C1615  O1670   1.409   .     S
C1616  H1641   1.106   .     S
C1616  C1617   1.520   .     S
C1616  H1642   1.109   .     S
C1617  H1645   1.111   .     S
C1617  H1644   1.110   .     S
C1617  H1643   1.109   .     S
C1618  O1677   1.284   .     A
C1618  O1674   1.284   .     A
C1618  C1620   1.369   .     S
C1619  O1676   1.283   .     A
C1619  C1621   1.369   .     S
C1619  O1675   1.284   .     A
C1621  C108    1.167   1_556 S
C1622  O1678   1.385   .     S
C1623  O1668   1.386   .     S
C1623  C1682   1.376   .     S
C1624  O1669   1.383   .     S
C1624  C1706   1.377   .     S
H1628  C2031   1.109   1_545 S
H1629  C2115   1.111   1_545 S
H1638  C1866   1.110   .     S
H1646  N1663   1.043   .     S
H1647  C1690   1.109   .     S
H1648  N1663   1.046   .     S
H1649  N1664   1.043   .     S
H1650  N1664   1.045   .     S
H1651  N1665   1.044   .     S
H1652  N1665   1.045   .     S
H1653  N1666   1.041   .     S
H1654  N1666   1.043   .     S
H1655  C1690   1.110   .     S
H1657  C1691   1.111   .     S
N1661  Zn1679  2.028   .     S
N1662  Zn1680  2.028   .     S
O1667  Zn1679  2.015   .     S
O1671  Zn1680  2.015   .     S
O1672  Zn1679  2.014   .     S
O1673  Zn1680  2.014   .     S
O1674  Zn1679  1.953   .     S
O1675  Zn1680  1.953   .     S
O1676  Zn1679  1.951   .     S
O1677  Zn1680  1.951   .     S
C1681  O1757   1.300   .     A
C1681  O1751   1.282   .     A
C1681  C1684   1.429   .     S
C1682  O1754   1.381   .     S
C1682  C1684   1.405   .     A
C1683  C1708   1.415   .     A
C1683  C1692   1.441   .     S
C1683  C1707   1.417   .     A
C1684  C1706   1.395   .     A
C1685  N1747   1.431   .     S
C1685  N1746   1.366   .     A
C1685  C2192   1.421   1_545 S
C1686  N1745   1.363   .     A
C1686  N1748   1.427   .     S
C1686  C1939   1.435   .     S
C1687  N1749   1.427   .     S
C1687  N1746   1.372   .     A
C1687  C2190   1.435   1_545 S
C1688  N1745   1.380   .     A
C1688  N1750   1.429   .     S
C1688  C1937   1.421   .     S
C1689  C1690   1.536   .     S
C1689  H1709   1.108   .     S
C1689  O1762   1.423   .     S
C1689  H1720   1.116   .     S
C1691  H1742   1.111   .     S
C1691  H1740   1.110   .     S
C1691  C178    1.525   1_556 S
C1692  O1756   1.292   .     A
C1692  O1755   1.297   .     A
C1693  C1694   1.535   .     S
C1693  H1743   1.111   .     S
C1693  O1752   1.421   .     S
C1693  H1744   1.116   .     S
C1694  C1695   1.525   .     S
C1694  H1542   1.106   1_655 S
C1694  H1543   1.111   1_655 S
C1695  H1714   1.111   .     S
C1695  H1796   1.109   1_655 S
C1695  H1965   1.111   .     S
C1696  H1715   1.110   .     S
C1696  C1697   1.537   .     S
C1696  O1753   1.419   .     S
C1696  H1716   1.112   .     S
C1697  C1698   1.526   .     S
C1697  H1549   1.107   1_655 S
C1697  H1550   1.108   1_655 S
C1698  H1719   1.110   .     S
C1698  H1553   1.107   1_655 S
C1698  H2226   1.110   1_545 S
C1699  C1700   1.523   .     S
C1699  H1723   1.116   .     S
C1699  H1724   1.113   .     S
C1699  O1754   1.409   .     S
C1700  H1725   1.106   .     S
C1700  C1701   1.520   .     S
C1700  H1726   1.109   .     S
C1701  H1729   1.111   .     S
C1701  H1728   1.110   .     S
C1701  H1727   1.109   .     S
C1702  O1761   1.284   .     A
C1702  O1758   1.284   .     A
C1702  C1704   1.369   .     S
C1703  O1760   1.283   .     A
C1703  C1705   1.369   .     S
C1703  O1759   1.284   .     A
C1705  C192    1.167   1_556 S
C1706  O1762   1.385   .     S
C1707  O1752   1.386   .     S
C1707  C1514   1.376   1_655 S
C1708  O1753   1.383   .     S
C1708  C1538   1.377   1_655 S
H1712  C2115   1.109   1_545 S
H1713  C2199   1.111   1_545 S
H1722  C1950   1.110   .     S
H1730  N1747   1.043   .     S
H1731  C1522   1.109   1_655 S
H1732  N1747   1.046   .     S
H1733  N1748   1.043   .     S
H1734  N1748   1.045   .     S
H1735  N1749   1.044   .     S
H1736  N1749   1.045   .     S
H1737  N1750   1.041   .     S
H1738  N1750   1.043   .     S
H1739  C1522   1.110   1_655 S
H1741  C1523   1.111   1_655 S
N1745  Zn1763  2.028   .     S
N1746  Zn1764  2.028   .     S
O1751  Zn1763  2.015   .     S
O1755  Zn1764  2.015   .     S
O1756  Zn1763  2.014   .     S
O1757  Zn1764  2.014   .     S
O1758  Zn1763  1.953   .     S
O1759  Zn1764  1.953   .     S
O1760  Zn1763  1.951   .     S
O1761  Zn1764  1.951   .     S
C1765  O1841   1.300   .     A
C1765  O1835   1.282   .     A
C1765  C1768   1.429   .     S
C1766  O1838   1.381   .     S
C1766  C1768   1.405   .     A
C1766  C1959   1.376   1_455 S
C1767  C1792   1.415   .     A
C1767  C1776   1.441   .     S
C1767  C1791   1.417   .     A
C1768  C1790   1.395   .     A
C1769  N1831   1.431   .     S
C1769  N1830   1.366   .     A
C1770  N1829   1.363   .     A
C1770  N1832   1.427   .     S
C1770  C2023   1.435   .     S
C1771  N1833   1.427   .     S
C1771  N1830   1.372   .     A
C1772  N1829   1.380   .     A
C1772  N1834   1.429   .     S
C1772  C2021   1.421   .     S
C1773  C1774   1.536   .     S
C1773  H1793   1.108   .     S
C1773  O1846   1.423   .     S
C1773  H1804   1.116   .     S
C1774  H1983   1.109   1_455 S
C1774  H1991   1.110   1_455 S
C1775  H1826   1.111   .     S
C1775  H1824   1.110   .     S
C1775  C262    1.525   1_556 S
C1775  H1993   1.111   1_455 S
C1776  O1840   1.292   .     A
C1776  O1839   1.297   .     A
C1777  C1778   1.535   .     S
C1777  H1827   1.111   .     S
C1777  O1836   1.421   .     S
C1777  H1828   1.116   .     S
C1778  C1779   1.525   .     S
C1778  H1878   1.106   .     S
C1778  H1879   1.111   .     S
C1779  H1798   1.111   .     S
C1779  H2132   1.109   .     S
C1779  H2049   1.111   .     S
C1780  H1799   1.110   .     S
C1780  C1781   1.537   .     S
C1780  O1837   1.419   .     S
C1780  H1800   1.112   .     S
C1781  C1782   1.526   .     S
C1781  H1885   1.107   .     S
C1781  H1886   1.108   .     S
C1782  H1803   1.110   .     S
C1782  H1889   1.107   .     S
C1783  C1784   1.523   .     S
C1783  H1807   1.116   .     S
C1783  H1808   1.113   .     S
C1783  O1838   1.409   .     S
C1784  H1809   1.106   .     S
C1784  C1785   1.520   .     S
C1784  H1810   1.109   .     S
C1785  H1813   1.111   .     S
C1785  H1812   1.110   .     S
C1785  H1811   1.109   .     S
C1786  O1845   1.284   .     A
C1786  O1842   1.284   .     A
C1786  C1788   1.369   .     S
C1787  O1844   1.283   .     A
C1787  C1789   1.369   .     S
C1787  O1843   1.284   .     A
C1789  C276    1.167   1_556 S
C1790  O1846   1.385   .     S
C1790  C1960   1.377   1_455 S
C1791  O1836   1.386   .     S
C1791  C1850   1.376   .     S
C1792  O1837   1.383   .     S
C1792  C1874   1.377   .     S
H1794  C1946   1.106   1_455 S
H1795  C1946   1.111   1_455 S
H1796  C1695   1.109   1_455 S
H1801  C1949   1.107   1_455 S
H1802  C1949   1.108   1_455 S
H1805  C1950   1.107   1_455 S
H1806  C2034   1.110   .     S
H1814  N1831   1.043   .     S
H1815  C1858   1.109   .     S
H1816  N1831   1.046   .     S
H1817  N1832   1.043   .     S
H1818  N1832   1.045   .     S
H1819  N1833   1.044   .     S
H1820  N1833   1.045   .     S
H1821  N1834   1.041   .     S
H1822  N1834   1.043   .     S
H1823  C1858   1.110   .     S
H1825  C1859   1.111   .     S
N1829  Zn1847  2.028   .     S
N1830  Zn1848  2.028   .     S
O1835  Zn1847  2.015   .     S
O1839  Zn1848  2.015   .     S
O1840  Zn1847  2.014   .     S
O1841  Zn1848  2.014   .     S
O1842  Zn1847  1.953   .     S
O1843  Zn1848  1.953   .     S
O1844  Zn1847  1.951   .     S
O1845  Zn1848  1.951   .     S
C1849  O1925   1.300   .     A
C1849  O1919   1.282   .     A
C1849  C1852   1.429   .     S
C1850  O1922   1.381   .     S
C1850  C1852   1.405   .     A
C1851  C1876   1.415   .     A
C1851  C1860   1.441   .     S
C1851  C1875   1.417   .     A
C1852  C1874   1.395   .     A
C1853  N1915   1.431   .     S
C1853  N1914   1.366   .     A
C1854  N1913   1.363   .     A
C1854  N1916   1.427   .     S
C1854  C2107   1.435   .     S
C1855  N1917   1.427   .     S
C1855  N1914   1.372   .     A
C1856  N1913   1.380   .     A
C1856  N1918   1.429   .     S
C1856  C2105   1.421   .     S
C1857  C1858   1.536   .     S
C1857  H1877   1.108   .     S
C1857  O1930   1.423   .     S
C1857  H1888   1.116   .     S
C1859  H1910   1.111   .     S
C1859  H1908   1.110   .     S
C1859  C346    1.525   1_556 S
C1860  O1924   1.292   .     A
C1860  O1923   1.297   .     A
C1861  C1862   1.535   .     S
C1861  H1911   1.111   .     S
C1861  O1920   1.421   .     S
C1861  H1912   1.116   .     S
C1862  C1863   1.525   .     S
C1862  H1962   1.106   .     S
C1862  H1963   1.111   .     S
C1863  H1882   1.111   .     S
C1863  H2216   1.109   .     S
C1863  H2133   1.111   .     S
C1864  H1883   1.110   .     S
C1864  C1865   1.537   .     S
C1864  O1921   1.419   .     S
C1864  H1884   1.112   .     S
C1865  C1866   1.526   .     S
C1865  H1969   1.107   .     S
C1865  H1970   1.108   .     S
C1866  H1887   1.110   .     S
C1866  H1973   1.107   .     S
C1867  C1868   1.523   .     S
C1867  H1891   1.116   .     S
C1867  H1892   1.113   .     S
C1867  O1922   1.409   .     S
C1868  H1893   1.106   .     S
C1868  C1869   1.520   .     S
C1868  H1894   1.109   .     S
C1869  H1897   1.111   .     S
C1869  H1896   1.110   .     S
C1869  H1895   1.109   .     S
C1870  O1929   1.284   .     A
C1870  O1926   1.284   .     A
C1870  C1872   1.369   .     S
C1871  O1928   1.283   .     A
C1871  C1873   1.369   .     S
C1871  O1927   1.284   .     A
C1873  C360    1.167   1_556 S
C1874  O1930   1.385   .     S
C1875  O1920   1.386   .     S
C1875  C1934   1.376   .     S
C1876  O1921   1.383   .     S
C1876  C1958   1.377   .     S
H1890  C2118   1.110   .     S
H1898  N1915   1.043   .     S
H1899  C1942   1.109   .     S
H1900  N1915   1.046   .     S
H1901  N1916   1.043   .     S
H1902  N1916   1.045   .     S
H1903  N1917   1.044   .     S
H1904  N1917   1.045   .     S
H1905  N1918   1.041   .     S
H1906  N1918   1.043   .     S
H1907  C1942   1.110   .     S
H1909  C1943   1.111   .     S
N1913  Zn1931  2.028   .     S
N1914  Zn1932  2.028   .     S
O1919  Zn1931  2.015   .     S
O1923  Zn1932  2.015   .     S
O1924  Zn1931  2.014   .     S
O1925  Zn1932  2.014   .     S
O1926  Zn1931  1.953   .     S
O1927  Zn1932  1.953   .     S
O1928  Zn1931  1.951   .     S
O1929  Zn1932  1.951   .     S
C1933  O2009   1.300   .     A
C1933  O2003   1.282   .     A
C1933  C1936   1.429   .     S
C1934  O2006   1.381   .     S
C1934  C1936   1.405   .     A
C1935  C1960   1.415   .     A
C1935  C1944   1.441   .     S
C1935  C1959   1.417   .     A
C1936  C1958   1.395   .     A
C1937  N1999   1.431   .     S
C1937  N1998   1.366   .     A
C1938  N1997   1.363   .     A
C1938  N2000   1.427   .     S
C1938  C2191   1.435   .     S
C1939  N2001   1.427   .     S
C1939  N1998   1.372   .     A
C1940  N1997   1.380   .     A
C1940  N2002   1.429   .     S
C1940  C2189   1.421   .     S
C1941  C1942   1.536   .     S
C1941  H1961   1.108   .     S
C1941  O2014   1.423   .     S
C1941  H1972   1.116   .     S
C1943  H1994   1.111   .     S
C1943  H1992   1.110   .     S
C1943  C430    1.525   1_556 S
C1944  O2008   1.292   .     A
C1944  O2007   1.297   .     A
C1945  C1946   1.535   .     S
C1945  H1995   1.111   .     S
C1945  O2004   1.421   .     S
C1945  H1996   1.116   .     S
C1946  C1947   1.525   .     S
C1946  H1794   1.106   1_655 S
C1946  H1795   1.111   1_655 S
C1947  H1966   1.111   .     S
C1947  H2048   1.109   1_655 S
C1947  H2217   1.111   .     S
C1948  H1967   1.110   .     S
C1948  C1949   1.537   .     S
C1948  O2005   1.419   .     S
C1948  H1968   1.112   .     S
C1949  C1950   1.526   .     S
C1949  H1801   1.107   1_655 S
C1949  H1802   1.108   1_655 S
C1950  H1971   1.110   .     S
C1950  H1805   1.107   1_655 S
C1951  C1952   1.523   .     S
C1951  H1975   1.116   .     S
C1951  H1976   1.113   .     S
C1951  O2006   1.409   .     S
C1952  H1977   1.106   .     S
C1952  C1953   1.520   .     S
C1952  H1978   1.109   .     S
C1953  H1981   1.111   .     S
C1953  H1980   1.110   .     S
C1953  H1979   1.109   .     S
C1954  O2013   1.284   .     A
C1954  O2010   1.284   .     A
C1954  C1956   1.369   .     S
C1955  O2012   1.283   .     A
C1955  C1957   1.369   .     S
C1955  O2011   1.284   .     A
C1957  C444    1.167   1_556 S
C1958  O2014   1.385   .     S
C1959  O2004   1.386   .     S
C1959  C1766   1.376   1_655 S
C1960  O2005   1.383   .     S
C1960  C1790   1.377   1_655 S
H1974  C2202   1.110   .     S
H1982  N1999   1.043   .     S
H1983  C1774   1.109   1_655 S
H1984  N1999   1.046   .     S
H1985  N2000   1.043   .     S
H1986  N2000   1.045   .     S
H1987  N2001   1.044   .     S
H1988  N2001   1.045   .     S
H1989  N2002   1.041   .     S
H1990  N2002   1.043   .     S
H1991  C1774   1.110   1_655 S
H1993  C1775   1.111   1_655 S
N1997  Zn2015  2.028   .     S
N1998  Zn2016  2.028   .     S
O2003  Zn2015  2.015   .     S
O2007  Zn2016  2.015   .     S
O2008  Zn2015  2.014   .     S
O2009  Zn2016  2.014   .     S
O2010  Zn2015  1.953   .     S
O2011  Zn2016  1.953   .     S
O2012  Zn2015  1.951   .     S
O2013  Zn2016  1.951   .     S
C2017  O2093   1.300   .     A
C2017  O2087   1.282   .     A
C2017  C2020   1.429   .     S
C2018  O2090   1.381   .     S
C2018  C2020   1.405   .     A
C2018  C2211   1.376   1_455 S
C2019  C2044   1.415   .     A
C2019  C2028   1.441   .     S
C2019  C2043   1.417   .     A
C2020  C2042   1.395   .     A
C2021  N2083   1.431   .     S
C2021  N2082   1.366   .     A
C2022  N2081   1.363   .     A
C2022  N2084   1.427   .     S
C2022  C1519   1.435   1_565 S
C2023  N2085   1.427   .     S
C2023  N2082   1.372   .     A
C2024  N2081   1.380   .     A
C2024  N2086   1.429   .     S
C2024  C1517   1.421   1_565 S
C2025  C2026   1.536   .     S
C2025  H2045   1.108   .     S
C2025  O2098   1.423   .     S
C2025  H2056   1.116   .     S
C2026  H2235   1.109   1_455 S
C2026  H2243   1.110   1_455 S
C2027  H2078   1.111   .     S
C2027  H2076   1.110   .     S
C2027  C514    1.525   1_556 S
C2027  H2245   1.111   1_455 S
C2028  O2092   1.292   .     A
C2028  O2091   1.297   .     A
C2029  C2030   1.535   .     S
C2029  H2079   1.111   .     S
C2029  O2088   1.421   .     S
C2029  H2080   1.116   .     S
C2030  C2031   1.525   .     S
C2030  H2130   1.106   .     S
C2030  H2131   1.111   .     S
C2031  H2050   1.111   .     S
C2031  H1628   1.109   1_565 S
C2031  H1545   1.111   1_565 S
C2032  H2051   1.110   .     S
C2032  C2033   1.537   .     S
C2032  O2089   1.419   .     S
C2032  H2052   1.112   .     S
C2033  C2034   1.526   .     S
C2033  H2137   1.107   .     S
C2033  H2138   1.108   .     S
C2034  H2055   1.110   .     S
C2034  H2141   1.107   .     S
C2035  C2036   1.523   .     S
C2035  H2059   1.116   .     S
C2035  H2060   1.113   .     S
C2035  O2090   1.409   .     S
C2036  H2061   1.106   .     S
C2036  C2037   1.520   .     S
C2036  H2062   1.109   .     S
C2037  H2065   1.111   .     S
C2037  H2064   1.110   .     S
C2037  H2063   1.109   .     S
C2038  O2097   1.284   .     A
C2038  O2094   1.284   .     A
C2038  C2040   1.369   .     S
C2039  O2096   1.283   .     A
C2039  C2041   1.369   .     S
C2039  O2095   1.284   .     A
C2041  C528    1.167   1_556 S
C2042  O2098   1.385   .     S
C2042  C2212   1.377   1_455 S
C2043  O2088   1.386   .     S
C2043  C2102   1.376   .     S
C2044  O2089   1.383   .     S
C2044  C2126   1.377   .     S
H2046  C2198   1.106   1_455 S
H2047  C2198   1.111   1_455 S
H2048  C1947   1.109   1_455 S
H2053  C2201   1.107   1_455 S
H2054  C2201   1.108   1_455 S
H2057  C2202   1.107   1_455 S
H2058  C1530   1.110   1_565 S
H2066  N2083   1.043   .     S
H2067  C2110   1.109   .     S
H2068  N2083   1.046   .     S
H2069  N2084   1.043   .     S
H2070  N2084   1.045   .     S
H2071  N2085   1.044   .     S
H2072  N2085   1.045   .     S
H2073  N2086   1.041   .     S
H2074  N2086   1.043   .     S
H2075  C2110   1.110   .     S
H2077  C2111   1.111   .     S
N2081  Zn2099  2.028   .     S
N2082  Zn2100  2.028   .     S
O2087  Zn2099  2.015   .     S
O2091  Zn2100  2.015   .     S
O2092  Zn2099  2.014   .     S
O2093  Zn2100  2.014   .     S
O2094  Zn2099  1.953   .     S
O2095  Zn2100  1.953   .     S
O2096  Zn2099  1.951   .     S
O2097  Zn2100  1.951   .     S
C2101  O2177   1.300   .     A
C2101  O2171   1.282   .     A
C2101  C2104   1.429   .     S
C2102  O2174   1.381   .     S
C2102  C2104   1.405   .     A
C2103  C2128   1.415   .     A
C2103  C2112   1.441   .     S
C2103  C2127   1.417   .     A
C2104  C2126   1.395   .     A
C2105  N2167   1.431   .     S
C2105  N2166   1.366   .     A
C2106  N2165   1.363   .     A
C2106  N2168   1.427   .     S
C2106  C1603   1.435   1_565 S
C2107  N2169   1.427   .     S
C2107  N2166   1.372   .     A
C2108  N2165   1.380   .     A
C2108  N2170   1.429   .     S
C2108  C1601   1.421   1_565 S
C2109  C2110   1.536   .     S
C2109  H2129   1.108   .     S
C2109  O2182   1.423   .     S
C2109  H2140   1.116   .     S
C2111  H2162   1.111   .     S
C2111  H2160   1.110   .     S
C2111  C598    1.525   1_556 S
C2112  O2176   1.292   .     A
C2112  O2175   1.297   .     A
C2113  C2114   1.535   .     S
C2113  H2163   1.111   .     S
C2113  O2172   1.421   .     S
C2113  H2164   1.116   .     S
C2114  C2115   1.525   .     S
C2114  H2214   1.106   .     S
C2114  H2215   1.111   .     S
C2115  H2134   1.111   .     S
C2115  H1712   1.109   1_565 S
C2115  H1629   1.111   1_565 S
C2116  H2135   1.110   .     S
C2116  C2117   1.537   .     S
C2116  O2173   1.419   .     S
C2116  H2136   1.112   .     S
C2117  C2118   1.526   .     S
C2117  H2221   1.107   .     S
C2117  H2222   1.108   .     S
C2118  H2139   1.110   .     S
C2118  H2225   1.107   .     S
C2119  C2120   1.523   .     S
C2119  H2143   1.116   .     S
C2119  H2144   1.113   .     S
C2119  O2174   1.409   .     S
C2120  H2145   1.106   .     S
C2120  C2121   1.520   .     S
C2120  H2146   1.109   .     S
C2121  H2149   1.111   .     S
C2121  H2148   1.110   .     S
C2121  H2147   1.109   .     S
C2122  O2181   1.284   .     A
C2122  O2178   1.284   .     A
C2122  C2124   1.369   .     S
C2123  O2180   1.283   .     A
C2123  C2125   1.369   .     S
C2123  O2179   1.284   .     A
C2125  C612    1.167   1_556 S
C2126  O2182   1.385   .     S
C2127  O2172   1.386   .     S
C2127  C2186   1.376   .     S
C2128  O2173   1.383   .     S
C2128  C2210   1.377   .     S
H2142  C1614   1.110   1_565 S
H2150  N2167   1.043   .     S
H2151  C2194   1.109   .     S
H2152  N2167   1.046   .     S
H2153  N2168   1.043   .     S
H2154  N2168   1.045   .     S
H2155  N2169   1.044   .     S
H2156  N2169   1.045   .     S
H2157  N2170   1.041   .     S
H2158  N2170   1.043   .     S
H2159  C2194   1.110   .     S
H2161  C2195   1.111   .     S
N2165  Zn2183  2.028   .     S
N2166  Zn2184  2.028   .     S
O2171  Zn2183  2.015   .     S
O2175  Zn2184  2.015   .     S
O2176  Zn2183  2.014   .     S
O2177  Zn2184  2.014   .     S
O2178  Zn2183  1.953   .     S
O2179  Zn2184  1.953   .     S
O2180  Zn2183  1.951   .     S
O2181  Zn2184  1.951   .     S
C2185  O2261   1.300   .     A
C2185  O2255   1.282   .     A
C2185  C2188   1.429   .     S
C2186  O2258   1.381   .     S
C2186  C2188   1.405   .     A
C2187  C2212   1.415   .     A
C2187  C2196   1.441   .     S
C2187  C2211   1.417   .     A
C2188  C2210   1.395   .     A
C2189  N2251   1.431   .     S
C2189  N2250   1.366   .     A
C2190  N2249   1.363   .     A
C2190  N2252   1.427   .     S
C2190  C1687   1.435   1_565 S
C2191  N2253   1.427   .     S
C2191  N2250   1.372   .     A
C2192  N2249   1.380   .     A
C2192  N2254   1.429   .     S
C2192  C1685   1.421   1_565 S
C2193  C2194   1.536   .     S
C2193  H2213   1.108   .     S
C2193  O2266   1.423   .     S
C2193  H2224   1.116   .     S
C2195  H2246   1.111   .     S
C2195  H2244   1.110   .     S
C2195  C682    1.525   1_556 S
C2196  O2260   1.292   .     A
C2196  O2259   1.297   .     A
C2197  C2198   1.535   .     S
C2197  H2247   1.111   .     S
C2197  O2256   1.421   .     S
C2197  H2248   1.116   .     S
C2198  C2199   1.525   .     S
C2198  H2046   1.106   1_655 S
C2198  H2047   1.111   1_655 S
C2199  H2218   1.111   .     S
C2199  H1544   1.109   1_665 S
C2199  H1713   1.111   1_565 S
C2200  H2219   1.110   .     S
C2200  C2201   1.537   .     S
C2200  O2257   1.419   .     S
C2200  H2220   1.112   .     S
C2201  C2202   1.526   .     S
C2201  H2053   1.107   1_655 S
C2201  H2054   1.108   1_655 S
C2202  H2223   1.110   .     S
C2202  H2057   1.107   1_655 S
C2203  C2204   1.523   .     S
C2203  H2227   1.116   .     S
C2203  H2228   1.113   .     S
C2203  O2258   1.409   .     S
C2204  H2229   1.106   .     S
C2204  C2205   1.520   .     S
C2204  H2230   1.109   .     S
C2205  H2233   1.111   .     S
C2205  H2232   1.110   .     S
C2205  H2231   1.109   .     S
C2206  O2265   1.284   .     A
C2206  O2262   1.284   .     A
C2206  C2208   1.369   .     S
C2207  O2264   1.283   .     A
C2207  C2209   1.369   .     S
C2207  O2263   1.284   .     A
C2209  C696    1.167   1_556 S
C2210  O2266   1.385   .     S
C2211  O2256   1.386   .     S
C2211  C2018   1.376   1_655 S
C2212  O2257   1.383   .     S
C2212  C2042   1.377   1_655 S
H2226  C1698   1.110   1_565 S
H2234  N2251   1.043   .     S
H2235  C2026   1.109   1_655 S
H2236  N2251   1.046   .     S
H2237  N2252   1.043   .     S
H2238  N2252   1.045   .     S
H2239  N2253   1.044   .     S
H2240  N2253   1.045   .     S
H2241  N2254   1.041   .     S
H2242  N2254   1.043   .     S
H2243  C2026   1.110   1_655 S
H2245  C2027   1.111   1_655 S
N2249  Zn2267  2.028   .     S
N2250  Zn2268  2.028   .     S
O2255  Zn2267  2.015   .     S
O2259  Zn2268  2.015   .     S
O2260  Zn2267  2.014   .     S
O2261  Zn2268  2.014   .     S
O2262  Zn2267  1.953   .     S
O2263  Zn2268  1.953   .     S
O2264  Zn2267  1.951   .     S
O2265  Zn2268  1.951   .     S
