data_str_m3_o2_o10_pcu_sym.94
_audit_creation_date              2020-01-03
_audit_creation_method            'Materials Studio'
_symmetry_space_group_name_H-M    'P1'
_symmetry_Int_Tables_number       1
_symmetry_cell_setting            triclinic
loop_
_symmetry_equiv_pos_as_xyz
  x,y,z
_cell_length_a                    25.7788
_cell_length_b                    29.7619
_cell_length_c                    28.6412
_cell_angle_alpha                 90.1125
_cell_angle_beta                  96.4597
_cell_angle_gamma                 91.5663
loop_
_atom_site_label
_atom_site_type_symbol
_atom_site_fract_x
_atom_site_fract_y
_atom_site_fract_z
_atom_site_U_iso_or_equiv
_atom_site_adp_type
_atom_site_occupancy
C1     C     0.16722   0.16392   0.24995   0.00000  Uiso   1.00
C2     C     0.14172   0.21761   0.44618   0.00000  Uiso   1.00
C3     C     0.15935   0.25554   0.02585   0.00000  Uiso   1.00
C4     C     0.15942   0.25573   0.47264   0.00000  Uiso   1.00
C5     C     0.06767   0.25179   0.23865   0.00000  Uiso   1.00
C6     C     0.26576   0.24849   0.26158   0.00000  Uiso   1.00
C7     C     0.01443   0.26186   0.23615   0.00000  Uiso   1.00
C8     C     0.31950   0.23979   0.26542   0.00000  Uiso   1.00
C9     C     0.15646   0.04361   0.28135   0.00000  Uiso   1.00
C10    C     0.17161   0.45514   0.21038   0.00000  Uiso   1.00
C11    C     0.14801   0.08917   0.28007   0.00000  Uiso   1.00
C12    C     0.16793   0.33626   0.25015   0.00000  Uiso   1.00
C13    C     0.16307   0.40911   0.20978   0.00000  Uiso   1.00
C14    C     0.17419   0.11625   0.25021   0.00000  Uiso   1.00
C15    C     0.17546   0.38454   0.25086   0.00000  Uiso   1.00
C16    C     0.20929   0.09810   0.22190   0.00000  Uiso   1.00
C17    C     0.19840   0.40589   0.29199   0.00000  Uiso   1.00
C18    C     0.21893   0.05250   0.22341   0.00000  Uiso   1.00
C19    C     0.20830   0.45185   0.29281   0.00000  Uiso   1.00
C20    C     0.19153   0.02511   0.25317   0.00000  Uiso   1.00
C21    C     0.19336   0.47666   0.25176   0.00000  Uiso   1.00
C22    C     0.25317   0.29053   0.13150   0.00000  Uiso   1.00
C23    C     0.11771   0.23720   0.04891   0.00000  Uiso   1.00
C24    C     0.11912   0.17509   0.37172   0.00000  Uiso   1.00
C25    C     0.18069   0.29178   0.44785   0.00000  Uiso   1.00
C26    C     0.12385   0.23194   0.09838   0.00000  Uiso   1.00
C27    C     0.18726   0.28676   0.39971   0.00000  Uiso   1.00
C28    C     0.20588   0.27020   0.10414   0.00000  Uiso   1.00
C29    C     0.14310   0.21589   0.39704   0.00000  Uiso   1.00
C30    C     0.20366   0.27106   0.05468   0.00000  Uiso   1.00
H31    H     0.13464   0.02244   0.30343   0.00000  Uiso   1.00
H32    H     0.31159   0.19121   0.31000   0.00000  Uiso   1.00
H33    H     0.26341   0.00520   0.20470   0.00000  Uiso   1.00
H34    H     0.24352   0.00214   0.32816   0.00000  Uiso   1.00
H35    H     0.06542   0.24009   0.49476   0.00000  Uiso   1.00
H36    H     0.17637   0.33667   0.49639   0.00000  Uiso   1.00
H37    H     0.10159   0.19246   0.14519   0.00000  Uiso   1.00
H38    H     0.23219   0.30667   0.35473   0.00000  Uiso   1.00
H39    H     0.24179   0.31204   0.16002   0.00000  Uiso   1.00
H40    H     0.27853   0.26283   0.14479   0.00000  Uiso   1.00
H41    H     0.27608   0.31228   0.10936   0.00000  Uiso   1.00
H42    H     0.15947   0.47429   0.17908   0.00000  Uiso   1.00
H43    H     0.09511   0.18474   0.33908   0.00000  Uiso   1.00
H44    H     0.15054   0.15219   0.36468   0.00000  Uiso   1.00
H45    H     0.09268   0.15620   0.39322   0.00000  Uiso   1.00
H46    H     0.12014   0.10303   0.30133   0.00000  Uiso   1.00
H47    H     0.14572   0.39292   0.17763   0.00000  Uiso   1.00
H48    H     0.23020   0.11958   0.19940   0.00000  Uiso   1.00
H49    H     0.20960   0.38690   0.32345   0.00000  Uiso   1.00
H50    H     0.23704   0.28406   0.03859   0.00000  Uiso   1.00
H51    H     0.12656   0.18879   0.46390   0.00000  Uiso   1.00
H52    H     0.02410   0.31327   0.19569   0.00000  Uiso   1.00
N53    N     0.16667   0.24999   0.12623   0.00000  Uiso   1.00
N54    N     0.16667   0.25001   0.37376   0.00000  Uiso   1.00
O55    O     0.16667   0.18454   0.28974   0.00000  Uiso   1.00
O56    O     0.00652   0.20521   0.29367   0.00000  Uiso   1.00
O57    O     0.25489   0.03643   0.19565   0.00000  Uiso   1.00
O58    O     0.23160   0.47102   0.33419   0.00000  Uiso   1.00
O59    O     0.07048   0.22356   0.02482   0.00000  Uiso   1.00
O60    O     0.19607   0.33244   0.46903   0.00000  Uiso   1.00
O61    O     0.08496   0.20838   0.11755   0.00000  Uiso   1.00
O62    O     0.21467   0.32042   0.37981   0.00000  Uiso   1.00
O63    O     0.16666   0.31546   0.21026   0.00000  Uiso   1.00
O64    O     0.16667   0.18453   0.21026   0.00000  Uiso   1.00
O65    O     0.16666   0.31547   0.28974   0.00000  Uiso   1.00
O66    O     0.09058   0.25000   0.28044   0.00000  Uiso   1.00
O67    O     0.24275   0.25000   0.21955   0.00000  Uiso   1.00
O68    O     0.09058   0.24999   0.20096   0.00000  Uiso   1.00
O69    O     0.24275   0.25001   0.29903   0.00000  Uiso   1.00
O70    O     0.32923   0.29970   0.21245   0.00000  Uiso   1.00
Zn71   Zn    0.16667   0.25001   0.30307   0.00000  Uiso   1.00
Zn72   Zn    0.16667   0.25000   0.19693   0.00000  Uiso   1.00
C73    C     0.50056   0.16392   0.24995   0.00000  Uiso   1.00
C74    C     0.47505   0.21761   0.44618   0.00000  Uiso   1.00
C75    C     0.49268   0.25554   0.02585   0.00000  Uiso   1.00
C76    C     0.49276   0.25573   0.47264   0.00000  Uiso   1.00
C77    C     0.40100   0.25179   0.23865   0.00000  Uiso   1.00
C78    C     0.59910   0.24849   0.26158   0.00000  Uiso   1.00
C79    C     0.34776   0.26186   0.23615   0.00000  Uiso   1.00
C80    C     0.65283   0.23979   0.26542   0.00000  Uiso   1.00
C81    C     0.48979   0.04361   0.28135   0.00000  Uiso   1.00
C82    C     0.50494   0.45514   0.21038   0.00000  Uiso   1.00
C83    C     0.48134   0.08917   0.28007   0.00000  Uiso   1.00
C84    C     0.50127   0.33626   0.25015   0.00000  Uiso   1.00
C85    C     0.49640   0.40911   0.20978   0.00000  Uiso   1.00
C86    C     0.50752   0.11625   0.25021   0.00000  Uiso   1.00
C87    C     0.50880   0.38454   0.25086   0.00000  Uiso   1.00
C88    C     0.54262   0.09810   0.22190   0.00000  Uiso   1.00
C89    C     0.53173   0.40589   0.29199   0.00000  Uiso   1.00
C90    C     0.55226   0.05250   0.22341   0.00000  Uiso   1.00
C91    C     0.54163   0.45185   0.29281   0.00000  Uiso   1.00
C92    C     0.52486   0.02511   0.25317   0.00000  Uiso   1.00
C93    C     0.52669   0.47666   0.25176   0.00000  Uiso   1.00
C94    C     0.58650   0.29053   0.13150   0.00000  Uiso   1.00
C95    C     0.45105   0.23720   0.04891   0.00000  Uiso   1.00
C96    C     0.45245   0.17509   0.37172   0.00000  Uiso   1.00
C97    C     0.51402   0.29178   0.44785   0.00000  Uiso   1.00
C98    C     0.45719   0.23194   0.09838   0.00000  Uiso   1.00
C99    C     0.52059   0.28676   0.39971   0.00000  Uiso   1.00
C100   C     0.53921   0.27020   0.10414   0.00000  Uiso   1.00
C101   C     0.47643   0.21589   0.39704   0.00000  Uiso   1.00
C102   C     0.53700   0.27106   0.05468   0.00000  Uiso   1.00
H103   H     0.46798   0.02244   0.30343   0.00000  Uiso   1.00
H104   H     0.64492   0.19121   0.31000   0.00000  Uiso   1.00
H105   H     0.59674   0.00520   0.20470   0.00000  Uiso   1.00
H106   H     0.57686   0.00214   0.32816   0.00000  Uiso   1.00
H107   H     0.39875   0.24009   0.49476   0.00000  Uiso   1.00
H108   H     0.50970   0.33667   0.49639   0.00000  Uiso   1.00
H109   H     0.43493   0.19246   0.14519   0.00000  Uiso   1.00
H110   H     0.56552   0.30667   0.35473   0.00000  Uiso   1.00
H111   H     0.57512   0.31204   0.16002   0.00000  Uiso   1.00
H112   H     0.61186   0.26283   0.14479   0.00000  Uiso   1.00
H113   H     0.60941   0.31228   0.10936   0.00000  Uiso   1.00
H114   H     0.49280   0.47429   0.17908   0.00000  Uiso   1.00
H115   H     0.42845   0.18474   0.33908   0.00000  Uiso   1.00
H116   H     0.48387   0.15219   0.36468   0.00000  Uiso   1.00
H117   H     0.42601   0.15620   0.39322   0.00000  Uiso   1.00
H118   H     0.45347   0.10303   0.30133   0.00000  Uiso   1.00
H119   H     0.47906   0.39292   0.17763   0.00000  Uiso   1.00
H120   H     0.56354   0.11958   0.19940   0.00000  Uiso   1.00
H121   H     0.54293   0.38690   0.32345   0.00000  Uiso   1.00
H122   H     0.57037   0.28406   0.03859   0.00000  Uiso   1.00
H123   H     0.45989   0.18879   0.46390   0.00000  Uiso   1.00
H124   H     0.35743   0.31327   0.19569   0.00000  Uiso   1.00
N125   N     0.50000   0.24999   0.12623   0.00000  Uiso   1.00
N126   N     0.50000   0.25001   0.37376   0.00000  Uiso   1.00
O127   O     0.50000   0.18454   0.28974   0.00000  Uiso   1.00
O128   O     0.33985   0.20521   0.29367   0.00000  Uiso   1.00
O129   O     0.58822   0.03643   0.19565   0.00000  Uiso   1.00
O130   O     0.56493   0.47102   0.33419   0.00000  Uiso   1.00
O131   O     0.40381   0.22356   0.02482   0.00000  Uiso   1.00
O132   O     0.52940   0.33244   0.46903   0.00000  Uiso   1.00
O133   O     0.41829   0.20838   0.11755   0.00000  Uiso   1.00
O134   O     0.54800   0.32042   0.37981   0.00000  Uiso   1.00
O135   O     0.50000   0.31546   0.21026   0.00000  Uiso   1.00
O136   O     0.50000   0.18453   0.21026   0.00000  Uiso   1.00
O137   O     0.50000   0.31547   0.28974   0.00000  Uiso   1.00
O138   O     0.42392   0.25000   0.28044   0.00000  Uiso   1.00
O139   O     0.57608   0.25000   0.21955   0.00000  Uiso   1.00
O140   O     0.42392   0.24999   0.20096   0.00000  Uiso   1.00
O141   O     0.57608   0.25001   0.29903   0.00000  Uiso   1.00
O142   O     0.66257   0.29970   0.21245   0.00000  Uiso   1.00
Zn143  Zn    0.50000   0.25001   0.30307   0.00000  Uiso   1.00
Zn144  Zn    0.50000   0.25000   0.19693   0.00000  Uiso   1.00
C145   C     0.83389   0.16392   0.24995   0.00000  Uiso   1.00
C146   C     0.80838   0.21761   0.44618   0.00000  Uiso   1.00
C147   C     0.82602   0.25554   0.02585   0.00000  Uiso   1.00
C148   C     0.82609   0.25573   0.47264   0.00000  Uiso   1.00
C149   C     0.73434   0.25179   0.23865   0.00000  Uiso   1.00
C150   C     0.93243   0.24849   0.26158   0.00000  Uiso   1.00
C151   C     0.68109   0.26186   0.23615   0.00000  Uiso   1.00
C152   C     0.98617   0.23979   0.26542   0.00000  Uiso   1.00
C153   C     0.82313   0.04361   0.28135   0.00000  Uiso   1.00
C154   C     0.83828   0.45514   0.21038   0.00000  Uiso   1.00
C155   C     0.81468   0.08917   0.28007   0.00000  Uiso   1.00
C156   C     0.83460   0.33626   0.25015   0.00000  Uiso   1.00
C157   C     0.82973   0.40911   0.20978   0.00000  Uiso   1.00
C158   C     0.84085   0.11625   0.25021   0.00000  Uiso   1.00
C159   C     0.84213   0.38454   0.25086   0.00000  Uiso   1.00
C160   C     0.87596   0.09810   0.22190   0.00000  Uiso   1.00
C161   C     0.86506   0.40589   0.29199   0.00000  Uiso   1.00
C162   C     0.88560   0.05250   0.22341   0.00000  Uiso   1.00
C163   C     0.87497   0.45185   0.29281   0.00000  Uiso   1.00
C164   C     0.85820   0.02511   0.25317   0.00000  Uiso   1.00
C165   C     0.86002   0.47666   0.25176   0.00000  Uiso   1.00
C166   C     0.91984   0.29053   0.13150   0.00000  Uiso   1.00
C167   C     0.78438   0.23720   0.04891   0.00000  Uiso   1.00
C168   C     0.78578   0.17509   0.37172   0.00000  Uiso   1.00
C169   C     0.84736   0.29178   0.44785   0.00000  Uiso   1.00
C170   C     0.79052   0.23194   0.09838   0.00000  Uiso   1.00
C171   C     0.85393   0.28676   0.39971   0.00000  Uiso   1.00
C172   C     0.87254   0.27020   0.10414   0.00000  Uiso   1.00
C173   C     0.80976   0.21589   0.39704   0.00000  Uiso   1.00
C174   C     0.87033   0.27106   0.05468   0.00000  Uiso   1.00
H175   H     0.80131   0.02244   0.30343   0.00000  Uiso   1.00
H176   H     0.97826   0.19121   0.31000   0.00000  Uiso   1.00
H177   H     0.93008   0.00520   0.20470   0.00000  Uiso   1.00
H178   H     0.91019   0.00214   0.32816   0.00000  Uiso   1.00
H179   H     0.73208   0.24009   0.49476   0.00000  Uiso   1.00
H180   H     0.84304   0.33667   0.49639   0.00000  Uiso   1.00
H181   H     0.76826   0.19246   0.14519   0.00000  Uiso   1.00
H182   H     0.89886   0.30667   0.35473   0.00000  Uiso   1.00
H183   H     0.90846   0.31204   0.16002   0.00000  Uiso   1.00
H184   H     0.94520   0.26283   0.14479   0.00000  Uiso   1.00
H185   H     0.94275   0.31228   0.10936   0.00000  Uiso   1.00
H186   H     0.82613   0.47429   0.17908   0.00000  Uiso   1.00
H187   H     0.76178   0.18474   0.33908   0.00000  Uiso   1.00
H188   H     0.81721   0.15219   0.36468   0.00000  Uiso   1.00
H189   H     0.75934   0.15620   0.39322   0.00000  Uiso   1.00
H190   H     0.78680   0.10303   0.30133   0.00000  Uiso   1.00
H191   H     0.81239   0.39292   0.17763   0.00000  Uiso   1.00
H192   H     0.89687   0.11958   0.19940   0.00000  Uiso   1.00
H193   H     0.87626   0.38690   0.32345   0.00000  Uiso   1.00
H194   H     0.90371   0.28406   0.03859   0.00000  Uiso   1.00
H195   H     0.79322   0.18879   0.46390   0.00000  Uiso   1.00
H196   H     0.69076   0.31327   0.19569   0.00000  Uiso   1.00
N197   N     0.83333   0.24999   0.12623   0.00000  Uiso   1.00
N198   N     0.83333   0.25001   0.37376   0.00000  Uiso   1.00
O199   O     0.83334   0.18454   0.28974   0.00000  Uiso   1.00
O200   O     0.67318   0.20521   0.29367   0.00000  Uiso   1.00
O201   O     0.92156   0.03643   0.19565   0.00000  Uiso   1.00
O202   O     0.89826   0.47102   0.33419   0.00000  Uiso   1.00
O203   O     0.73714   0.22356   0.02482   0.00000  Uiso   1.00
O204   O     0.86273   0.33244   0.46903   0.00000  Uiso   1.00
O205   O     0.75163   0.20838   0.11755   0.00000  Uiso   1.00
O206   O     0.88133   0.32042   0.37981   0.00000  Uiso   1.00
O207   O     0.83333   0.31546   0.21026   0.00000  Uiso   1.00
O208   O     0.83334   0.18453   0.21026   0.00000  Uiso   1.00
O209   O     0.83333   0.31547   0.28974   0.00000  Uiso   1.00
O210   O     0.75725   0.25000   0.28044   0.00000  Uiso   1.00
O211   O     0.90942   0.25000   0.21955   0.00000  Uiso   1.00
O212   O     0.75725   0.24999   0.20096   0.00000  Uiso   1.00
O213   O     0.90942   0.25001   0.29903   0.00000  Uiso   1.00
O214   O     0.99590   0.29970   0.21245   0.00000  Uiso   1.00
Zn215  Zn    0.83333   0.25001   0.30307   0.00000  Uiso   1.00
Zn216  Zn    0.83333   0.25000   0.19693   0.00000  Uiso   1.00
C217   C     0.16722   0.66392   0.24995   0.00000  Uiso   1.00
C218   C     0.14172   0.71761   0.44618   0.00000  Uiso   1.00
C219   C     0.15935   0.75554   0.02585   0.00000  Uiso   1.00
C220   C     0.15942   0.75573   0.47264   0.00000  Uiso   1.00
C221   C     0.06767   0.75179   0.23865   0.00000  Uiso   1.00
C222   C     0.26576   0.74849   0.26158   0.00000  Uiso   1.00
C223   C     0.01443   0.76186   0.23615   0.00000  Uiso   1.00
C224   C     0.31950   0.73979   0.26542   0.00000  Uiso   1.00
C225   C     0.15646   0.54361   0.28135   0.00000  Uiso   1.00
C226   C     0.17161   0.95514   0.21038   0.00000  Uiso   1.00
C227   C     0.14801   0.58917   0.28007   0.00000  Uiso   1.00
C228   C     0.16793   0.83626   0.25015   0.00000  Uiso   1.00
C229   C     0.16307   0.90911   0.20978   0.00000  Uiso   1.00
C230   C     0.17419   0.61625   0.25021   0.00000  Uiso   1.00
C231   C     0.17546   0.88454   0.25086   0.00000  Uiso   1.00
C232   C     0.20929   0.59810   0.22190   0.00000  Uiso   1.00
C233   C     0.19840   0.90589   0.29199   0.00000  Uiso   1.00
C234   C     0.21893   0.55250   0.22341   0.00000  Uiso   1.00
C235   C     0.20830   0.95185   0.29281   0.00000  Uiso   1.00
C236   C     0.19153   0.52511   0.25317   0.00000  Uiso   1.00
C237   C     0.19336   0.97666   0.25176   0.00000  Uiso   1.00
C238   C     0.25317   0.79053   0.13150   0.00000  Uiso   1.00
C239   C     0.11771   0.73720   0.04891   0.00000  Uiso   1.00
C240   C     0.11912   0.67509   0.37172   0.00000  Uiso   1.00
C241   C     0.18069   0.79178   0.44785   0.00000  Uiso   1.00
C242   C     0.12385   0.73194   0.09838   0.00000  Uiso   1.00
C243   C     0.18726   0.78676   0.39971   0.00000  Uiso   1.00
C244   C     0.20588   0.77020   0.10414   0.00000  Uiso   1.00
C245   C     0.14310   0.71589   0.39704   0.00000  Uiso   1.00
C246   C     0.20366   0.77106   0.05468   0.00000  Uiso   1.00
H247   H     0.13464   0.52244   0.30343   0.00000  Uiso   1.00
H248   H     0.31159   0.69121   0.31000   0.00000  Uiso   1.00
H249   H     0.26341   0.50520   0.20470   0.00000  Uiso   1.00
H250   H     0.24352   0.50214   0.32816   0.00000  Uiso   1.00
H251   H     0.06542   0.74009   0.49476   0.00000  Uiso   1.00
H252   H     0.17637   0.83667   0.49639   0.00000  Uiso   1.00
H253   H     0.10159   0.69246   0.14519   0.00000  Uiso   1.00
H254   H     0.23219   0.80667   0.35473   0.00000  Uiso   1.00
H255   H     0.24179   0.81204   0.16002   0.00000  Uiso   1.00
H256   H     0.27853   0.76283   0.14479   0.00000  Uiso   1.00
H257   H     0.27608   0.81228   0.10936   0.00000  Uiso   1.00
H258   H     0.15947   0.97429   0.17908   0.00000  Uiso   1.00
H259   H     0.09511   0.68474   0.33908   0.00000  Uiso   1.00
H260   H     0.15054   0.65219   0.36468   0.00000  Uiso   1.00
H261   H     0.09268   0.65620   0.39322   0.00000  Uiso   1.00
H262   H     0.12014   0.60303   0.30133   0.00000  Uiso   1.00
H263   H     0.14572   0.89292   0.17763   0.00000  Uiso   1.00
H264   H     0.23020   0.61958   0.19940   0.00000  Uiso   1.00
H265   H     0.20960   0.88690   0.32345   0.00000  Uiso   1.00
H266   H     0.23704   0.78406   0.03859   0.00000  Uiso   1.00
H267   H     0.12656   0.68879   0.46390   0.00000  Uiso   1.00
H268   H     0.02410   0.81327   0.19569   0.00000  Uiso   1.00
N269   N     0.16667   0.74999   0.12623   0.00000  Uiso   1.00
N270   N     0.16667   0.75001   0.37376   0.00000  Uiso   1.00
O271   O     0.16667   0.68454   0.28974   0.00000  Uiso   1.00
O272   O     0.00652   0.70521   0.29367   0.00000  Uiso   1.00
O273   O     0.25489   0.53643   0.19565   0.00000  Uiso   1.00
O274   O     0.23160   0.97102   0.33419   0.00000  Uiso   1.00
O275   O     0.07048   0.72356   0.02482   0.00000  Uiso   1.00
O276   O     0.19607   0.83244   0.46903   0.00000  Uiso   1.00
O277   O     0.08496   0.70838   0.11755   0.00000  Uiso   1.00
O278   O     0.21467   0.82042   0.37981   0.00000  Uiso   1.00
O279   O     0.16666   0.81546   0.21026   0.00000  Uiso   1.00
O280   O     0.16667   0.68453   0.21026   0.00000  Uiso   1.00
O281   O     0.16666   0.81547   0.28974   0.00000  Uiso   1.00
O282   O     0.09058   0.75000   0.28044   0.00000  Uiso   1.00
O283   O     0.24275   0.75000   0.21955   0.00000  Uiso   1.00
O284   O     0.09058   0.74999   0.20096   0.00000  Uiso   1.00
O285   O     0.24275   0.75001   0.29903   0.00000  Uiso   1.00
O286   O     0.32923   0.79970   0.21245   0.00000  Uiso   1.00
Zn287  Zn    0.16667   0.75001   0.30307   0.00000  Uiso   1.00
Zn288  Zn    0.16667   0.75000   0.19693   0.00000  Uiso   1.00
C289   C     0.50056   0.66392   0.24995   0.00000  Uiso   1.00
C290   C     0.47505   0.71761   0.44618   0.00000  Uiso   1.00
C291   C     0.49268   0.75554   0.02585   0.00000  Uiso   1.00
C292   C     0.49276   0.75573   0.47264   0.00000  Uiso   1.00
C293   C     0.40100   0.75179   0.23865   0.00000  Uiso   1.00
C294   C     0.59910   0.74849   0.26158   0.00000  Uiso   1.00
C295   C     0.34776   0.76186   0.23615   0.00000  Uiso   1.00
C296   C     0.65283   0.73979   0.26542   0.00000  Uiso   1.00
C297   C     0.48979   0.54361   0.28135   0.00000  Uiso   1.00
C298   C     0.50494   0.95514   0.21038   0.00000  Uiso   1.00
C299   C     0.48134   0.58917   0.28007   0.00000  Uiso   1.00
C300   C     0.50127   0.83626   0.25015   0.00000  Uiso   1.00
C301   C     0.49640   0.90911   0.20978   0.00000  Uiso   1.00
C302   C     0.50752   0.61625   0.25021   0.00000  Uiso   1.00
C303   C     0.50880   0.88454   0.25086   0.00000  Uiso   1.00
C304   C     0.54262   0.59810   0.22190   0.00000  Uiso   1.00
C305   C     0.53173   0.90589   0.29199   0.00000  Uiso   1.00
C306   C     0.55226   0.55250   0.22341   0.00000  Uiso   1.00
C307   C     0.54163   0.95185   0.29281   0.00000  Uiso   1.00
C308   C     0.52486   0.52511   0.25317   0.00000  Uiso   1.00
C309   C     0.52669   0.97666   0.25176   0.00000  Uiso   1.00
C310   C     0.58650   0.79053   0.13150   0.00000  Uiso   1.00
C311   C     0.45105   0.73720   0.04891   0.00000  Uiso   1.00
C312   C     0.45245   0.67509   0.37172   0.00000  Uiso   1.00
C313   C     0.51402   0.79178   0.44785   0.00000  Uiso   1.00
C314   C     0.45719   0.73194   0.09838   0.00000  Uiso   1.00
C315   C     0.52059   0.78676   0.39971   0.00000  Uiso   1.00
C316   C     0.53921   0.77020   0.10414   0.00000  Uiso   1.00
C317   C     0.47643   0.71589   0.39704   0.00000  Uiso   1.00
C318   C     0.53700   0.77106   0.05468   0.00000  Uiso   1.00
H319   H     0.46798   0.52244   0.30343   0.00000  Uiso   1.00
H320   H     0.64492   0.69121   0.31000   0.00000  Uiso   1.00
H321   H     0.59674   0.50520   0.20470   0.00000  Uiso   1.00
H322   H     0.57686   0.50214   0.32816   0.00000  Uiso   1.00
H323   H     0.39875   0.74009   0.49476   0.00000  Uiso   1.00
H324   H     0.50970   0.83667   0.49639   0.00000  Uiso   1.00
H325   H     0.43493   0.69246   0.14519   0.00000  Uiso   1.00
H326   H     0.56552   0.80667   0.35473   0.00000  Uiso   1.00
H327   H     0.57512   0.81204   0.16002   0.00000  Uiso   1.00
H328   H     0.61186   0.76283   0.14479   0.00000  Uiso   1.00
H329   H     0.60941   0.81228   0.10936   0.00000  Uiso   1.00
H330   H     0.49280   0.97429   0.17908   0.00000  Uiso   1.00
H331   H     0.42845   0.68474   0.33908   0.00000  Uiso   1.00
H332   H     0.48387   0.65219   0.36468   0.00000  Uiso   1.00
H333   H     0.42601   0.65620   0.39322   0.00000  Uiso   1.00
H334   H     0.45347   0.60303   0.30133   0.00000  Uiso   1.00
H335   H     0.47906   0.89292   0.17763   0.00000  Uiso   1.00
H336   H     0.56354   0.61958   0.19940   0.00000  Uiso   1.00
H337   H     0.54293   0.88690   0.32345   0.00000  Uiso   1.00
H338   H     0.57037   0.78406   0.03859   0.00000  Uiso   1.00
H339   H     0.45989   0.68879   0.46390   0.00000  Uiso   1.00
H340   H     0.35743   0.81327   0.19569   0.00000  Uiso   1.00
N341   N     0.50000   0.74999   0.12623   0.00000  Uiso   1.00
N342   N     0.50000   0.75001   0.37376   0.00000  Uiso   1.00
O343   O     0.50000   0.68454   0.28974   0.00000  Uiso   1.00
O344   O     0.33985   0.70521   0.29367   0.00000  Uiso   1.00
O345   O     0.58822   0.53643   0.19565   0.00000  Uiso   1.00
O346   O     0.56493   0.97102   0.33419   0.00000  Uiso   1.00
O347   O     0.40381   0.72356   0.02482   0.00000  Uiso   1.00
O348   O     0.52940   0.83244   0.46903   0.00000  Uiso   1.00
O349   O     0.41829   0.70838   0.11755   0.00000  Uiso   1.00
O350   O     0.54800   0.82042   0.37981   0.00000  Uiso   1.00
O351   O     0.50000   0.81546   0.21026   0.00000  Uiso   1.00
O352   O     0.50000   0.68453   0.21026   0.00000  Uiso   1.00
O353   O     0.50000   0.81547   0.28974   0.00000  Uiso   1.00
O354   O     0.42392   0.75000   0.28044   0.00000  Uiso   1.00
O355   O     0.57608   0.75000   0.21955   0.00000  Uiso   1.00
O356   O     0.42392   0.74999   0.20096   0.00000  Uiso   1.00
O357   O     0.57608   0.75001   0.29903   0.00000  Uiso   1.00
O358   O     0.66257   0.79970   0.21245   0.00000  Uiso   1.00
Zn359  Zn    0.50000   0.75001   0.30307   0.00000  Uiso   1.00
Zn360  Zn    0.50000   0.75000   0.19693   0.00000  Uiso   1.00
C361   C     0.83389   0.66392   0.24995   0.00000  Uiso   1.00
C362   C     0.80838   0.71761   0.44618   0.00000  Uiso   1.00
C363   C     0.82602   0.75554   0.02585   0.00000  Uiso   1.00
C364   C     0.82609   0.75573   0.47264   0.00000  Uiso   1.00
C365   C     0.73434   0.75179   0.23865   0.00000  Uiso   1.00
C366   C     0.93243   0.74849   0.26158   0.00000  Uiso   1.00
C367   C     0.68109   0.76186   0.23615   0.00000  Uiso   1.00
C368   C     0.98617   0.73979   0.26542   0.00000  Uiso   1.00
C369   C     0.82313   0.54361   0.28135   0.00000  Uiso   1.00
C370   C     0.83828   0.95514   0.21038   0.00000  Uiso   1.00
C371   C     0.81468   0.58917   0.28007   0.00000  Uiso   1.00
C372   C     0.83460   0.83626   0.25015   0.00000  Uiso   1.00
C373   C     0.82973   0.90911   0.20978   0.00000  Uiso   1.00
C374   C     0.84085   0.61625   0.25021   0.00000  Uiso   1.00
C375   C     0.84213   0.88454   0.25086   0.00000  Uiso   1.00
C376   C     0.87596   0.59810   0.22190   0.00000  Uiso   1.00
C377   C     0.86506   0.90589   0.29199   0.00000  Uiso   1.00
C378   C     0.88560   0.55250   0.22341   0.00000  Uiso   1.00
C379   C     0.87497   0.95185   0.29281   0.00000  Uiso   1.00
C380   C     0.85820   0.52511   0.25317   0.00000  Uiso   1.00
C381   C     0.86002   0.97666   0.25176   0.00000  Uiso   1.00
C382   C     0.91984   0.79053   0.13150   0.00000  Uiso   1.00
C383   C     0.78438   0.73720   0.04891   0.00000  Uiso   1.00
C384   C     0.78578   0.67509   0.37172   0.00000  Uiso   1.00
C385   C     0.84736   0.79178   0.44785   0.00000  Uiso   1.00
C386   C     0.79052   0.73194   0.09838   0.00000  Uiso   1.00
C387   C     0.85393   0.78676   0.39971   0.00000  Uiso   1.00
C388   C     0.87254   0.77020   0.10414   0.00000  Uiso   1.00
C389   C     0.80976   0.71589   0.39704   0.00000  Uiso   1.00
C390   C     0.87033   0.77106   0.05468   0.00000  Uiso   1.00
H391   H     0.80131   0.52244   0.30343   0.00000  Uiso   1.00
H392   H     0.97826   0.69121   0.31000   0.00000  Uiso   1.00
H393   H     0.93008   0.50520   0.20470   0.00000  Uiso   1.00
H394   H     0.91019   0.50214   0.32816   0.00000  Uiso   1.00
H395   H     0.73208   0.74009   0.49476   0.00000  Uiso   1.00
H396   H     0.84304   0.83667   0.49639   0.00000  Uiso   1.00
H397   H     0.76826   0.69246   0.14519   0.00000  Uiso   1.00
H398   H     0.89886   0.80667   0.35473   0.00000  Uiso   1.00
H399   H     0.90846   0.81204   0.16002   0.00000  Uiso   1.00
H400   H     0.94520   0.76283   0.14479   0.00000  Uiso   1.00
H401   H     0.94275   0.81228   0.10936   0.00000  Uiso   1.00
H402   H     0.82613   0.97429   0.17908   0.00000  Uiso   1.00
H403   H     0.76178   0.68474   0.33908   0.00000  Uiso   1.00
H404   H     0.81721   0.65219   0.36468   0.00000  Uiso   1.00
H405   H     0.75934   0.65620   0.39322   0.00000  Uiso   1.00
H406   H     0.78680   0.60303   0.30133   0.00000  Uiso   1.00
H407   H     0.81239   0.89292   0.17763   0.00000  Uiso   1.00
H408   H     0.89687   0.61958   0.19940   0.00000  Uiso   1.00
H409   H     0.87626   0.88690   0.32345   0.00000  Uiso   1.00
H410   H     0.90371   0.78406   0.03859   0.00000  Uiso   1.00
H411   H     0.79322   0.68879   0.46390   0.00000  Uiso   1.00
H412   H     0.69076   0.81327   0.19569   0.00000  Uiso   1.00
N413   N     0.83333   0.74999   0.12623   0.00000  Uiso   1.00
N414   N     0.83333   0.75001   0.37376   0.00000  Uiso   1.00
O415   O     0.83334   0.68454   0.28974   0.00000  Uiso   1.00
O416   O     0.67318   0.70521   0.29367   0.00000  Uiso   1.00
O417   O     0.92156   0.53643   0.19565   0.00000  Uiso   1.00
O418   O     0.89826   0.97102   0.33419   0.00000  Uiso   1.00
O419   O     0.73714   0.72356   0.02482   0.00000  Uiso   1.00
O420   O     0.86273   0.83244   0.46903   0.00000  Uiso   1.00
O421   O     0.75163   0.70838   0.11755   0.00000  Uiso   1.00
O422   O     0.88133   0.82042   0.37981   0.00000  Uiso   1.00
O423   O     0.83333   0.81546   0.21026   0.00000  Uiso   1.00
O424   O     0.83334   0.68453   0.21026   0.00000  Uiso   1.00
O425   O     0.83333   0.81547   0.28974   0.00000  Uiso   1.00
O426   O     0.75725   0.75000   0.28044   0.00000  Uiso   1.00
O427   O     0.90942   0.75000   0.21955   0.00000  Uiso   1.00
O428   O     0.75725   0.74999   0.20096   0.00000  Uiso   1.00
O429   O     0.90942   0.75001   0.29903   0.00000  Uiso   1.00
O430   O     0.99590   0.79970   0.21245   0.00000  Uiso   1.00
Zn431  Zn    0.83333   0.75001   0.30307   0.00000  Uiso   1.00
Zn432  Zn    0.83333   0.75000   0.19693   0.00000  Uiso   1.00
C433   C     0.16722   0.16392   0.74995   0.00000  Uiso   1.00
C434   C     0.14172   0.21761   0.94618   0.00000  Uiso   1.00
C435   C     0.15935   0.25554   0.52585   0.00000  Uiso   1.00
C436   C     0.15942   0.25573   0.97264   0.00000  Uiso   1.00
C437   C     0.06767   0.25179   0.73865   0.00000  Uiso   1.00
C438   C     0.26576   0.24849   0.76158   0.00000  Uiso   1.00
C439   C     0.01443   0.26186   0.73615   0.00000  Uiso   1.00
C440   C     0.31950   0.23979   0.76542   0.00000  Uiso   1.00
C441   C     0.15646   0.04361   0.78135   0.00000  Uiso   1.00
C442   C     0.17161   0.45514   0.71038   0.00000  Uiso   1.00
C443   C     0.14801   0.08917   0.78007   0.00000  Uiso   1.00
C444   C     0.16793   0.33626   0.75015   0.00000  Uiso   1.00
C445   C     0.16307   0.40911   0.70978   0.00000  Uiso   1.00
C446   C     0.17419   0.11625   0.75021   0.00000  Uiso   1.00
C447   C     0.17546   0.38454   0.75086   0.00000  Uiso   1.00
C448   C     0.20929   0.09810   0.72190   0.00000  Uiso   1.00
C449   C     0.19840   0.40589   0.79199   0.00000  Uiso   1.00
C450   C     0.21893   0.05250   0.72341   0.00000  Uiso   1.00
C451   C     0.20830   0.45185   0.79281   0.00000  Uiso   1.00
C452   C     0.19153   0.02511   0.75317   0.00000  Uiso   1.00
C453   C     0.19336   0.47666   0.75176   0.00000  Uiso   1.00
C454   C     0.25317   0.29053   0.63150   0.00000  Uiso   1.00
C455   C     0.11771   0.23720   0.54891   0.00000  Uiso   1.00
C456   C     0.11912   0.17509   0.87172   0.00000  Uiso   1.00
C457   C     0.18069   0.29178   0.94785   0.00000  Uiso   1.00
C458   C     0.12385   0.23194   0.59838   0.00000  Uiso   1.00
C459   C     0.18726   0.28676   0.89971   0.00000  Uiso   1.00
C460   C     0.20588   0.27020   0.60414   0.00000  Uiso   1.00
C461   C     0.14310   0.21589   0.89704   0.00000  Uiso   1.00
C462   C     0.20366   0.27106   0.55468   0.00000  Uiso   1.00
H463   H     0.13464   0.02244   0.80343   0.00000  Uiso   1.00
H464   H     0.31159   0.19121   0.81000   0.00000  Uiso   1.00
H465   H     0.26341   0.00520   0.70470   0.00000  Uiso   1.00
H466   H     0.24352   0.00214   0.82816   0.00000  Uiso   1.00
H467   H     0.06542   0.24009   0.99476   0.00000  Uiso   1.00
H468   H     0.17637   0.33667   0.99639   0.00000  Uiso   1.00
H469   H     0.10159   0.19246   0.64519   0.00000  Uiso   1.00
H470   H     0.23219   0.30667   0.85473   0.00000  Uiso   1.00
H471   H     0.24179   0.31204   0.66002   0.00000  Uiso   1.00
H472   H     0.27853   0.26283   0.64479   0.00000  Uiso   1.00
H473   H     0.27608   0.31228   0.60936   0.00000  Uiso   1.00
H474   H     0.15947   0.47429   0.67908   0.00000  Uiso   1.00
H475   H     0.09511   0.18474   0.83908   0.00000  Uiso   1.00
H476   H     0.15054   0.15219   0.86468   0.00000  Uiso   1.00
H477   H     0.09268   0.15620   0.89322   0.00000  Uiso   1.00
H478   H     0.12014   0.10303   0.80133   0.00000  Uiso   1.00
H479   H     0.14572   0.39292   0.67763   0.00000  Uiso   1.00
H480   H     0.23020   0.11958   0.69940   0.00000  Uiso   1.00
H481   H     0.20960   0.38690   0.82345   0.00000  Uiso   1.00
H482   H     0.23704   0.28406   0.53859   0.00000  Uiso   1.00
H483   H     0.12656   0.18879   0.96390   0.00000  Uiso   1.00
H484   H     0.02410   0.31327   0.69569   0.00000  Uiso   1.00
N485   N     0.16667   0.24999   0.62623   0.00000  Uiso   1.00
N486   N     0.16667   0.25001   0.87376   0.00000  Uiso   1.00
O487   O     0.16667   0.18454   0.78974   0.00000  Uiso   1.00
O488   O     0.00652   0.20521   0.79367   0.00000  Uiso   1.00
O489   O     0.25489   0.03643   0.69565   0.00000  Uiso   1.00
O490   O     0.23160   0.47102   0.83419   0.00000  Uiso   1.00
O491   O     0.07048   0.22356   0.52482   0.00000  Uiso   1.00
O492   O     0.19607   0.33244   0.96903   0.00000  Uiso   1.00
O493   O     0.08496   0.20838   0.61755   0.00000  Uiso   1.00
O494   O     0.21467   0.32042   0.87981   0.00000  Uiso   1.00
O495   O     0.16666   0.31546   0.71026   0.00000  Uiso   1.00
O496   O     0.16667   0.18453   0.71026   0.00000  Uiso   1.00
O497   O     0.16666   0.31547   0.78974   0.00000  Uiso   1.00
O498   O     0.09058   0.25000   0.78044   0.00000  Uiso   1.00
O499   O     0.24275   0.25000   0.71955   0.00000  Uiso   1.00
O500   O     0.09058   0.24999   0.70096   0.00000  Uiso   1.00
O501   O     0.24275   0.25001   0.79903   0.00000  Uiso   1.00
O502   O     0.32923   0.29970   0.71245   0.00000  Uiso   1.00
Zn503  Zn    0.16667   0.25001   0.80307   0.00000  Uiso   1.00
Zn504  Zn    0.16667   0.25000   0.69693   0.00000  Uiso   1.00
C505   C     0.50056   0.16392   0.74995   0.00000  Uiso   1.00
C506   C     0.47505   0.21761   0.94618   0.00000  Uiso   1.00
C507   C     0.49268   0.25554   0.52585   0.00000  Uiso   1.00
C508   C     0.49276   0.25573   0.97264   0.00000  Uiso   1.00
C509   C     0.40100   0.25179   0.73865   0.00000  Uiso   1.00
C510   C     0.59910   0.24849   0.76158   0.00000  Uiso   1.00
C511   C     0.34776   0.26186   0.73615   0.00000  Uiso   1.00
C512   C     0.65283   0.23979   0.76542   0.00000  Uiso   1.00
C513   C     0.48979   0.04361   0.78135   0.00000  Uiso   1.00
C514   C     0.50494   0.45514   0.71038   0.00000  Uiso   1.00
C515   C     0.48134   0.08917   0.78007   0.00000  Uiso   1.00
C516   C     0.50127   0.33626   0.75015   0.00000  Uiso   1.00
C517   C     0.49640   0.40911   0.70978   0.00000  Uiso   1.00
C518   C     0.50752   0.11625   0.75021   0.00000  Uiso   1.00
C519   C     0.50880   0.38454   0.75086   0.00000  Uiso   1.00
C520   C     0.54262   0.09810   0.72190   0.00000  Uiso   1.00
C521   C     0.53173   0.40589   0.79199   0.00000  Uiso   1.00
C522   C     0.55226   0.05250   0.72341   0.00000  Uiso   1.00
C523   C     0.54163   0.45185   0.79281   0.00000  Uiso   1.00
C524   C     0.52486   0.02511   0.75317   0.00000  Uiso   1.00
C525   C     0.52669   0.47666   0.75176   0.00000  Uiso   1.00
C526   C     0.58650   0.29053   0.63150   0.00000  Uiso   1.00
C527   C     0.45105   0.23720   0.54891   0.00000  Uiso   1.00
C528   C     0.45245   0.17509   0.87172   0.00000  Uiso   1.00
C529   C     0.51402   0.29178   0.94785   0.00000  Uiso   1.00
C530   C     0.45719   0.23194   0.59838   0.00000  Uiso   1.00
C531   C     0.52059   0.28676   0.89971   0.00000  Uiso   1.00
C532   C     0.53921   0.27020   0.60414   0.00000  Uiso   1.00
C533   C     0.47643   0.21589   0.89704   0.00000  Uiso   1.00
C534   C     0.53700   0.27106   0.55468   0.00000  Uiso   1.00
H535   H     0.46798   0.02244   0.80343   0.00000  Uiso   1.00
H536   H     0.64492   0.19121   0.81000   0.00000  Uiso   1.00
H537   H     0.59674   0.00520   0.70470   0.00000  Uiso   1.00
H538   H     0.57686   0.00214   0.82816   0.00000  Uiso   1.00
H539   H     0.39875   0.24009   0.99476   0.00000  Uiso   1.00
H540   H     0.50970   0.33667   0.99639   0.00000  Uiso   1.00
H541   H     0.43493   0.19246   0.64519   0.00000  Uiso   1.00
H542   H     0.56552   0.30667   0.85473   0.00000  Uiso   1.00
H543   H     0.57512   0.31204   0.66002   0.00000  Uiso   1.00
H544   H     0.61186   0.26283   0.64479   0.00000  Uiso   1.00
H545   H     0.60941   0.31228   0.60936   0.00000  Uiso   1.00
H546   H     0.49280   0.47429   0.67908   0.00000  Uiso   1.00
H547   H     0.42845   0.18474   0.83908   0.00000  Uiso   1.00
H548   H     0.48387   0.15219   0.86468   0.00000  Uiso   1.00
H549   H     0.42601   0.15620   0.89322   0.00000  Uiso   1.00
H550   H     0.45347   0.10303   0.80133   0.00000  Uiso   1.00
H551   H     0.47906   0.39292   0.67763   0.00000  Uiso   1.00
H552   H     0.56354   0.11958   0.69940   0.00000  Uiso   1.00
H553   H     0.54293   0.38690   0.82345   0.00000  Uiso   1.00
H554   H     0.57037   0.28406   0.53859   0.00000  Uiso   1.00
H555   H     0.45989   0.18879   0.96390   0.00000  Uiso   1.00
H556   H     0.35743   0.31327   0.69569   0.00000  Uiso   1.00
N557   N     0.50000   0.24999   0.62623   0.00000  Uiso   1.00
N558   N     0.50000   0.25001   0.87376   0.00000  Uiso   1.00
O559   O     0.50000   0.18454   0.78974   0.00000  Uiso   1.00
O560   O     0.33985   0.20521   0.79367   0.00000  Uiso   1.00
O561   O     0.58822   0.03643   0.69565   0.00000  Uiso   1.00
O562   O     0.56493   0.47102   0.83419   0.00000  Uiso   1.00
O563   O     0.40381   0.22356   0.52482   0.00000  Uiso   1.00
O564   O     0.52940   0.33244   0.96903   0.00000  Uiso   1.00
O565   O     0.41829   0.20838   0.61755   0.00000  Uiso   1.00
O566   O     0.54800   0.32042   0.87981   0.00000  Uiso   1.00
O567   O     0.50000   0.31546   0.71026   0.00000  Uiso   1.00
O568   O     0.50000   0.18453   0.71026   0.00000  Uiso   1.00
O569   O     0.50000   0.31547   0.78974   0.00000  Uiso   1.00
O570   O     0.42392   0.25000   0.78044   0.00000  Uiso   1.00
O571   O     0.57608   0.25000   0.71955   0.00000  Uiso   1.00
O572   O     0.42392   0.24999   0.70096   0.00000  Uiso   1.00
O573   O     0.57608   0.25001   0.79903   0.00000  Uiso   1.00
O574   O     0.66257   0.29970   0.71245   0.00000  Uiso   1.00
Zn575  Zn    0.50000   0.25001   0.80307   0.00000  Uiso   1.00
Zn576  Zn    0.50000   0.25000   0.69693   0.00000  Uiso   1.00
C577   C     0.83389   0.16392   0.74995   0.00000  Uiso   1.00
C578   C     0.80838   0.21761   0.94618   0.00000  Uiso   1.00
C579   C     0.82602   0.25554   0.52585   0.00000  Uiso   1.00
C580   C     0.82609   0.25573   0.97264   0.00000  Uiso   1.00
C581   C     0.73434   0.25179   0.73865   0.00000  Uiso   1.00
C582   C     0.93243   0.24849   0.76158   0.00000  Uiso   1.00
C583   C     0.68109   0.26186   0.73615   0.00000  Uiso   1.00
C584   C     0.98617   0.23979   0.76542   0.00000  Uiso   1.00
C585   C     0.82313   0.04361   0.78135   0.00000  Uiso   1.00
C586   C     0.83828   0.45514   0.71038   0.00000  Uiso   1.00
C587   C     0.81468   0.08917   0.78007   0.00000  Uiso   1.00
C588   C     0.83460   0.33626   0.75015   0.00000  Uiso   1.00
C589   C     0.82973   0.40911   0.70978   0.00000  Uiso   1.00
C590   C     0.84085   0.11625   0.75021   0.00000  Uiso   1.00
C591   C     0.84213   0.38454   0.75086   0.00000  Uiso   1.00
C592   C     0.87596   0.09810   0.72190   0.00000  Uiso   1.00
C593   C     0.86506   0.40589   0.79199   0.00000  Uiso   1.00
C594   C     0.88560   0.05250   0.72341   0.00000  Uiso   1.00
C595   C     0.87497   0.45185   0.79281   0.00000  Uiso   1.00
C596   C     0.85820   0.02511   0.75317   0.00000  Uiso   1.00
C597   C     0.86002   0.47666   0.75176   0.00000  Uiso   1.00
C598   C     0.91984   0.29053   0.63150   0.00000  Uiso   1.00
C599   C     0.78438   0.23720   0.54891   0.00000  Uiso   1.00
C600   C     0.78578   0.17509   0.87172   0.00000  Uiso   1.00
C601   C     0.84736   0.29178   0.94785   0.00000  Uiso   1.00
C602   C     0.79052   0.23194   0.59838   0.00000  Uiso   1.00
C603   C     0.85393   0.28676   0.89971   0.00000  Uiso   1.00
C604   C     0.87254   0.27020   0.60414   0.00000  Uiso   1.00
C605   C     0.80976   0.21589   0.89704   0.00000  Uiso   1.00
C606   C     0.87033   0.27106   0.55468   0.00000  Uiso   1.00
H607   H     0.80131   0.02244   0.80343   0.00000  Uiso   1.00
H608   H     0.97826   0.19121   0.81000   0.00000  Uiso   1.00
H609   H     0.93008   0.00520   0.70470   0.00000  Uiso   1.00
H610   H     0.91019   0.00214   0.82816   0.00000  Uiso   1.00
H611   H     0.73208   0.24009   0.99476   0.00000  Uiso   1.00
H612   H     0.84304   0.33667   0.99639   0.00000  Uiso   1.00
H613   H     0.76826   0.19246   0.64519   0.00000  Uiso   1.00
H614   H     0.89886   0.30667   0.85473   0.00000  Uiso   1.00
H615   H     0.90846   0.31204   0.66002   0.00000  Uiso   1.00
H616   H     0.94520   0.26283   0.64479   0.00000  Uiso   1.00
H617   H     0.94275   0.31228   0.60936   0.00000  Uiso   1.00
H618   H     0.82613   0.47429   0.67908   0.00000  Uiso   1.00
H619   H     0.76178   0.18474   0.83908   0.00000  Uiso   1.00
H620   H     0.81721   0.15219   0.86468   0.00000  Uiso   1.00
H621   H     0.75934   0.15620   0.89322   0.00000  Uiso   1.00
H622   H     0.78680   0.10303   0.80133   0.00000  Uiso   1.00
H623   H     0.81239   0.39292   0.67763   0.00000  Uiso   1.00
H624   H     0.89687   0.11958   0.69940   0.00000  Uiso   1.00
H625   H     0.87626   0.38690   0.82345   0.00000  Uiso   1.00
H626   H     0.90371   0.28406   0.53859   0.00000  Uiso   1.00
H627   H     0.79322   0.18879   0.96390   0.00000  Uiso   1.00
H628   H     0.69076   0.31327   0.69569   0.00000  Uiso   1.00
N629   N     0.83333   0.24999   0.62623   0.00000  Uiso   1.00
N630   N     0.83333   0.25001   0.87376   0.00000  Uiso   1.00
O631   O     0.83334   0.18454   0.78974   0.00000  Uiso   1.00
O632   O     0.67318   0.20521   0.79367   0.00000  Uiso   1.00
O633   O     0.92156   0.03643   0.69565   0.00000  Uiso   1.00
O634   O     0.89826   0.47102   0.83419   0.00000  Uiso   1.00
O635   O     0.73714   0.22356   0.52482   0.00000  Uiso   1.00
O636   O     0.86273   0.33244   0.96903   0.00000  Uiso   1.00
O637   O     0.75163   0.20838   0.61755   0.00000  Uiso   1.00
O638   O     0.88133   0.32042   0.87981   0.00000  Uiso   1.00
O639   O     0.83333   0.31546   0.71026   0.00000  Uiso   1.00
O640   O     0.83334   0.18453   0.71026   0.00000  Uiso   1.00
O641   O     0.83333   0.31547   0.78974   0.00000  Uiso   1.00
O642   O     0.75725   0.25000   0.78044   0.00000  Uiso   1.00
O643   O     0.90942   0.25000   0.71955   0.00000  Uiso   1.00
O644   O     0.75725   0.24999   0.70096   0.00000  Uiso   1.00
O645   O     0.90942   0.25001   0.79903   0.00000  Uiso   1.00
O646   O     0.99590   0.29970   0.71245   0.00000  Uiso   1.00
Zn647  Zn    0.83333   0.25001   0.80307   0.00000  Uiso   1.00
Zn648  Zn    0.83333   0.25000   0.69693   0.00000  Uiso   1.00
C649   C     0.16722   0.66392   0.74995   0.00000  Uiso   1.00
C650   C     0.14172   0.71761   0.94618   0.00000  Uiso   1.00
C651   C     0.15935   0.75554   0.52585   0.00000  Uiso   1.00
C652   C     0.15942   0.75573   0.97264   0.00000  Uiso   1.00
C653   C     0.06767   0.75179   0.73865   0.00000  Uiso   1.00
C654   C     0.26576   0.74849   0.76158   0.00000  Uiso   1.00
C655   C     0.01443   0.76186   0.73615   0.00000  Uiso   1.00
C656   C     0.31950   0.73979   0.76542   0.00000  Uiso   1.00
C657   C     0.15646   0.54361   0.78135   0.00000  Uiso   1.00
C658   C     0.17161   0.95514   0.71038   0.00000  Uiso   1.00
C659   C     0.14801   0.58917   0.78007   0.00000  Uiso   1.00
C660   C     0.16793   0.83626   0.75015   0.00000  Uiso   1.00
C661   C     0.16307   0.90911   0.70978   0.00000  Uiso   1.00
C662   C     0.17419   0.61625   0.75021   0.00000  Uiso   1.00
C663   C     0.17546   0.88454   0.75086   0.00000  Uiso   1.00
C664   C     0.20929   0.59810   0.72190   0.00000  Uiso   1.00
C665   C     0.19840   0.90589   0.79199   0.00000  Uiso   1.00
C666   C     0.21893   0.55250   0.72341   0.00000  Uiso   1.00
C667   C     0.20830   0.95185   0.79281   0.00000  Uiso   1.00
C668   C     0.19153   0.52511   0.75317   0.00000  Uiso   1.00
C669   C     0.19336   0.97666   0.75176   0.00000  Uiso   1.00
C670   C     0.25317   0.79053   0.63150   0.00000  Uiso   1.00
C671   C     0.11771   0.73720   0.54891   0.00000  Uiso   1.00
C672   C     0.11912   0.67509   0.87172   0.00000  Uiso   1.00
C673   C     0.18069   0.79178   0.94785   0.00000  Uiso   1.00
C674   C     0.12385   0.73194   0.59838   0.00000  Uiso   1.00
C675   C     0.18726   0.78676   0.89971   0.00000  Uiso   1.00
C676   C     0.20588   0.77020   0.60414   0.00000  Uiso   1.00
C677   C     0.14310   0.71589   0.89704   0.00000  Uiso   1.00
C678   C     0.20366   0.77106   0.55468   0.00000  Uiso   1.00
H679   H     0.13464   0.52244   0.80343   0.00000  Uiso   1.00
H680   H     0.31159   0.69121   0.81000   0.00000  Uiso   1.00
H681   H     0.26341   0.50520   0.70470   0.00000  Uiso   1.00
H682   H     0.24352   0.50214   0.82816   0.00000  Uiso   1.00
H683   H     0.06542   0.74009   0.99476   0.00000  Uiso   1.00
H684   H     0.17637   0.83667   0.99639   0.00000  Uiso   1.00
H685   H     0.10159   0.69246   0.64519   0.00000  Uiso   1.00
H686   H     0.23219   0.80667   0.85473   0.00000  Uiso   1.00
H687   H     0.24179   0.81204   0.66002   0.00000  Uiso   1.00
H688   H     0.27853   0.76283   0.64479   0.00000  Uiso   1.00
H689   H     0.27608   0.81228   0.60936   0.00000  Uiso   1.00
H690   H     0.15947   0.97429   0.67908   0.00000  Uiso   1.00
H691   H     0.09511   0.68474   0.83908   0.00000  Uiso   1.00
H692   H     0.15054   0.65219   0.86468   0.00000  Uiso   1.00
H693   H     0.09268   0.65620   0.89322   0.00000  Uiso   1.00
H694   H     0.12014   0.60303   0.80133   0.00000  Uiso   1.00
H695   H     0.14572   0.89292   0.67763   0.00000  Uiso   1.00
H696   H     0.23020   0.61958   0.69940   0.00000  Uiso   1.00
H697   H     0.20960   0.88690   0.82345   0.00000  Uiso   1.00
H698   H     0.23704   0.78406   0.53859   0.00000  Uiso   1.00
H699   H     0.12656   0.68879   0.96390   0.00000  Uiso   1.00
H700   H     0.02410   0.81327   0.69569   0.00000  Uiso   1.00
N701   N     0.16667   0.74999   0.62623   0.00000  Uiso   1.00
N702   N     0.16667   0.75001   0.87376   0.00000  Uiso   1.00
O703   O     0.16667   0.68454   0.78974   0.00000  Uiso   1.00
O704   O     0.00652   0.70521   0.79367   0.00000  Uiso   1.00
O705   O     0.25489   0.53643   0.69565   0.00000  Uiso   1.00
O706   O     0.23160   0.97102   0.83419   0.00000  Uiso   1.00
O707   O     0.07048   0.72356   0.52482   0.00000  Uiso   1.00
O708   O     0.19607   0.83244   0.96903   0.00000  Uiso   1.00
O709   O     0.08496   0.70838   0.61755   0.00000  Uiso   1.00
O710   O     0.21467   0.82042   0.87981   0.00000  Uiso   1.00
O711   O     0.16666   0.81546   0.71026   0.00000  Uiso   1.00
O712   O     0.16667   0.68453   0.71026   0.00000  Uiso   1.00
O713   O     0.16666   0.81547   0.78974   0.00000  Uiso   1.00
O714   O     0.09058   0.75000   0.78044   0.00000  Uiso   1.00
O715   O     0.24275   0.75000   0.71955   0.00000  Uiso   1.00
O716   O     0.09058   0.74999   0.70096   0.00000  Uiso   1.00
O717   O     0.24275   0.75001   0.79903   0.00000  Uiso   1.00
O718   O     0.32923   0.79970   0.71245   0.00000  Uiso   1.00
Zn719  Zn    0.16667   0.75001   0.80307   0.00000  Uiso   1.00
Zn720  Zn    0.16667   0.75000   0.69693   0.00000  Uiso   1.00
C721   C     0.50056   0.66392   0.74995   0.00000  Uiso   1.00
C722   C     0.47505   0.71761   0.94618   0.00000  Uiso   1.00
C723   C     0.49268   0.75554   0.52585   0.00000  Uiso   1.00
C724   C     0.49276   0.75573   0.97264   0.00000  Uiso   1.00
C725   C     0.40100   0.75179   0.73865   0.00000  Uiso   1.00
C726   C     0.59910   0.74849   0.76158   0.00000  Uiso   1.00
C727   C     0.34776   0.76186   0.73615   0.00000  Uiso   1.00
C728   C     0.65283   0.73979   0.76542   0.00000  Uiso   1.00
C729   C     0.48979   0.54361   0.78135   0.00000  Uiso   1.00
C730   C     0.50494   0.95514   0.71038   0.00000  Uiso   1.00
C731   C     0.48134   0.58917   0.78007   0.00000  Uiso   1.00
C732   C     0.50127   0.83626   0.75015   0.00000  Uiso   1.00
C733   C     0.49640   0.90911   0.70978   0.00000  Uiso   1.00
C734   C     0.50752   0.61625   0.75021   0.00000  Uiso   1.00
C735   C     0.50880   0.88454   0.75086   0.00000  Uiso   1.00
C736   C     0.54262   0.59810   0.72190   0.00000  Uiso   1.00
C737   C     0.53173   0.90589   0.79199   0.00000  Uiso   1.00
C738   C     0.55226   0.55250   0.72341   0.00000  Uiso   1.00
C739   C     0.54163   0.95185   0.79281   0.00000  Uiso   1.00
C740   C     0.52486   0.52511   0.75317   0.00000  Uiso   1.00
C741   C     0.52669   0.97666   0.75176   0.00000  Uiso   1.00
C742   C     0.58650   0.79053   0.63150   0.00000  Uiso   1.00
C743   C     0.45105   0.73720   0.54891   0.00000  Uiso   1.00
C744   C     0.45245   0.67509   0.87172   0.00000  Uiso   1.00
C745   C     0.51402   0.79178   0.94785   0.00000  Uiso   1.00
C746   C     0.45719   0.73194   0.59838   0.00000  Uiso   1.00
C747   C     0.52059   0.78676   0.89971   0.00000  Uiso   1.00
C748   C     0.53921   0.77020   0.60414   0.00000  Uiso   1.00
C749   C     0.47643   0.71589   0.89704   0.00000  Uiso   1.00
C750   C     0.53700   0.77106   0.55468   0.00000  Uiso   1.00
H751   H     0.46798   0.52244   0.80343   0.00000  Uiso   1.00
H752   H     0.64492   0.69121   0.81000   0.00000  Uiso   1.00
H753   H     0.59674   0.50520   0.70470   0.00000  Uiso   1.00
H754   H     0.57686   0.50214   0.82816   0.00000  Uiso   1.00
H755   H     0.39875   0.74009   0.99476   0.00000  Uiso   1.00
H756   H     0.50970   0.83667   0.99639   0.00000  Uiso   1.00
H757   H     0.43493   0.69246   0.64519   0.00000  Uiso   1.00
H758   H     0.56552   0.80667   0.85473   0.00000  Uiso   1.00
H759   H     0.57512   0.81204   0.66002   0.00000  Uiso   1.00
H760   H     0.61186   0.76283   0.64479   0.00000  Uiso   1.00
H761   H     0.60941   0.81228   0.60936   0.00000  Uiso   1.00
H762   H     0.49280   0.97429   0.67908   0.00000  Uiso   1.00
H763   H     0.42845   0.68474   0.83908   0.00000  Uiso   1.00
H764   H     0.48387   0.65219   0.86468   0.00000  Uiso   1.00
H765   H     0.42601   0.65620   0.89322   0.00000  Uiso   1.00
H766   H     0.45347   0.60303   0.80133   0.00000  Uiso   1.00
H767   H     0.47906   0.89292   0.67763   0.00000  Uiso   1.00
H768   H     0.56354   0.61958   0.69940   0.00000  Uiso   1.00
H769   H     0.54293   0.88690   0.82345   0.00000  Uiso   1.00
H770   H     0.57037   0.78406   0.53859   0.00000  Uiso   1.00
H771   H     0.45989   0.68879   0.96390   0.00000  Uiso   1.00
H772   H     0.35743   0.81327   0.69569   0.00000  Uiso   1.00
N773   N     0.50000   0.74999   0.62623   0.00000  Uiso   1.00
N774   N     0.50000   0.75001   0.87376   0.00000  Uiso   1.00
O775   O     0.50000   0.68454   0.78974   0.00000  Uiso   1.00
O776   O     0.33985   0.70521   0.79367   0.00000  Uiso   1.00
O777   O     0.58822   0.53643   0.69565   0.00000  Uiso   1.00
O778   O     0.56493   0.97102   0.83419   0.00000  Uiso   1.00
O779   O     0.40381   0.72356   0.52482   0.00000  Uiso   1.00
O780   O     0.52940   0.83244   0.96903   0.00000  Uiso   1.00
O781   O     0.41829   0.70838   0.61755   0.00000  Uiso   1.00
O782   O     0.54800   0.82042   0.87981   0.00000  Uiso   1.00
O783   O     0.50000   0.81546   0.71026   0.00000  Uiso   1.00
O784   O     0.50000   0.68453   0.71026   0.00000  Uiso   1.00
O785   O     0.50000   0.81547   0.78974   0.00000  Uiso   1.00
O786   O     0.42392   0.75000   0.78044   0.00000  Uiso   1.00
O787   O     0.57608   0.75000   0.71955   0.00000  Uiso   1.00
O788   O     0.42392   0.74999   0.70096   0.00000  Uiso   1.00
O789   O     0.57608   0.75001   0.79903   0.00000  Uiso   1.00
O790   O     0.66257   0.79970   0.71245   0.00000  Uiso   1.00
Zn791  Zn    0.50000   0.75001   0.80307   0.00000  Uiso   1.00
Zn792  Zn    0.50000   0.75000   0.69693   0.00000  Uiso   1.00
C793   C     0.83389   0.66392   0.74995   0.00000  Uiso   1.00
C794   C     0.80838   0.71761   0.94618   0.00000  Uiso   1.00
C795   C     0.82602   0.75554   0.52585   0.00000  Uiso   1.00
C796   C     0.82609   0.75573   0.97264   0.00000  Uiso   1.00
C797   C     0.73434   0.75179   0.73865   0.00000  Uiso   1.00
C798   C     0.93243   0.74849   0.76158   0.00000  Uiso   1.00
C799   C     0.68109   0.76186   0.73615   0.00000  Uiso   1.00
C800   C     0.98617   0.73979   0.76542   0.00000  Uiso   1.00
C801   C     0.82313   0.54361   0.78135   0.00000  Uiso   1.00
C802   C     0.83828   0.95514   0.71038   0.00000  Uiso   1.00
C803   C     0.81468   0.58917   0.78007   0.00000  Uiso   1.00
C804   C     0.83460   0.83626   0.75015   0.00000  Uiso   1.00
C805   C     0.82973   0.90911   0.70978   0.00000  Uiso   1.00
C806   C     0.84085   0.61625   0.75021   0.00000  Uiso   1.00
C807   C     0.84213   0.88454   0.75086   0.00000  Uiso   1.00
C808   C     0.87596   0.59810   0.72190   0.00000  Uiso   1.00
C809   C     0.86506   0.90589   0.79199   0.00000  Uiso   1.00
C810   C     0.88560   0.55250   0.72341   0.00000  Uiso   1.00
C811   C     0.87497   0.95185   0.79281   0.00000  Uiso   1.00
C812   C     0.85820   0.52511   0.75317   0.00000  Uiso   1.00
C813   C     0.86002   0.97666   0.75176   0.00000  Uiso   1.00
C814   C     0.91984   0.79053   0.63150   0.00000  Uiso   1.00
C815   C     0.78438   0.73720   0.54891   0.00000  Uiso   1.00
C816   C     0.78578   0.67509   0.87172   0.00000  Uiso   1.00
C817   C     0.84736   0.79178   0.94785   0.00000  Uiso   1.00
C818   C     0.79052   0.73194   0.59838   0.00000  Uiso   1.00
C819   C     0.85393   0.78676   0.89971   0.00000  Uiso   1.00
C820   C     0.87254   0.77020   0.60414   0.00000  Uiso   1.00
C821   C     0.80976   0.71589   0.89704   0.00000  Uiso   1.00
C822   C     0.87033   0.77106   0.55468   0.00000  Uiso   1.00
H823   H     0.80131   0.52244   0.80343   0.00000  Uiso   1.00
H824   H     0.97826   0.69121   0.81000   0.00000  Uiso   1.00
H825   H     0.93008   0.50520   0.70470   0.00000  Uiso   1.00
H826   H     0.91019   0.50214   0.82816   0.00000  Uiso   1.00
H827   H     0.73208   0.74009   0.99476   0.00000  Uiso   1.00
H828   H     0.84304   0.83667   0.99639   0.00000  Uiso   1.00
H829   H     0.76826   0.69246   0.64519   0.00000  Uiso   1.00
H830   H     0.89886   0.80667   0.85473   0.00000  Uiso   1.00
H831   H     0.90846   0.81204   0.66002   0.00000  Uiso   1.00
H832   H     0.94520   0.76283   0.64479   0.00000  Uiso   1.00
H833   H     0.94275   0.81228   0.60936   0.00000  Uiso   1.00
H834   H     0.82613   0.97429   0.67908   0.00000  Uiso   1.00
H835   H     0.76178   0.68474   0.83908   0.00000  Uiso   1.00
H836   H     0.81721   0.65219   0.86468   0.00000  Uiso   1.00
H837   H     0.75934   0.65620   0.89322   0.00000  Uiso   1.00
H838   H     0.78680   0.60303   0.80133   0.00000  Uiso   1.00
H839   H     0.81239   0.89292   0.67763   0.00000  Uiso   1.00
H840   H     0.89687   0.61958   0.69940   0.00000  Uiso   1.00
H841   H     0.87626   0.88690   0.82345   0.00000  Uiso   1.00
H842   H     0.90371   0.78406   0.53859   0.00000  Uiso   1.00
H843   H     0.79322   0.68879   0.96390   0.00000  Uiso   1.00
H844   H     0.69076   0.81327   0.69569   0.00000  Uiso   1.00
N845   N     0.83333   0.74999   0.62623   0.00000  Uiso   1.00
N846   N     0.83333   0.75001   0.87376   0.00000  Uiso   1.00
O847   O     0.83334   0.68454   0.78974   0.00000  Uiso   1.00
O848   O     0.67318   0.70521   0.79367   0.00000  Uiso   1.00
O849   O     0.92156   0.53643   0.69565   0.00000  Uiso   1.00
O850   O     0.89826   0.97102   0.83419   0.00000  Uiso   1.00
O851   O     0.73714   0.72356   0.52482   0.00000  Uiso   1.00
O852   O     0.86273   0.83244   0.96903   0.00000  Uiso   1.00
O853   O     0.75163   0.70838   0.61755   0.00000  Uiso   1.00
O854   O     0.88133   0.82042   0.87981   0.00000  Uiso   1.00
O855   O     0.83333   0.81546   0.71026   0.00000  Uiso   1.00
O856   O     0.83334   0.68453   0.71026   0.00000  Uiso   1.00
O857   O     0.83333   0.81547   0.78974   0.00000  Uiso   1.00
O858   O     0.75725   0.75000   0.78044   0.00000  Uiso   1.00
O859   O     0.90942   0.75000   0.71955   0.00000  Uiso   1.00
O860   O     0.75725   0.74999   0.70096   0.00000  Uiso   1.00
O861   O     0.90942   0.75001   0.79903   0.00000  Uiso   1.00
O862   O     0.99590   0.79970   0.71245   0.00000  Uiso   1.00
Zn863  Zn    0.83333   0.75001   0.80307   0.00000  Uiso   1.00
Zn864  Zn    0.83333   0.75000   0.69693   0.00000  Uiso   1.00
loop_
_geom_bond_atom_site_label_1
_geom_bond_atom_site_label_2
_geom_bond_distance
_geom_bond_site_symmetry_2
_ccdc_geom_bond_type
C1     O55     1.295   .     A
C1     C14     1.435   .     S
C1     O64     1.292   .     A
C2     C4      1.400   .     A
C2     C29     1.413   .     A
C2     H51     1.083   .     S
C3     C30     1.399   .     A
C3     C23     1.420   .     A
C3     C436    1.524   1_554 S
C4     C25     1.419   .     A
C4     C435    1.524   .     S
C5     C7      1.407   .     S
C5     O68     1.289   .     A
C5     O66     1.276   .     A
C6     O69     1.284   .     A
C6     C8      1.408   .     S
C6     O67     1.282   .     A
C7     C152    1.334   1_455 S
C7     O214    1.384   1_455 S
C8     C79     1.334   .     S
C8     O128    1.388   .     S
C9     C11     1.379   .     A
C9     H31     1.084   .     S
C9     C20     1.400   .     A
C10    C21     1.399   .     A
C10    H42     1.084   .     S
C10    C13     1.381   .     A
C11    C14     1.392   .     A
C11    H46     1.082   .     S
C12    C15     1.444   .     S
C12    O65     1.296   .     A
C12    O63     1.295   .     A
C13    C15     1.397   .     A
C13    H47     1.083   .     S
C14    C16     1.400   .     A
C15    C17     1.400   .     A
C16    H48     1.084   .     S
C16    C18     1.386   .     A
C17    H49     1.080   .     S
C17    C19     1.384   .     A
C18    O57     1.382   .     S
C18    C20     1.413   .     A
C19    C21     1.412   .     A
C19    O58     1.382   .     S
C20    C237    1.445   1_545 S
C21    C236    1.445   .     S
C22    H40     1.107   .     S
C22    C28     1.486   .     S
C22    H41     1.111   .     S
C22    H39     1.107   .     S
C23    O59     1.381   .     S
C23    C26     1.417   .     A
C24    H45     1.111   .     S
C24    H44     1.108   .     S
C24    H43     1.105   .     S
C24    C29     1.496   .     S
C25    O60     1.381   .     S
C25    C27     1.416   .     A
C26    O61     1.373   .     S
C26    N53     1.382   .     A
C27    N54     1.381   .     A
C27    O62     1.372   .     S
C28    N53     1.377   .     A
C28    C30     1.412   .     A
C29    N54     1.380   .     A
C30    H50     1.084   .     S
H32    O128    0.992   .     S
H33    O57     0.989   .     S
H34    O274    0.990   1_545 S
H35    O491    0.990   .     S
H36    O60     0.990   .     S
H37    O61     0.986   .     S
H38    O62     0.985   .     S
H52    O214    0.992   1_455 S
N53    Zn72    2.025   .     S
N54    Zn71    2.025   .     S
O55    Zn71    1.985   .     S
O56    H176    0.992   1_455 S
O56    C152    1.388   1_455 S
O58    H250    0.990   .     S
O59    H467    0.990   1_554 S
O63    Zn72    1.985   .     S
O64    Zn72    1.986   .     S
O65    Zn71    1.986   .     S
O66    Zn71    1.995   .     S
O67    Zn72    1.995   .     S
O68    Zn72    1.978   .     S
O69    Zn71    1.978   .     S
O70    H124    0.992   .     S
O70    C79     1.384   .     S
C73    O127    1.295   .     A
C73    C86     1.435   .     S
C73    O136    1.292   .     A
C74    C76     1.400   .     A
C74    C101    1.413   .     A
C74    H123    1.083   .     S
C75    C102    1.399   .     A
C75    C95     1.420   .     A
C75    C508    1.524   1_554 S
C76    C97     1.419   .     A
C76    C507    1.524   .     S
C77    C79     1.407   .     S
C77    O140    1.289   .     A
C77    O138    1.276   .     A
C78    O141    1.284   .     A
C78    C80     1.408   .     S
C78    O139    1.282   .     A
C80    C151    1.334   .     S
C80    O200    1.388   .     S
C81    C83     1.379   .     A
C81    H103    1.084   .     S
C81    C92     1.400   .     A
C82    C93     1.399   .     A
C82    H114    1.084   .     S
C82    C85     1.381   .     A
C83    C86     1.392   .     A
C83    H118    1.082   .     S
C84    C87     1.444   .     S
C84    O137    1.296   .     A
C84    O135    1.295   .     A
C85    C87     1.397   .     A
C85    H119    1.083   .     S
C86    C88     1.400   .     A
C87    C89     1.400   .     A
C88    H120    1.084   .     S
C88    C90     1.386   .     A
C89    H121    1.080   .     S
C89    C91     1.384   .     A
C90    O129    1.382   .     S
C90    C92     1.413   .     A
C91    C93     1.412   .     A
C91    O130    1.382   .     S
C92    C309    1.445   1_545 S
C93    C308    1.445   .     S
C94    H112    1.107   .     S
C94    C100    1.486   .     S
C94    H113    1.111   .     S
C94    H111    1.107   .     S
C95    O131    1.381   .     S
C95    C98     1.417   .     A
C96    H117    1.111   .     S
C96    H116    1.108   .     S
C96    H115    1.105   .     S
C96    C101    1.496   .     S
C97    O132    1.381   .     S
C97    C99     1.416   .     A
C98    O133    1.373   .     S
C98    N125    1.382   .     A
C99    N126    1.381   .     A
C99    O134    1.372   .     S
C100   N125    1.377   .     A
C100   C102    1.412   .     A
C101   N126    1.380   .     A
C102   H122    1.084   .     S
H104   O200    0.992   .     S
H105   O129    0.989   .     S
H106   O346    0.990   1_545 S
H107   O563    0.990   .     S
H108   O132    0.990   .     S
H109   O133    0.986   .     S
H110   O134    0.985   .     S
N125   Zn144   2.025   .     S
N126   Zn143   2.025   .     S
O127   Zn143   1.985   .     S
O130   H322    0.990   .     S
O131   H539    0.990   1_554 S
O135   Zn144   1.985   .     S
O136   Zn144   1.986   .     S
O137   Zn143   1.986   .     S
O138   Zn143   1.995   .     S
O139   Zn144   1.995   .     S
O140   Zn144   1.978   .     S
O141   Zn143   1.978   .     S
O142   H196    0.992   .     S
O142   C151    1.384   .     S
C145   O199    1.295   .     A
C145   C158    1.435   .     S
C145   O208    1.292   .     A
C146   C148    1.400   .     A
C146   C173    1.413   .     A
C146   H195    1.083   .     S
C147   C174    1.399   .     A
C147   C167    1.420   .     A
C147   C580    1.524   1_554 S
C148   C169    1.419   .     A
C148   C579    1.524   .     S
C149   C151    1.407   .     S
C149   O212    1.289   .     A
C149   O210    1.276   .     A
C150   O213    1.284   .     A
C150   C152    1.408   .     S
C150   O211    1.282   .     A
C152   C7      1.334   1_655 S
C152   O56     1.388   1_655 S
C153   C155    1.379   .     A
C153   H175    1.084   .     S
C153   C164    1.400   .     A
C154   C165    1.399   .     A
C154   H186    1.084   .     S
C154   C157    1.381   .     A
C155   C158    1.392   .     A
C155   H190    1.082   .     S
C156   C159    1.444   .     S
C156   O209    1.296   .     A
C156   O207    1.295   .     A
C157   C159    1.397   .     A
C157   H191    1.083   .     S
C158   C160    1.400   .     A
C159   C161    1.400   .     A
C160   H192    1.084   .     S
C160   C162    1.386   .     A
C161   H193    1.080   .     S
C161   C163    1.384   .     A
C162   O201    1.382   .     S
C162   C164    1.413   .     A
C163   C165    1.412   .     A
C163   O202    1.382   .     S
C164   C381    1.445   1_545 S
C165   C380    1.445   .     S
C166   H184    1.107   .     S
C166   C172    1.486   .     S
C166   H185    1.111   .     S
C166   H183    1.107   .     S
C167   O203    1.381   .     S
C167   C170    1.417   .     A
C168   H189    1.111   .     S
C168   H188    1.108   .     S
C168   H187    1.105   .     S
C168   C173    1.496   .     S
C169   O204    1.381   .     S
C169   C171    1.416   .     A
C170   O205    1.373   .     S
C170   N197    1.382   .     A
C171   N198    1.381   .     A
C171   O206    1.372   .     S
C172   N197    1.377   .     A
C172   C174    1.412   .     A
C173   N198    1.380   .     A
C174   H194    1.084   .     S
H176   O56     0.992   1_655 S
H177   O201    0.989   .     S
H178   O418    0.990   1_545 S
H179   O635    0.990   .     S
H180   O204    0.990   .     S
H181   O205    0.986   .     S
H182   O206    0.985   .     S
N197   Zn216   2.025   .     S
N198   Zn215   2.025   .     S
O199   Zn215   1.985   .     S
O202   H394    0.990   .     S
O203   H611    0.990   1_554 S
O207   Zn216   1.985   .     S
O208   Zn216   1.986   .     S
O209   Zn215   1.986   .     S
O210   Zn215   1.995   .     S
O211   Zn216   1.995   .     S
O212   Zn216   1.978   .     S
O213   Zn215   1.978   .     S
O214   H52     0.992   1_655 S
O214   C7      1.384   1_655 S
C217   O271    1.295   .     A
C217   C230    1.435   .     S
C217   O280    1.292   .     A
C218   C220    1.400   .     A
C218   C245    1.413   .     A
C218   H267    1.083   .     S
C219   C246    1.399   .     A
C219   C239    1.420   .     A
C219   C652    1.524   1_554 S
C220   C241    1.419   .     A
C220   C651    1.524   .     S
C221   C223    1.407   .     S
C221   O284    1.289   .     A
C221   O282    1.276   .     A
C222   O285    1.284   .     A
C222   C224    1.408   .     S
C222   O283    1.282   .     A
C223   C368    1.334   1_455 S
C223   O430    1.384   1_455 S
C224   C295    1.334   .     S
C224   O344    1.388   .     S
C225   C227    1.379   .     A
C225   H247    1.084   .     S
C225   C236    1.400   .     A
C226   C237    1.399   .     A
C226   H258    1.084   .     S
C226   C229    1.381   .     A
C227   C230    1.392   .     A
C227   H262    1.082   .     S
C228   C231    1.444   .     S
C228   O281    1.296   .     A
C228   O279    1.295   .     A
C229   C231    1.397   .     A
C229   H263    1.083   .     S
C230   C232    1.400   .     A
C231   C233    1.400   .     A
C232   H264    1.084   .     S
C232   C234    1.386   .     A
C233   H265    1.080   .     S
C233   C235    1.384   .     A
C234   O273    1.382   .     S
C234   C236    1.413   .     A
C235   C237    1.412   .     A
C235   O274    1.382   .     S
C237   C20     1.445   1_565 S
C238   H256    1.107   .     S
C238   C244    1.486   .     S
C238   H257    1.111   .     S
C238   H255    1.107   .     S
C239   O275    1.381   .     S
C239   C242    1.417   .     A
C240   H261    1.111   .     S
C240   H260    1.108   .     S
C240   H259    1.105   .     S
C240   C245    1.496   .     S
C241   O276    1.381   .     S
C241   C243    1.416   .     A
C242   O277    1.373   .     S
C242   N269    1.382   .     A
C243   N270    1.381   .     A
C243   O278    1.372   .     S
C244   N269    1.377   .     A
C244   C246    1.412   .     A
C245   N270    1.380   .     A
C246   H266    1.084   .     S
H248   O344    0.992   .     S
H249   O273    0.989   .     S
H251   O707    0.990   .     S
H252   O276    0.990   .     S
H253   O277    0.986   .     S
H254   O278    0.985   .     S
H268   O430    0.992   1_455 S
N269   Zn288   2.025   .     S
N270   Zn287   2.025   .     S
O271   Zn287   1.985   .     S
O272   H392    0.992   1_455 S
O272   C368    1.388   1_455 S
O274   H34     0.990   1_565 S
O275   H683    0.990   1_554 S
O279   Zn288   1.985   .     S
O280   Zn288   1.986   .     S
O281   Zn287   1.986   .     S
O282   Zn287   1.995   .     S
O283   Zn288   1.995   .     S
O284   Zn288   1.978   .     S
O285   Zn287   1.978   .     S
O286   H340    0.992   .     S
O286   C295    1.384   .     S
C289   O343    1.295   .     A
C289   C302    1.435   .     S
C289   O352    1.292   .     A
C290   C292    1.400   .     A
C290   C317    1.413   .     A
C290   H339    1.083   .     S
C291   C318    1.399   .     A
C291   C311    1.420   .     A
C291   C724    1.524   1_554 S
C292   C313    1.419   .     A
C292   C723    1.524   .     S
C293   C295    1.407   .     S
C293   O356    1.289   .     A
C293   O354    1.276   .     A
C294   O357    1.284   .     A
C294   C296    1.408   .     S
C294   O355    1.282   .     A
C296   C367    1.334   .     S
C296   O416    1.388   .     S
C297   C299    1.379   .     A
C297   H319    1.084   .     S
C297   C308    1.400   .     A
C298   C309    1.399   .     A
C298   H330    1.084   .     S
C298   C301    1.381   .     A
C299   C302    1.392   .     A
C299   H334    1.082   .     S
C300   C303    1.444   .     S
C300   O353    1.296   .     A
C300   O351    1.295   .     A
C301   C303    1.397   .     A
C301   H335    1.083   .     S
C302   C304    1.400   .     A
C303   C305    1.400   .     A
C304   H336    1.084   .     S
C304   C306    1.386   .     A
C305   H337    1.080   .     S
C305   C307    1.384   .     A
C306   O345    1.382   .     S
C306   C308    1.413   .     A
C307   C309    1.412   .     A
C307   O346    1.382   .     S
C309   C92     1.445   1_565 S
C310   H328    1.107   .     S
C310   C316    1.486   .     S
C310   H329    1.111   .     S
C310   H327    1.107   .     S
C311   O347    1.381   .     S
C311   C314    1.417   .     A
C312   H333    1.111   .     S
C312   H332    1.108   .     S
C312   H331    1.105   .     S
C312   C317    1.496   .     S
C313   O348    1.381   .     S
C313   C315    1.416   .     A
C314   O349    1.373   .     S
C314   N341    1.382   .     A
C315   N342    1.381   .     A
C315   O350    1.372   .     S
C316   N341    1.377   .     A
C316   C318    1.412   .     A
C317   N342    1.380   .     A
C318   H338    1.084   .     S
H320   O416    0.992   .     S
H321   O345    0.989   .     S
H323   O779    0.990   .     S
H324   O348    0.990   .     S
H325   O349    0.986   .     S
H326   O350    0.985   .     S
N341   Zn360   2.025   .     S
N342   Zn359   2.025   .     S
O343   Zn359   1.985   .     S
O346   H106    0.990   1_565 S
O347   H755    0.990   1_554 S
O351   Zn360   1.985   .     S
O352   Zn360   1.986   .     S
O353   Zn359   1.986   .     S
O354   Zn359   1.995   .     S
O355   Zn360   1.995   .     S
O356   Zn360   1.978   .     S
O357   Zn359   1.978   .     S
O358   H412    0.992   .     S
O358   C367    1.384   .     S
C361   O415    1.295   .     A
C361   C374    1.435   .     S
C361   O424    1.292   .     A
C362   C364    1.400   .     A
C362   C389    1.413   .     A
C362   H411    1.083   .     S
C363   C390    1.399   .     A
C363   C383    1.420   .     A
C363   C796    1.524   1_554 S
C364   C385    1.419   .     A
C364   C795    1.524   .     S
C365   C367    1.407   .     S
C365   O428    1.289   .     A
C365   O426    1.276   .     A
C366   O429    1.284   .     A
C366   C368    1.408   .     S
C366   O427    1.282   .     A
C368   C223    1.334   1_655 S
C368   O272    1.388   1_655 S
C369   C371    1.379   .     A
C369   H391    1.084   .     S
C369   C380    1.400   .     A
C370   C381    1.399   .     A
C370   H402    1.084   .     S
C370   C373    1.381   .     A
C371   C374    1.392   .     A
C371   H406    1.082   .     S
C372   C375    1.444   .     S
C372   O425    1.296   .     A
C372   O423    1.295   .     A
C373   C375    1.397   .     A
C373   H407    1.083   .     S
C374   C376    1.400   .     A
C375   C377    1.400   .     A
C376   H408    1.084   .     S
C376   C378    1.386   .     A
C377   H409    1.080   .     S
C377   C379    1.384   .     A
C378   O417    1.382   .     S
C378   C380    1.413   .     A
C379   C381    1.412   .     A
C379   O418    1.382   .     S
C381   C164    1.445   1_565 S
C382   H400    1.107   .     S
C382   C388    1.486   .     S
C382   H401    1.111   .     S
C382   H399    1.107   .     S
C383   O419    1.381   .     S
C383   C386    1.417   .     A
C384   H405    1.111   .     S
C384   H404    1.108   .     S
C384   H403    1.105   .     S
C384   C389    1.496   .     S
C385   O420    1.381   .     S
C385   C387    1.416   .     A
C386   O421    1.373   .     S
C386   N413    1.382   .     A
C387   N414    1.381   .     A
C387   O422    1.372   .     S
C388   N413    1.377   .     A
C388   C390    1.412   .     A
C389   N414    1.380   .     A
C390   H410    1.084   .     S
H392   O272    0.992   1_655 S
H393   O417    0.989   .     S
H395   O851    0.990   .     S
H396   O420    0.990   .     S
H397   O421    0.986   .     S
H398   O422    0.985   .     S
N413   Zn432   2.025   .     S
N414   Zn431   2.025   .     S
O415   Zn431   1.985   .     S
O418   H178    0.990   1_565 S
O419   H827    0.990   1_554 S
O423   Zn432   1.985   .     S
O424   Zn432   1.986   .     S
O425   Zn431   1.986   .     S
O426   Zn431   1.995   .     S
O427   Zn432   1.995   .     S
O428   Zn432   1.978   .     S
O429   Zn431   1.978   .     S
O430   H268    0.992   1_655 S
O430   C223    1.384   1_655 S
C433   O487    1.295   .     A
C433   C446    1.435   .     S
C433   O496    1.292   .     A
C434   C436    1.400   .     A
C434   C461    1.413   .     A
C434   H483    1.083   .     S
C435   C462    1.399   .     A
C435   C455    1.420   .     A
C436   C457    1.419   .     A
C436   C3      1.524   1_556 S
C437   C439    1.407   .     S
C437   O500    1.289   .     A
C437   O498    1.276   .     A
C438   O501    1.284   .     A
C438   C440    1.408   .     S
C438   O499    1.282   .     A
C439   C584    1.334   1_455 S
C439   O646    1.384   1_455 S
C440   C511    1.334   .     S
C440   O560    1.388   .     S
C441   C443    1.379   .     A
C441   H463    1.084   .     S
C441   C452    1.400   .     A
C442   C453    1.399   .     A
C442   H474    1.084   .     S
C442   C445    1.381   .     A
C443   C446    1.392   .     A
C443   H478    1.082   .     S
C444   C447    1.444   .     S
C444   O497    1.296   .     A
C444   O495    1.295   .     A
C445   C447    1.397   .     A
C445   H479    1.083   .     S
C446   C448    1.400   .     A
C447   C449    1.400   .     A
C448   H480    1.084   .     S
C448   C450    1.386   .     A
C449   H481    1.080   .     S
C449   C451    1.384   .     A
C450   O489    1.382   .     S
C450   C452    1.413   .     A
C451   C453    1.412   .     A
C451   O490    1.382   .     S
C452   C669    1.445   1_545 S
C453   C668    1.445   .     S
C454   H472    1.107   .     S
C454   C460    1.486   .     S
C454   H473    1.111   .     S
C454   H471    1.107   .     S
C455   O491    1.381   .     S
C455   C458    1.417   .     A
C456   H477    1.111   .     S
C456   H476    1.108   .     S
C456   H475    1.105   .     S
C456   C461    1.496   .     S
C457   O492    1.381   .     S
C457   C459    1.416   .     A
C458   O493    1.373   .     S
C458   N485    1.382   .     A
C459   N486    1.381   .     A
C459   O494    1.372   .     S
C460   N485    1.377   .     A
C460   C462    1.412   .     A
C461   N486    1.380   .     A
C462   H482    1.084   .     S
H464   O560    0.992   .     S
H465   O489    0.989   .     S
H466   O706    0.990   1_545 S
H467   O59     0.990   1_556 S
H468   O492    0.990   .     S
H469   O493    0.986   .     S
H470   O494    0.985   .     S
H484   O646    0.992   1_455 S
N485   Zn504   2.025   .     S
N486   Zn503   2.025   .     S
O487   Zn503   1.985   .     S
O488   H608    0.992   1_455 S
O488   C584    1.388   1_455 S
O490   H682    0.990   .     S
O495   Zn504   1.985   .     S
O496   Zn504   1.986   .     S
O497   Zn503   1.986   .     S
O498   Zn503   1.995   .     S
O499   Zn504   1.995   .     S
O500   Zn504   1.978   .     S
O501   Zn503   1.978   .     S
O502   H556    0.992   .     S
O502   C511    1.384   .     S
C505   O559    1.295   .     A
C505   C518    1.435   .     S
C505   O568    1.292   .     A
C506   C508    1.400   .     A
C506   C533    1.413   .     A
C506   H555    1.083   .     S
C507   C534    1.399   .     A
C507   C527    1.420   .     A
C508   C529    1.419   .     A
C508   C75     1.524   1_556 S
C509   C511    1.407   .     S
C509   O572    1.289   .     A
C509   O570    1.276   .     A
C510   O573    1.284   .     A
C510   C512    1.408   .     S
C510   O571    1.282   .     A
C512   C583    1.334   .     S
C512   O632    1.388   .     S
C513   C515    1.379   .     A
C513   H535    1.084   .     S
C513   C524    1.400   .     A
C514   C525    1.399   .     A
C514   H546    1.084   .     S
C514   C517    1.381   .     A
C515   C518    1.392   .     A
C515   H550    1.082   .     S
C516   C519    1.444   .     S
C516   O569    1.296   .     A
C516   O567    1.295   .     A
C517   C519    1.397   .     A
C517   H551    1.083   .     S
C518   C520    1.400   .     A
C519   C521    1.400   .     A
C520   H552    1.084   .     S
C520   C522    1.386   .     A
C521   H553    1.080   .     S
C521   C523    1.384   .     A
C522   O561    1.382   .     S
C522   C524    1.413   .     A
C523   C525    1.412   .     A
C523   O562    1.382   .     S
C524   C741    1.445   1_545 S
C525   C740    1.445   .     S
C526   H544    1.107   .     S
C526   C532    1.486   .     S
C526   H545    1.111   .     S
C526   H543    1.107   .     S
C527   O563    1.381   .     S
C527   C530    1.417   .     A
C528   H549    1.111   .     S
C528   H548    1.108   .     S
C528   H547    1.105   .     S
C528   C533    1.496   .     S
C529   O564    1.381   .     S
C529   C531    1.416   .     A
C530   O565    1.373   .     S
C530   N557    1.382   .     A
C531   N558    1.381   .     A
C531   O566    1.372   .     S
C532   N557    1.377   .     A
C532   C534    1.412   .     A
C533   N558    1.380   .     A
C534   H554    1.084   .     S
H536   O632    0.992   .     S
H537   O561    0.989   .     S
H538   O778    0.990   1_545 S
H539   O131    0.990   1_556 S
H540   O564    0.990   .     S
H541   O565    0.986   .     S
H542   O566    0.985   .     S
N557   Zn576   2.025   .     S
N558   Zn575   2.025   .     S
O559   Zn575   1.985   .     S
O562   H754    0.990   .     S
O567   Zn576   1.985   .     S
O568   Zn576   1.986   .     S
O569   Zn575   1.986   .     S
O570   Zn575   1.995   .     S
O571   Zn576   1.995   .     S
O572   Zn576   1.978   .     S
O573   Zn575   1.978   .     S
O574   H628    0.992   .     S
O574   C583    1.384   .     S
C577   O631    1.295   .     A
C577   C590    1.435   .     S
C577   O640    1.292   .     A
C578   C580    1.400   .     A
C578   C605    1.413   .     A
C578   H627    1.083   .     S
C579   C606    1.399   .     A
C579   C599    1.420   .     A
C580   C601    1.419   .     A
C580   C147    1.524   1_556 S
C581   C583    1.407   .     S
C581   O644    1.289   .     A
C581   O642    1.276   .     A
C582   O645    1.284   .     A
C582   C584    1.408   .     S
C582   O643    1.282   .     A
C584   C439    1.334   1_655 S
C584   O488    1.388   1_655 S
C585   C587    1.379   .     A
C585   H607    1.084   .     S
C585   C596    1.400   .     A
C586   C597    1.399   .     A
C586   H618    1.084   .     S
C586   C589    1.381   .     A
C587   C590    1.392   .     A
C587   H622    1.082   .     S
C588   C591    1.444   .     S
C588   O641    1.296   .     A
C588   O639    1.295   .     A
C589   C591    1.397   .     A
C589   H623    1.083   .     S
C590   C592    1.400   .     A
C591   C593    1.400   .     A
C592   H624    1.084   .     S
C592   C594    1.386   .     A
C593   H625    1.080   .     S
C593   C595    1.384   .     A
C594   O633    1.382   .     S
C594   C596    1.413   .     A
C595   C597    1.412   .     A
C595   O634    1.382   .     S
C596   C813    1.445   1_545 S
C597   C812    1.445   .     S
C598   H616    1.107   .     S
C598   C604    1.486   .     S
C598   H617    1.111   .     S
C598   H615    1.107   .     S
C599   O635    1.381   .     S
C599   C602    1.417   .     A
C600   H621    1.111   .     S
C600   H620    1.108   .     S
C600   H619    1.105   .     S
C600   C605    1.496   .     S
C601   O636    1.381   .     S
C601   C603    1.416   .     A
C602   O637    1.373   .     S
C602   N629    1.382   .     A
C603   N630    1.381   .     A
C603   O638    1.372   .     S
C604   N629    1.377   .     A
C604   C606    1.412   .     A
C605   N630    1.380   .     A
C606   H626    1.084   .     S
H608   O488    0.992   1_655 S
H609   O633    0.989   .     S
H610   O850    0.990   1_545 S
H611   O203    0.990   1_556 S
H612   O636    0.990   .     S
H613   O637    0.986   .     S
H614   O638    0.985   .     S
N629   Zn648   2.025   .     S
N630   Zn647   2.025   .     S
O631   Zn647   1.985   .     S
O634   H826    0.990   .     S
O639   Zn648   1.985   .     S
O640   Zn648   1.986   .     S
O641   Zn647   1.986   .     S
O642   Zn647   1.995   .     S
O643   Zn648   1.995   .     S
O644   Zn648   1.978   .     S
O645   Zn647   1.978   .     S
O646   H484    0.992   1_655 S
O646   C439    1.384   1_655 S
C649   O703    1.295   .     A
C649   C662    1.435   .     S
C649   O712    1.292   .     A
C650   C652    1.400   .     A
C650   C677    1.413   .     A
C650   H699    1.083   .     S
C651   C678    1.399   .     A
C651   C671    1.420   .     A
C652   C673    1.419   .     A
C652   C219    1.524   1_556 S
C653   C655    1.407   .     S
C653   O716    1.289   .     A
C653   O714    1.276   .     A
C654   O717    1.284   .     A
C654   C656    1.408   .     S
C654   O715    1.282   .     A
C655   C800    1.334   1_455 S
C655   O862    1.384   1_455 S
C656   C727    1.334   .     S
C656   O776    1.388   .     S
C657   C659    1.379   .     A
C657   H679    1.084   .     S
C657   C668    1.400   .     A
C658   C669    1.399   .     A
C658   H690    1.084   .     S
C658   C661    1.381   .     A
C659   C662    1.392   .     A
C659   H694    1.082   .     S
C660   C663    1.444   .     S
C660   O713    1.296   .     A
C660   O711    1.295   .     A
C661   C663    1.397   .     A
C661   H695    1.083   .     S
C662   C664    1.400   .     A
C663   C665    1.400   .     A
C664   H696    1.084   .     S
C664   C666    1.386   .     A
C665   H697    1.080   .     S
C665   C667    1.384   .     A
C666   O705    1.382   .     S
C666   C668    1.413   .     A
C667   C669    1.412   .     A
C667   O706    1.382   .     S
C669   C452    1.445   1_565 S
C670   H688    1.107   .     S
C670   C676    1.486   .     S
C670   H689    1.111   .     S
C670   H687    1.107   .     S
C671   O707    1.381   .     S
C671   C674    1.417   .     A
C672   H693    1.111   .     S
C672   H692    1.108   .     S
C672   H691    1.105   .     S
C672   C677    1.496   .     S
C673   O708    1.381   .     S
C673   C675    1.416   .     A
C674   O709    1.373   .     S
C674   N701    1.382   .     A
C675   N702    1.381   .     A
C675   O710    1.372   .     S
C676   N701    1.377   .     A
C676   C678    1.412   .     A
C677   N702    1.380   .     A
C678   H698    1.084   .     S
H680   O776    0.992   .     S
H681   O705    0.989   .     S
H683   O275    0.990   1_556 S
H684   O708    0.990   .     S
H685   O709    0.986   .     S
H686   O710    0.985   .     S
H700   O862    0.992   1_455 S
N701   Zn720   2.025   .     S
N702   Zn719   2.025   .     S
O703   Zn719   1.985   .     S
O704   H824    0.992   1_455 S
O704   C800    1.388   1_455 S
O706   H466    0.990   1_565 S
O711   Zn720   1.985   .     S
O712   Zn720   1.986   .     S
O713   Zn719   1.986   .     S
O714   Zn719   1.995   .     S
O715   Zn720   1.995   .     S
O716   Zn720   1.978   .     S
O717   Zn719   1.978   .     S
O718   H772    0.992   .     S
O718   C727    1.384   .     S
C721   O775    1.295   .     A
C721   C734    1.435   .     S
C721   O784    1.292   .     A
C722   C724    1.400   .     A
C722   C749    1.413   .     A
C722   H771    1.083   .     S
C723   C750    1.399   .     A
C723   C743    1.420   .     A
C724   C745    1.419   .     A
C724   C291    1.524   1_556 S
C725   C727    1.407   .     S
C725   O788    1.289   .     A
C725   O786    1.276   .     A
C726   O789    1.284   .     A
C726   C728    1.408   .     S
C726   O787    1.282   .     A
C728   C799    1.334   .     S
C728   O848    1.388   .     S
C729   C731    1.379   .     A
C729   H751    1.084   .     S
C729   C740    1.400   .     A
C730   C741    1.399   .     A
C730   H762    1.084   .     S
C730   C733    1.381   .     A
C731   C734    1.392   .     A
C731   H766    1.082   .     S
C732   C735    1.444   .     S
C732   O785    1.296   .     A
C732   O783    1.295   .     A
C733   C735    1.397   .     A
C733   H767    1.083   .     S
C734   C736    1.400   .     A
C735   C737    1.400   .     A
C736   H768    1.084   .     S
C736   C738    1.386   .     A
C737   H769    1.080   .     S
C737   C739    1.384   .     A
C738   O777    1.382   .     S
C738   C740    1.413   .     A
C739   C741    1.412   .     A
C739   O778    1.382   .     S
C741   C524    1.445   1_565 S
C742   H760    1.107   .     S
C742   C748    1.486   .     S
C742   H761    1.111   .     S
C742   H759    1.107   .     S
C743   O779    1.381   .     S
C743   C746    1.417   .     A
C744   H765    1.111   .     S
C744   H764    1.108   .     S
C744   H763    1.105   .     S
C744   C749    1.496   .     S
C745   O780    1.381   .     S
C745   C747    1.416   .     A
C746   O781    1.373   .     S
C746   N773    1.382   .     A
C747   N774    1.381   .     A
C747   O782    1.372   .     S
C748   N773    1.377   .     A
C748   C750    1.412   .     A
C749   N774    1.380   .     A
C750   H770    1.084   .     S
H752   O848    0.992   .     S
H753   O777    0.989   .     S
H755   O347    0.990   1_556 S
H756   O780    0.990   .     S
H757   O781    0.986   .     S
H758   O782    0.985   .     S
N773   Zn792   2.025   .     S
N774   Zn791   2.025   .     S
O775   Zn791   1.985   .     S
O778   H538    0.990   1_565 S
O783   Zn792   1.985   .     S
O784   Zn792   1.986   .     S
O785   Zn791   1.986   .     S
O786   Zn791   1.995   .     S
O787   Zn792   1.995   .     S
O788   Zn792   1.978   .     S
O789   Zn791   1.978   .     S
O790   H844    0.992   .     S
O790   C799    1.384   .     S
C793   O847    1.295   .     A
C793   C806    1.435   .     S
C793   O856    1.292   .     A
C794   C796    1.400   .     A
C794   C821    1.413   .     A
C794   H843    1.083   .     S
C795   C822    1.399   .     A
C795   C815    1.420   .     A
C796   C817    1.419   .     A
C796   C363    1.524   1_556 S
C797   C799    1.407   .     S
C797   O860    1.289   .     A
C797   O858    1.276   .     A
C798   O861    1.284   .     A
C798   C800    1.408   .     S
C798   O859    1.282   .     A
C800   C655    1.334   1_655 S
C800   O704    1.388   1_655 S
C801   C803    1.379   .     A
C801   H823    1.084   .     S
C801   C812    1.400   .     A
C802   C813    1.399   .     A
C802   H834    1.084   .     S
C802   C805    1.381   .     A
C803   C806    1.392   .     A
C803   H838    1.082   .     S
C804   C807    1.444   .     S
C804   O857    1.296   .     A
C804   O855    1.295   .     A
C805   C807    1.397   .     A
C805   H839    1.083   .     S
C806   C808    1.400   .     A
C807   C809    1.400   .     A
C808   H840    1.084   .     S
C808   C810    1.386   .     A
C809   H841    1.080   .     S
C809   C811    1.384   .     A
C810   O849    1.382   .     S
C810   C812    1.413   .     A
C811   C813    1.412   .     A
C811   O850    1.382   .     S
C813   C596    1.445   1_565 S
C814   H832    1.107   .     S
C814   C820    1.486   .     S
C814   H833    1.111   .     S
C814   H831    1.107   .     S
C815   O851    1.381   .     S
C815   C818    1.417   .     A
C816   H837    1.111   .     S
C816   H836    1.108   .     S
C816   H835    1.105   .     S
C816   C821    1.496   .     S
C817   O852    1.381   .     S
C817   C819    1.416   .     A
C818   O853    1.373   .     S
C818   N845    1.382   .     A
C819   N846    1.381   .     A
C819   O854    1.372   .     S
C820   N845    1.377   .     A
C820   C822    1.412   .     A
C821   N846    1.380   .     A
C822   H842    1.084   .     S
H824   O704    0.992   1_655 S
H825   O849    0.989   .     S
H827   O419    0.990   1_556 S
H828   O852    0.990   .     S
H829   O853    0.986   .     S
H830   O854    0.985   .     S
N845   Zn864   2.025   .     S
N846   Zn863   2.025   .     S
O847   Zn863   1.985   .     S
O850   H610    0.990   1_565 S
O855   Zn864   1.985   .     S
O856   Zn864   1.986   .     S
O857   Zn863   1.986   .     S
O858   Zn863   1.995   .     S
O859   Zn864   1.995   .     S
O860   Zn864   1.978   .     S
O861   Zn863   1.978   .     S
O862   H700    0.992   1_655 S
O862   C655    1.384   1_655 S
