data_str_m3_o10_o18_pcu_sym.3
_audit_creation_date              2020-01-03
_audit_creation_method            'Materials Studio'
_symmetry_space_group_name_H-M    'P1'
_symmetry_Int_Tables_number       1
_symmetry_cell_setting            triclinic
loop_
_symmetry_equiv_pos_as_xyz
  x,y,z
_cell_length_a                    23.5399
_cell_length_b                    25.6978
_cell_length_c                    27.3597
_cell_angle_alpha                 93.4509
_cell_angle_beta                  92.6882
_cell_angle_gamma                 94.3322
loop_
_atom_site_label
_atom_site_type_symbol
_atom_site_fract_x
_atom_site_fract_y
_atom_site_fract_z
_atom_site_U_iso_or_equiv
_atom_site_adp_type
_atom_site_occupancy
C1     C     0.01508   0.26490   0.24879   0.00000  Uiso   1.00
C2     C     0.31259   0.16293   0.15890   0.00000  Uiso   1.00
C3     C     0.03057   0.17581   0.39394   0.00000  Uiso   1.00
C4     C     0.30277   0.15753   0.10606   0.00000  Uiso   1.00
C5     C     0.02070   0.22431   0.47091   0.00000  Uiso   1.00
C6     C     0.31263   0.10903   0.02909   0.00000  Uiso   1.00
C7     C     0.00286   0.21252   0.42206   0.00000  Uiso   1.00
C8     C     0.33048   0.12082   0.07794   0.00000  Uiso   1.00
C9     C     0.07401   0.14935   0.41515   0.00000  Uiso   1.00
C10    C     0.25933   0.18398   0.08485   0.00000  Uiso   1.00
C11    C     0.10068   0.16985   0.45996   0.00000  Uiso   1.00
C12    C     0.31825   0.06843   0.25121   0.00000  Uiso   1.00
C13    C     0.23266   0.16349   0.04004   0.00000  Uiso   1.00
C14    C     0.07025   0.20410   0.48976   0.00000  Uiso   1.00
C15    C     0.26309   0.12924   0.01024   0.00000  Uiso   1.00
C16    C     0.15645   0.15853   0.47577   0.00000  Uiso   1.00
C17    C     0.17688   0.17480   0.02423   0.00000  Uiso   1.00
C18    C     0.24980   0.23575   0.10572   0.00000  Uiso   1.00
C19    C     0.08354   0.09759   0.39428   0.00000  Uiso   1.00
C20    C     0.13975   0.19917   0.05606   0.00000  Uiso   1.00
C21    C     0.19358   0.13416   0.44394   0.00000  Uiso   1.00
C22    C     0.08893   0.21653   0.03826   0.00000  Uiso   1.00
C23    C     0.24440   0.11680   0.46173   0.00000  Uiso   1.00
C24    C     0.02291   0.31951   0.24814   0.00000  Uiso   1.00
C25    C     0.31043   0.01382   0.25186   0.00000  Uiso   1.00
C26    C     0.02074   0.17041   0.34110   0.00000  Uiso   1.00
H27    H     0.06353   0.23866   0.06283   0.00000  Uiso   1.00
H28    H     0.26729   0.32989   0.25536   0.00000  Uiso   1.00
H29    H     0.16233   0.12460   0.21367   0.00000  Uiso   1.00
H30    H     0.17100   0.20873   0.28633   0.00000  Uiso   1.00
H31    H     0.26981   0.09468   0.43717   0.00000  Uiso   1.00
H32    H     0.03198   0.10112   0.09381   0.00000  Uiso   1.00
H33    H     0.30135   0.23222   0.40619   0.00000  Uiso   1.00
H34    H     0.33100   0.25113   0.49311   0.00000  Uiso   1.00
H35    H     0.00233   0.08221   0.00689   0.00000  Uiso   1.00
H36    H     0.14901   0.20515   0.09504   0.00000  Uiso   1.00
H37    H     0.18433   0.12818   0.40496   0.00000  Uiso   1.00
H38    H     0.06604   0.00344   0.24464   0.00000  Uiso   1.00
N39    N     0.14695   0.15216   0.23740   0.00000  Uiso   1.00
N40    N     0.18638   0.18117   0.26260   0.00000  Uiso   1.00
N41    N     0.24254   0.27704   0.12241   0.00000  Uiso   1.00
N42    N     0.09079   0.05629   0.37759   0.00000  Uiso   1.00
O43    O     0.29719   0.24631   0.25309   0.00000  Uiso   1.00
O44    O     0.03614   0.08702   0.24691   0.00000  Uiso   1.00
O45    O     0.05822   0.23702   0.24502   0.00000  Uiso   1.00
O46    O     0.27512   0.09632   0.25498   0.00000  Uiso   1.00
O47    O     0.30328   0.17397   0.32247   0.00000  Uiso   1.00
O48    O     0.03005   0.15937   0.17753   0.00000  Uiso   1.00
O49    O     0.06431   0.16467   0.31439   0.00000  Uiso   1.00
O50    O     0.26902   0.16866   0.18561   0.00000  Uiso   1.00
Zn51   Zn    0.27033   0.17287   0.25539   0.00000  Uiso   1.00
Zn52   Zn    0.06300   0.16046   0.24461   0.00000  Uiso   1.00
C53    C     0.34842   0.26490   0.24879   0.00000  Uiso   1.00
C54    C     0.64593   0.16293   0.15890   0.00000  Uiso   1.00
C55    C     0.36390   0.17581   0.39394   0.00000  Uiso   1.00
C56    C     0.63610   0.15753   0.10606   0.00000  Uiso   1.00
C57    C     0.35403   0.22431   0.47091   0.00000  Uiso   1.00
C58    C     0.64597   0.10903   0.02909   0.00000  Uiso   1.00
C59    C     0.33619   0.21252   0.42206   0.00000  Uiso   1.00
C60    C     0.66381   0.12082   0.07794   0.00000  Uiso   1.00
C61    C     0.40734   0.14935   0.41515   0.00000  Uiso   1.00
C62    C     0.59266   0.18398   0.08485   0.00000  Uiso   1.00
C63    C     0.43401   0.16985   0.45996   0.00000  Uiso   1.00
C64    C     0.65158   0.06843   0.25121   0.00000  Uiso   1.00
C65    C     0.56599   0.16349   0.04004   0.00000  Uiso   1.00
C66    C     0.40358   0.20410   0.48976   0.00000  Uiso   1.00
C67    C     0.59642   0.12924   0.01024   0.00000  Uiso   1.00
C68    C     0.48979   0.15853   0.47577   0.00000  Uiso   1.00
C69    C     0.51021   0.17480   0.02423   0.00000  Uiso   1.00
C70    C     0.58313   0.23575   0.10572   0.00000  Uiso   1.00
C71    C     0.41687   0.09759   0.39428   0.00000  Uiso   1.00
C72    C     0.47309   0.19917   0.05606   0.00000  Uiso   1.00
C73    C     0.52691   0.13416   0.44394   0.00000  Uiso   1.00
C74    C     0.42227   0.21653   0.03826   0.00000  Uiso   1.00
C75    C     0.57773   0.11680   0.46173   0.00000  Uiso   1.00
C76    C     0.35624   0.31951   0.24814   0.00000  Uiso   1.00
C77    C     0.64376   0.01382   0.25186   0.00000  Uiso   1.00
C78    C     0.35407   0.17041   0.34110   0.00000  Uiso   1.00
H79    H     0.39686   0.23866   0.06283   0.00000  Uiso   1.00
H80    H     0.60063   0.32989   0.25536   0.00000  Uiso   1.00
H81    H     0.49567   0.12460   0.21367   0.00000  Uiso   1.00
H82    H     0.50433   0.20873   0.28633   0.00000  Uiso   1.00
H83    H     0.60314   0.09468   0.43717   0.00000  Uiso   1.00
H84    H     0.36532   0.10112   0.09381   0.00000  Uiso   1.00
H85    H     0.63468   0.23222   0.40619   0.00000  Uiso   1.00
H86    H     0.66434   0.25113   0.49311   0.00000  Uiso   1.00
H87    H     0.33567   0.08221   0.00689   0.00000  Uiso   1.00
H88    H     0.48234   0.20515   0.09504   0.00000  Uiso   1.00
H89    H     0.51766   0.12818   0.40496   0.00000  Uiso   1.00
H90    H     0.39937   0.00344   0.24464   0.00000  Uiso   1.00
N91    N     0.48029   0.15216   0.23740   0.00000  Uiso   1.00
N92    N     0.51971   0.18117   0.26260   0.00000  Uiso   1.00
N93    N     0.57588   0.27704   0.12241   0.00000  Uiso   1.00
N94    N     0.42412   0.05629   0.37759   0.00000  Uiso   1.00
O95    O     0.63052   0.24631   0.25309   0.00000  Uiso   1.00
O96    O     0.36948   0.08702   0.24691   0.00000  Uiso   1.00
O97    O     0.39155   0.23702   0.24502   0.00000  Uiso   1.00
O98    O     0.60845   0.09632   0.25498   0.00000  Uiso   1.00
O99    O     0.63662   0.17397   0.32247   0.00000  Uiso   1.00
O100   O     0.36338   0.15937   0.17753   0.00000  Uiso   1.00
O101   O     0.39764   0.16467   0.31439   0.00000  Uiso   1.00
O102   O     0.60236   0.16866   0.18561   0.00000  Uiso   1.00
Zn103  Zn    0.60366   0.17287   0.25539   0.00000  Uiso   1.00
Zn104  Zn    0.39634   0.16046   0.24461   0.00000  Uiso   1.00
C105   C     0.68175   0.26490   0.24879   0.00000  Uiso   1.00
C106   C     0.97926   0.16293   0.15890   0.00000  Uiso   1.00
C107   C     0.69724   0.17581   0.39394   0.00000  Uiso   1.00
C108   C     0.96943   0.15753   0.10606   0.00000  Uiso   1.00
C109   C     0.68737   0.22431   0.47091   0.00000  Uiso   1.00
C110   C     0.97930   0.10903   0.02909   0.00000  Uiso   1.00
C111   C     0.66953   0.21252   0.42206   0.00000  Uiso   1.00
C112   C     0.99714   0.12082   0.07794   0.00000  Uiso   1.00
C113   C     0.74067   0.14935   0.41515   0.00000  Uiso   1.00
C114   C     0.92599   0.18398   0.08485   0.00000  Uiso   1.00
C115   C     0.76734   0.16985   0.45996   0.00000  Uiso   1.00
C116   C     0.98492   0.06843   0.25121   0.00000  Uiso   1.00
C117   C     0.89932   0.16349   0.04004   0.00000  Uiso   1.00
C118   C     0.73691   0.20410   0.48976   0.00000  Uiso   1.00
C119   C     0.92975   0.12924   0.01024   0.00000  Uiso   1.00
C120   C     0.82312   0.15853   0.47577   0.00000  Uiso   1.00
C121   C     0.84355   0.17480   0.02423   0.00000  Uiso   1.00
C122   C     0.91646   0.23575   0.10572   0.00000  Uiso   1.00
C123   C     0.75020   0.09759   0.39428   0.00000  Uiso   1.00
C124   C     0.80642   0.19917   0.05606   0.00000  Uiso   1.00
C125   C     0.86025   0.13416   0.44394   0.00000  Uiso   1.00
C126   C     0.75560   0.21653   0.03826   0.00000  Uiso   1.00
C127   C     0.91107   0.11680   0.46173   0.00000  Uiso   1.00
C128   C     0.68957   0.31951   0.24814   0.00000  Uiso   1.00
C129   C     0.97709   0.01382   0.25186   0.00000  Uiso   1.00
C130   C     0.68741   0.17041   0.34110   0.00000  Uiso   1.00
H131   H     0.73019   0.23866   0.06283   0.00000  Uiso   1.00
H132   H     0.93396   0.32989   0.25536   0.00000  Uiso   1.00
H133   H     0.82900   0.12460   0.21367   0.00000  Uiso   1.00
H134   H     0.83767   0.20873   0.28633   0.00000  Uiso   1.00
H135   H     0.93647   0.09468   0.43717   0.00000  Uiso   1.00
H136   H     0.69865   0.10112   0.09381   0.00000  Uiso   1.00
H137   H     0.96802   0.23222   0.40619   0.00000  Uiso   1.00
H138   H     0.99767   0.25113   0.49311   0.00000  Uiso   1.00
H139   H     0.66900   0.08221   0.00689   0.00000  Uiso   1.00
H140   H     0.81567   0.20515   0.09504   0.00000  Uiso   1.00
H141   H     0.85099   0.12818   0.40496   0.00000  Uiso   1.00
H142   H     0.73271   0.00344   0.24464   0.00000  Uiso   1.00
N143   N     0.81362   0.15216   0.23740   0.00000  Uiso   1.00
N144   N     0.85305   0.18117   0.26260   0.00000  Uiso   1.00
N145   N     0.90921   0.27704   0.12241   0.00000  Uiso   1.00
N146   N     0.75745   0.05629   0.37759   0.00000  Uiso   1.00
O147   O     0.96386   0.24631   0.25309   0.00000  Uiso   1.00
O148   O     0.70281   0.08702   0.24691   0.00000  Uiso   1.00
O149   O     0.72488   0.23702   0.24502   0.00000  Uiso   1.00
O150   O     0.94178   0.09632   0.25498   0.00000  Uiso   1.00
O151   O     0.96995   0.17397   0.32247   0.00000  Uiso   1.00
O152   O     0.69672   0.15937   0.17753   0.00000  Uiso   1.00
O153   O     0.73098   0.16467   0.31439   0.00000  Uiso   1.00
O154   O     0.93569   0.16866   0.18561   0.00000  Uiso   1.00
Zn155  Zn    0.93700   0.17287   0.25539   0.00000  Uiso   1.00
Zn156  Zn    0.72967   0.16046   0.24461   0.00000  Uiso   1.00
C157   C     0.01508   0.59824   0.24879   0.00000  Uiso   1.00
C158   C     0.31259   0.49626   0.15890   0.00000  Uiso   1.00
C159   C     0.03057   0.50914   0.39394   0.00000  Uiso   1.00
C160   C     0.30277   0.49086   0.10606   0.00000  Uiso   1.00
C161   C     0.02070   0.55764   0.47091   0.00000  Uiso   1.00
C162   C     0.31263   0.44236   0.02909   0.00000  Uiso   1.00
C163   C     0.00286   0.54585   0.42206   0.00000  Uiso   1.00
C164   C     0.33048   0.45415   0.07794   0.00000  Uiso   1.00
C165   C     0.07401   0.48269   0.41515   0.00000  Uiso   1.00
C166   C     0.25933   0.51731   0.08485   0.00000  Uiso   1.00
C167   C     0.10068   0.50318   0.45996   0.00000  Uiso   1.00
C168   C     0.31825   0.40176   0.25121   0.00000  Uiso   1.00
C169   C     0.23266   0.49682   0.04004   0.00000  Uiso   1.00
C170   C     0.07025   0.53743   0.48976   0.00000  Uiso   1.00
C171   C     0.26309   0.46257   0.01024   0.00000  Uiso   1.00
C172   C     0.15645   0.49186   0.47577   0.00000  Uiso   1.00
C173   C     0.17688   0.50814   0.02423   0.00000  Uiso   1.00
C174   C     0.24980   0.56908   0.10572   0.00000  Uiso   1.00
C175   C     0.08354   0.43092   0.39428   0.00000  Uiso   1.00
C176   C     0.13975   0.53250   0.05606   0.00000  Uiso   1.00
C177   C     0.19358   0.46750   0.44394   0.00000  Uiso   1.00
C178   C     0.08893   0.54987   0.03826   0.00000  Uiso   1.00
C179   C     0.24440   0.45013   0.46173   0.00000  Uiso   1.00
C180   C     0.02291   0.65285   0.24814   0.00000  Uiso   1.00
C181   C     0.31043   0.34715   0.25186   0.00000  Uiso   1.00
C182   C     0.02074   0.50374   0.34110   0.00000  Uiso   1.00
H183   H     0.06353   0.57199   0.06283   0.00000  Uiso   1.00
H184   H     0.26729   0.66322   0.25536   0.00000  Uiso   1.00
H185   H     0.16233   0.45794   0.21367   0.00000  Uiso   1.00
H186   H     0.17100   0.54206   0.28633   0.00000  Uiso   1.00
H187   H     0.26981   0.42801   0.43717   0.00000  Uiso   1.00
H188   H     0.03198   0.43445   0.09381   0.00000  Uiso   1.00
H189   H     0.30135   0.56555   0.40619   0.00000  Uiso   1.00
H190   H     0.33100   0.58446   0.49311   0.00000  Uiso   1.00
H191   H     0.00233   0.41554   0.00689   0.00000  Uiso   1.00
H192   H     0.14901   0.53849   0.09504   0.00000  Uiso   1.00
H193   H     0.18433   0.46151   0.40496   0.00000  Uiso   1.00
H194   H     0.06604   0.33678   0.24464   0.00000  Uiso   1.00
N195   N     0.14695   0.48550   0.23740   0.00000  Uiso   1.00
N196   N     0.18638   0.51450   0.26260   0.00000  Uiso   1.00
N197   N     0.24254   0.61038   0.12241   0.00000  Uiso   1.00
N198   N     0.09079   0.38962   0.37759   0.00000  Uiso   1.00
O199   O     0.29719   0.57964   0.25309   0.00000  Uiso   1.00
O200   O     0.03614   0.42036   0.24691   0.00000  Uiso   1.00
O201   O     0.05822   0.57035   0.24502   0.00000  Uiso   1.00
O202   O     0.27512   0.42965   0.25498   0.00000  Uiso   1.00
O203   O     0.30328   0.50730   0.32247   0.00000  Uiso   1.00
O204   O     0.03005   0.49270   0.17753   0.00000  Uiso   1.00
O205   O     0.06431   0.49801   0.31439   0.00000  Uiso   1.00
O206   O     0.26902   0.50199   0.18561   0.00000  Uiso   1.00
Zn207  Zn    0.27033   0.50621   0.25539   0.00000  Uiso   1.00
Zn208  Zn    0.06300   0.49379   0.24461   0.00000  Uiso   1.00
C209   C     0.34842   0.59824   0.24879   0.00000  Uiso   1.00
C210   C     0.64593   0.49626   0.15890   0.00000  Uiso   1.00
C211   C     0.36390   0.50914   0.39394   0.00000  Uiso   1.00
C212   C     0.63610   0.49086   0.10606   0.00000  Uiso   1.00
C213   C     0.35403   0.55764   0.47091   0.00000  Uiso   1.00
C214   C     0.64597   0.44236   0.02909   0.00000  Uiso   1.00
C215   C     0.33619   0.54585   0.42206   0.00000  Uiso   1.00
C216   C     0.66381   0.45415   0.07794   0.00000  Uiso   1.00
C217   C     0.40734   0.48269   0.41515   0.00000  Uiso   1.00
C218   C     0.59266   0.51731   0.08485   0.00000  Uiso   1.00
C219   C     0.43401   0.50318   0.45996   0.00000  Uiso   1.00
C220   C     0.65158   0.40176   0.25121   0.00000  Uiso   1.00
C221   C     0.56599   0.49682   0.04004   0.00000  Uiso   1.00
C222   C     0.40358   0.53743   0.48976   0.00000  Uiso   1.00
C223   C     0.59642   0.46257   0.01024   0.00000  Uiso   1.00
C224   C     0.48979   0.49186   0.47577   0.00000  Uiso   1.00
C225   C     0.51021   0.50814   0.02423   0.00000  Uiso   1.00
C226   C     0.58313   0.56908   0.10572   0.00000  Uiso   1.00
C227   C     0.41687   0.43092   0.39428   0.00000  Uiso   1.00
C228   C     0.47309   0.53250   0.05606   0.00000  Uiso   1.00
C229   C     0.52691   0.46750   0.44394   0.00000  Uiso   1.00
C230   C     0.42227   0.54987   0.03826   0.00000  Uiso   1.00
C231   C     0.57773   0.45013   0.46173   0.00000  Uiso   1.00
C232   C     0.35624   0.65285   0.24814   0.00000  Uiso   1.00
C233   C     0.64376   0.34715   0.25186   0.00000  Uiso   1.00
C234   C     0.35407   0.50374   0.34110   0.00000  Uiso   1.00
H235   H     0.39686   0.57199   0.06283   0.00000  Uiso   1.00
H236   H     0.60063   0.66322   0.25536   0.00000  Uiso   1.00
H237   H     0.49567   0.45794   0.21367   0.00000  Uiso   1.00
H238   H     0.50433   0.54206   0.28633   0.00000  Uiso   1.00
H239   H     0.60314   0.42801   0.43717   0.00000  Uiso   1.00
H240   H     0.36532   0.43445   0.09381   0.00000  Uiso   1.00
H241   H     0.63468   0.56555   0.40619   0.00000  Uiso   1.00
H242   H     0.66434   0.58446   0.49311   0.00000  Uiso   1.00
H243   H     0.33567   0.41554   0.00689   0.00000  Uiso   1.00
H244   H     0.48234   0.53849   0.09504   0.00000  Uiso   1.00
H245   H     0.51766   0.46151   0.40496   0.00000  Uiso   1.00
H246   H     0.39937   0.33678   0.24464   0.00000  Uiso   1.00
N247   N     0.48029   0.48550   0.23740   0.00000  Uiso   1.00
N248   N     0.51971   0.51450   0.26260   0.00000  Uiso   1.00
N249   N     0.57588   0.61038   0.12241   0.00000  Uiso   1.00
N250   N     0.42412   0.38962   0.37759   0.00000  Uiso   1.00
O251   O     0.63052   0.57964   0.25309   0.00000  Uiso   1.00
O252   O     0.36948   0.42036   0.24691   0.00000  Uiso   1.00
O253   O     0.39155   0.57035   0.24502   0.00000  Uiso   1.00
O254   O     0.60845   0.42965   0.25498   0.00000  Uiso   1.00
O255   O     0.63662   0.50730   0.32247   0.00000  Uiso   1.00
O256   O     0.36338   0.49270   0.17753   0.00000  Uiso   1.00
O257   O     0.39764   0.49801   0.31439   0.00000  Uiso   1.00
O258   O     0.60236   0.50199   0.18561   0.00000  Uiso   1.00
Zn259  Zn    0.60366   0.50621   0.25539   0.00000  Uiso   1.00
Zn260  Zn    0.39634   0.49379   0.24461   0.00000  Uiso   1.00
C261   C     0.68175   0.59824   0.24879   0.00000  Uiso   1.00
C262   C     0.97926   0.49626   0.15890   0.00000  Uiso   1.00
C263   C     0.69724   0.50914   0.39394   0.00000  Uiso   1.00
C264   C     0.96943   0.49086   0.10606   0.00000  Uiso   1.00
C265   C     0.68737   0.55764   0.47091   0.00000  Uiso   1.00
C266   C     0.97930   0.44236   0.02909   0.00000  Uiso   1.00
C267   C     0.66953   0.54585   0.42206   0.00000  Uiso   1.00
C268   C     0.99714   0.45415   0.07794   0.00000  Uiso   1.00
C269   C     0.74067   0.48269   0.41515   0.00000  Uiso   1.00
C270   C     0.92599   0.51731   0.08485   0.00000  Uiso   1.00
C271   C     0.76734   0.50318   0.45996   0.00000  Uiso   1.00
C272   C     0.98492   0.40176   0.25121   0.00000  Uiso   1.00
C273   C     0.89932   0.49682   0.04004   0.00000  Uiso   1.00
C274   C     0.73691   0.53743   0.48976   0.00000  Uiso   1.00
C275   C     0.92975   0.46257   0.01024   0.00000  Uiso   1.00
C276   C     0.82312   0.49186   0.47577   0.00000  Uiso   1.00
C277   C     0.84355   0.50814   0.02423   0.00000  Uiso   1.00
C278   C     0.91646   0.56908   0.10572   0.00000  Uiso   1.00
C279   C     0.75020   0.43092   0.39428   0.00000  Uiso   1.00
C280   C     0.80642   0.53250   0.05606   0.00000  Uiso   1.00
C281   C     0.86025   0.46750   0.44394   0.00000  Uiso   1.00
C282   C     0.75560   0.54987   0.03826   0.00000  Uiso   1.00
C283   C     0.91107   0.45013   0.46173   0.00000  Uiso   1.00
C284   C     0.68957   0.65285   0.24814   0.00000  Uiso   1.00
C285   C     0.97709   0.34715   0.25186   0.00000  Uiso   1.00
C286   C     0.68741   0.50374   0.34110   0.00000  Uiso   1.00
H287   H     0.73019   0.57199   0.06283   0.00000  Uiso   1.00
H288   H     0.93396   0.66322   0.25536   0.00000  Uiso   1.00
H289   H     0.82900   0.45794   0.21367   0.00000  Uiso   1.00
H290   H     0.83767   0.54206   0.28633   0.00000  Uiso   1.00
H291   H     0.93647   0.42801   0.43717   0.00000  Uiso   1.00
H292   H     0.69865   0.43445   0.09381   0.00000  Uiso   1.00
H293   H     0.96802   0.56555   0.40619   0.00000  Uiso   1.00
H294   H     0.99767   0.58446   0.49311   0.00000  Uiso   1.00
H295   H     0.66900   0.41554   0.00689   0.00000  Uiso   1.00
H296   H     0.81567   0.53849   0.09504   0.00000  Uiso   1.00
H297   H     0.85099   0.46151   0.40496   0.00000  Uiso   1.00
H298   H     0.73271   0.33678   0.24464   0.00000  Uiso   1.00
N299   N     0.81362   0.48550   0.23740   0.00000  Uiso   1.00
N300   N     0.85305   0.51450   0.26260   0.00000  Uiso   1.00
N301   N     0.90921   0.61038   0.12241   0.00000  Uiso   1.00
N302   N     0.75745   0.38962   0.37759   0.00000  Uiso   1.00
O303   O     0.96386   0.57964   0.25309   0.00000  Uiso   1.00
O304   O     0.70281   0.42036   0.24691   0.00000  Uiso   1.00
O305   O     0.72488   0.57035   0.24502   0.00000  Uiso   1.00
O306   O     0.94178   0.42965   0.25498   0.00000  Uiso   1.00
O307   O     0.96995   0.50730   0.32247   0.00000  Uiso   1.00
O308   O     0.69672   0.49270   0.17753   0.00000  Uiso   1.00
O309   O     0.73098   0.49801   0.31439   0.00000  Uiso   1.00
O310   O     0.93569   0.50199   0.18561   0.00000  Uiso   1.00
Zn311  Zn    0.93700   0.50621   0.25539   0.00000  Uiso   1.00
Zn312  Zn    0.72967   0.49379   0.24461   0.00000  Uiso   1.00
C313   C     0.01508   0.93157   0.24879   0.00000  Uiso   1.00
C314   C     0.31259   0.82959   0.15890   0.00000  Uiso   1.00
C315   C     0.03057   0.84247   0.39394   0.00000  Uiso   1.00
C316   C     0.30277   0.82419   0.10606   0.00000  Uiso   1.00
C317   C     0.02070   0.89098   0.47091   0.00000  Uiso   1.00
C318   C     0.31263   0.77569   0.02909   0.00000  Uiso   1.00
C319   C     0.00286   0.87918   0.42206   0.00000  Uiso   1.00
C320   C     0.33048   0.78748   0.07794   0.00000  Uiso   1.00
C321   C     0.07401   0.81602   0.41515   0.00000  Uiso   1.00
C322   C     0.25933   0.85065   0.08485   0.00000  Uiso   1.00
C323   C     0.10068   0.83651   0.45996   0.00000  Uiso   1.00
C324   C     0.31825   0.73510   0.25121   0.00000  Uiso   1.00
C325   C     0.23266   0.83016   0.04004   0.00000  Uiso   1.00
C326   C     0.07025   0.87076   0.48976   0.00000  Uiso   1.00
C327   C     0.26309   0.79591   0.01024   0.00000  Uiso   1.00
C328   C     0.15645   0.82520   0.47577   0.00000  Uiso   1.00
C329   C     0.17688   0.84147   0.02423   0.00000  Uiso   1.00
C330   C     0.24980   0.90241   0.10572   0.00000  Uiso   1.00
C331   C     0.08354   0.76425   0.39428   0.00000  Uiso   1.00
C332   C     0.13975   0.86584   0.05606   0.00000  Uiso   1.00
C333   C     0.19358   0.80083   0.44394   0.00000  Uiso   1.00
C334   C     0.08893   0.88320   0.03826   0.00000  Uiso   1.00
C335   C     0.24440   0.78347   0.46173   0.00000  Uiso   1.00
C336   C     0.02291   0.98618   0.24814   0.00000  Uiso   1.00
C337   C     0.31043   0.68049   0.25186   0.00000  Uiso   1.00
C338   C     0.02074   0.83707   0.34110   0.00000  Uiso   1.00
H339   H     0.06353   0.90532   0.06283   0.00000  Uiso   1.00
H340   H     0.26729   0.99656   0.25536   0.00000  Uiso   1.00
H341   H     0.16233   0.79127   0.21367   0.00000  Uiso   1.00
H342   H     0.17100   0.87540   0.28633   0.00000  Uiso   1.00
H343   H     0.26981   0.76134   0.43717   0.00000  Uiso   1.00
H344   H     0.03198   0.76779   0.09381   0.00000  Uiso   1.00
H345   H     0.30135   0.89888   0.40619   0.00000  Uiso   1.00
H346   H     0.33100   0.91780   0.49311   0.00000  Uiso   1.00
H347   H     0.00233   0.74887   0.00689   0.00000  Uiso   1.00
H348   H     0.14901   0.87182   0.09504   0.00000  Uiso   1.00
H349   H     0.18433   0.79485   0.40496   0.00000  Uiso   1.00
H350   H     0.06604   0.67011   0.24464   0.00000  Uiso   1.00
N351   N     0.14695   0.81883   0.23740   0.00000  Uiso   1.00
N352   N     0.18638   0.84784   0.26260   0.00000  Uiso   1.00
N353   N     0.24254   0.94371   0.12241   0.00000  Uiso   1.00
N354   N     0.09079   0.72296   0.37759   0.00000  Uiso   1.00
O355   O     0.29719   0.91298   0.25309   0.00000  Uiso   1.00
O356   O     0.03614   0.75369   0.24691   0.00000  Uiso   1.00
O357   O     0.05822   0.90368   0.24502   0.00000  Uiso   1.00
O358   O     0.27512   0.76298   0.25498   0.00000  Uiso   1.00
O359   O     0.30328   0.84063   0.32247   0.00000  Uiso   1.00
O360   O     0.03005   0.82603   0.17753   0.00000  Uiso   1.00
O361   O     0.06431   0.83134   0.31439   0.00000  Uiso   1.00
O362   O     0.26902   0.83533   0.18561   0.00000  Uiso   1.00
Zn363  Zn    0.27033   0.83954   0.25539   0.00000  Uiso   1.00
Zn364  Zn    0.06300   0.82713   0.24461   0.00000  Uiso   1.00
C365   C     0.34842   0.93157   0.24879   0.00000  Uiso   1.00
C366   C     0.64593   0.82959   0.15890   0.00000  Uiso   1.00
C367   C     0.36390   0.84247   0.39394   0.00000  Uiso   1.00
C368   C     0.63610   0.82419   0.10606   0.00000  Uiso   1.00
C369   C     0.35403   0.89098   0.47091   0.00000  Uiso   1.00
C370   C     0.64597   0.77569   0.02909   0.00000  Uiso   1.00
C371   C     0.33619   0.87918   0.42206   0.00000  Uiso   1.00
C372   C     0.66381   0.78748   0.07794   0.00000  Uiso   1.00
C373   C     0.40734   0.81602   0.41515   0.00000  Uiso   1.00
C374   C     0.59266   0.85065   0.08485   0.00000  Uiso   1.00
C375   C     0.43401   0.83651   0.45996   0.00000  Uiso   1.00
C376   C     0.65158   0.73510   0.25121   0.00000  Uiso   1.00
C377   C     0.56599   0.83016   0.04004   0.00000  Uiso   1.00
C378   C     0.40358   0.87076   0.48976   0.00000  Uiso   1.00
C379   C     0.59642   0.79591   0.01024   0.00000  Uiso   1.00
C380   C     0.48979   0.82520   0.47577   0.00000  Uiso   1.00
C381   C     0.51021   0.84147   0.02423   0.00000  Uiso   1.00
C382   C     0.58313   0.90241   0.10572   0.00000  Uiso   1.00
C383   C     0.41687   0.76425   0.39428   0.00000  Uiso   1.00
C384   C     0.47309   0.86584   0.05606   0.00000  Uiso   1.00
C385   C     0.52691   0.80083   0.44394   0.00000  Uiso   1.00
C386   C     0.42227   0.88320   0.03826   0.00000  Uiso   1.00
C387   C     0.57773   0.78347   0.46173   0.00000  Uiso   1.00
C388   C     0.35624   0.98618   0.24814   0.00000  Uiso   1.00
C389   C     0.64376   0.68049   0.25186   0.00000  Uiso   1.00
C390   C     0.35407   0.83707   0.34110   0.00000  Uiso   1.00
H391   H     0.39686   0.90532   0.06283   0.00000  Uiso   1.00
H392   H     0.60063   0.99656   0.25536   0.00000  Uiso   1.00
H393   H     0.49567   0.79127   0.21367   0.00000  Uiso   1.00
H394   H     0.50433   0.87540   0.28633   0.00000  Uiso   1.00
H395   H     0.60314   0.76134   0.43717   0.00000  Uiso   1.00
H396   H     0.36532   0.76779   0.09381   0.00000  Uiso   1.00
H397   H     0.63468   0.89888   0.40619   0.00000  Uiso   1.00
H398   H     0.66434   0.91780   0.49311   0.00000  Uiso   1.00
H399   H     0.33567   0.74887   0.00689   0.00000  Uiso   1.00
H400   H     0.48234   0.87182   0.09504   0.00000  Uiso   1.00
H401   H     0.51766   0.79485   0.40496   0.00000  Uiso   1.00
H402   H     0.39937   0.67011   0.24464   0.00000  Uiso   1.00
N403   N     0.48029   0.81883   0.23740   0.00000  Uiso   1.00
N404   N     0.51971   0.84784   0.26260   0.00000  Uiso   1.00
N405   N     0.57588   0.94371   0.12241   0.00000  Uiso   1.00
N406   N     0.42412   0.72296   0.37759   0.00000  Uiso   1.00
O407   O     0.63052   0.91298   0.25309   0.00000  Uiso   1.00
O408   O     0.36948   0.75369   0.24691   0.00000  Uiso   1.00
O409   O     0.39155   0.90368   0.24502   0.00000  Uiso   1.00
O410   O     0.60845   0.76298   0.25498   0.00000  Uiso   1.00
O411   O     0.63662   0.84063   0.32247   0.00000  Uiso   1.00
O412   O     0.36338   0.82603   0.17753   0.00000  Uiso   1.00
O413   O     0.39764   0.83134   0.31439   0.00000  Uiso   1.00
O414   O     0.60236   0.83533   0.18561   0.00000  Uiso   1.00
Zn415  Zn    0.60366   0.83954   0.25539   0.00000  Uiso   1.00
Zn416  Zn    0.39634   0.82713   0.24461   0.00000  Uiso   1.00
C417   C     0.68175   0.93157   0.24879   0.00000  Uiso   1.00
C418   C     0.97926   0.82959   0.15890   0.00000  Uiso   1.00
C419   C     0.69724   0.84247   0.39394   0.00000  Uiso   1.00
C420   C     0.96943   0.82419   0.10606   0.00000  Uiso   1.00
C421   C     0.68737   0.89098   0.47091   0.00000  Uiso   1.00
C422   C     0.97930   0.77569   0.02909   0.00000  Uiso   1.00
C423   C     0.66953   0.87918   0.42206   0.00000  Uiso   1.00
C424   C     0.99714   0.78748   0.07794   0.00000  Uiso   1.00
C425   C     0.74067   0.81602   0.41515   0.00000  Uiso   1.00
C426   C     0.92599   0.85065   0.08485   0.00000  Uiso   1.00
C427   C     0.76734   0.83651   0.45996   0.00000  Uiso   1.00
C428   C     0.98492   0.73510   0.25121   0.00000  Uiso   1.00
C429   C     0.89932   0.83016   0.04004   0.00000  Uiso   1.00
C430   C     0.73691   0.87076   0.48976   0.00000  Uiso   1.00
C431   C     0.92975   0.79591   0.01024   0.00000  Uiso   1.00
C432   C     0.82312   0.82520   0.47577   0.00000  Uiso   1.00
C433   C     0.84355   0.84147   0.02423   0.00000  Uiso   1.00
C434   C     0.91646   0.90241   0.10572   0.00000  Uiso   1.00
C435   C     0.75020   0.76425   0.39428   0.00000  Uiso   1.00
C436   C     0.80642   0.86584   0.05606   0.00000  Uiso   1.00
C437   C     0.86025   0.80083   0.44394   0.00000  Uiso   1.00
C438   C     0.75560   0.88320   0.03826   0.00000  Uiso   1.00
C439   C     0.91107   0.78347   0.46173   0.00000  Uiso   1.00
C440   C     0.68957   0.98618   0.24814   0.00000  Uiso   1.00
C441   C     0.97709   0.68049   0.25186   0.00000  Uiso   1.00
C442   C     0.68741   0.83707   0.34110   0.00000  Uiso   1.00
H443   H     0.73019   0.90532   0.06283   0.00000  Uiso   1.00
H444   H     0.93396   0.99656   0.25536   0.00000  Uiso   1.00
H445   H     0.82900   0.79127   0.21367   0.00000  Uiso   1.00
H446   H     0.83767   0.87540   0.28633   0.00000  Uiso   1.00
H447   H     0.93647   0.76134   0.43717   0.00000  Uiso   1.00
H448   H     0.69865   0.76779   0.09381   0.00000  Uiso   1.00
H449   H     0.96802   0.89888   0.40619   0.00000  Uiso   1.00
H450   H     0.99767   0.91780   0.49311   0.00000  Uiso   1.00
H451   H     0.66900   0.74887   0.00689   0.00000  Uiso   1.00
H452   H     0.81567   0.87182   0.09504   0.00000  Uiso   1.00
H453   H     0.85099   0.79485   0.40496   0.00000  Uiso   1.00
H454   H     0.73271   0.67011   0.24464   0.00000  Uiso   1.00
N455   N     0.81362   0.81883   0.23740   0.00000  Uiso   1.00
N456   N     0.85305   0.84784   0.26260   0.00000  Uiso   1.00
N457   N     0.90921   0.94371   0.12241   0.00000  Uiso   1.00
N458   N     0.75745   0.72296   0.37759   0.00000  Uiso   1.00
O459   O     0.96386   0.91298   0.25309   0.00000  Uiso   1.00
O460   O     0.70281   0.75369   0.24691   0.00000  Uiso   1.00
O461   O     0.72488   0.90368   0.24502   0.00000  Uiso   1.00
O462   O     0.94178   0.76298   0.25498   0.00000  Uiso   1.00
O463   O     0.96995   0.84063   0.32247   0.00000  Uiso   1.00
O464   O     0.69672   0.82603   0.17753   0.00000  Uiso   1.00
O465   O     0.73098   0.83134   0.31439   0.00000  Uiso   1.00
O466   O     0.93569   0.83533   0.18561   0.00000  Uiso   1.00
Zn467  Zn    0.93700   0.83954   0.25539   0.00000  Uiso   1.00
Zn468  Zn    0.72967   0.82713   0.24461   0.00000  Uiso   1.00
C469   C     0.01508   0.26490   0.74879   0.00000  Uiso   1.00
C470   C     0.31259   0.16293   0.65890   0.00000  Uiso   1.00
C471   C     0.03057   0.17581   0.89394   0.00000  Uiso   1.00
C472   C     0.30277   0.15753   0.60606   0.00000  Uiso   1.00
C473   C     0.02070   0.22431   0.97091   0.00000  Uiso   1.00
C474   C     0.31263   0.10903   0.52909   0.00000  Uiso   1.00
C475   C     0.00286   0.21252   0.92206   0.00000  Uiso   1.00
C476   C     0.33048   0.12082   0.57794   0.00000  Uiso   1.00
C477   C     0.07401   0.14935   0.91515   0.00000  Uiso   1.00
C478   C     0.25933   0.18398   0.58485   0.00000  Uiso   1.00
C479   C     0.10068   0.16985   0.95996   0.00000  Uiso   1.00
C480   C     0.31825   0.06843   0.75121   0.00000  Uiso   1.00
C481   C     0.23266   0.16349   0.54004   0.00000  Uiso   1.00
C482   C     0.07025   0.20410   0.98976   0.00000  Uiso   1.00
C483   C     0.26309   0.12924   0.51024   0.00000  Uiso   1.00
C484   C     0.15645   0.15853   0.97577   0.00000  Uiso   1.00
C485   C     0.17688   0.17480   0.52423   0.00000  Uiso   1.00
C486   C     0.24980   0.23575   0.60572   0.00000  Uiso   1.00
C487   C     0.08354   0.09759   0.89428   0.00000  Uiso   1.00
C488   C     0.13975   0.19917   0.55606   0.00000  Uiso   1.00
C489   C     0.19358   0.13416   0.94394   0.00000  Uiso   1.00
C490   C     0.08893   0.21653   0.53826   0.00000  Uiso   1.00
C491   C     0.24440   0.11680   0.96173   0.00000  Uiso   1.00
C492   C     0.02291   0.31951   0.74814   0.00000  Uiso   1.00
C493   C     0.31043   0.01382   0.75186   0.00000  Uiso   1.00
C494   C     0.02074   0.17041   0.84110   0.00000  Uiso   1.00
H495   H     0.06353   0.23866   0.56283   0.00000  Uiso   1.00
H496   H     0.26729   0.32989   0.75536   0.00000  Uiso   1.00
H497   H     0.16233   0.12460   0.71367   0.00000  Uiso   1.00
H498   H     0.17100   0.20873   0.78633   0.00000  Uiso   1.00
H499   H     0.26981   0.09468   0.93717   0.00000  Uiso   1.00
H500   H     0.03198   0.10112   0.59381   0.00000  Uiso   1.00
H501   H     0.30135   0.23222   0.90619   0.00000  Uiso   1.00
H502   H     0.33100   0.25113   0.99311   0.00000  Uiso   1.00
H503   H     0.00233   0.08221   0.50689   0.00000  Uiso   1.00
H504   H     0.14901   0.20515   0.59504   0.00000  Uiso   1.00
H505   H     0.18433   0.12818   0.90496   0.00000  Uiso   1.00
H506   H     0.06604   0.00344   0.74464   0.00000  Uiso   1.00
N507   N     0.14695   0.15216   0.73740   0.00000  Uiso   1.00
N508   N     0.18638   0.18117   0.76260   0.00000  Uiso   1.00
N509   N     0.24254   0.27704   0.62241   0.00000  Uiso   1.00
N510   N     0.09079   0.05629   0.87759   0.00000  Uiso   1.00
O511   O     0.29719   0.24631   0.75309   0.00000  Uiso   1.00
O512   O     0.03614   0.08702   0.74691   0.00000  Uiso   1.00
O513   O     0.05822   0.23702   0.74502   0.00000  Uiso   1.00
O514   O     0.27512   0.09632   0.75498   0.00000  Uiso   1.00
O515   O     0.30328   0.17397   0.82247   0.00000  Uiso   1.00
O516   O     0.03005   0.15937   0.67753   0.00000  Uiso   1.00
O517   O     0.06431   0.16467   0.81439   0.00000  Uiso   1.00
O518   O     0.26902   0.16866   0.68561   0.00000  Uiso   1.00
Zn519  Zn    0.27033   0.17287   0.75539   0.00000  Uiso   1.00
Zn520  Zn    0.06300   0.16046   0.74461   0.00000  Uiso   1.00
C521   C     0.34842   0.26490   0.74879   0.00000  Uiso   1.00
C522   C     0.64593   0.16293   0.65890   0.00000  Uiso   1.00
C523   C     0.36390   0.17581   0.89394   0.00000  Uiso   1.00
C524   C     0.63610   0.15753   0.60606   0.00000  Uiso   1.00
C525   C     0.35403   0.22431   0.97091   0.00000  Uiso   1.00
C526   C     0.64597   0.10903   0.52909   0.00000  Uiso   1.00
C527   C     0.33619   0.21252   0.92206   0.00000  Uiso   1.00
C528   C     0.66381   0.12082   0.57794   0.00000  Uiso   1.00
C529   C     0.40734   0.14935   0.91515   0.00000  Uiso   1.00
C530   C     0.59266   0.18398   0.58485   0.00000  Uiso   1.00
C531   C     0.43401   0.16985   0.95996   0.00000  Uiso   1.00
C532   C     0.65158   0.06843   0.75121   0.00000  Uiso   1.00
C533   C     0.56599   0.16349   0.54004   0.00000  Uiso   1.00
C534   C     0.40358   0.20410   0.98976   0.00000  Uiso   1.00
C535   C     0.59642   0.12924   0.51024   0.00000  Uiso   1.00
C536   C     0.48979   0.15853   0.97577   0.00000  Uiso   1.00
C537   C     0.51021   0.17480   0.52423   0.00000  Uiso   1.00
C538   C     0.58313   0.23575   0.60572   0.00000  Uiso   1.00
C539   C     0.41687   0.09759   0.89428   0.00000  Uiso   1.00
C540   C     0.47309   0.19917   0.55606   0.00000  Uiso   1.00
C541   C     0.52691   0.13416   0.94394   0.00000  Uiso   1.00
C542   C     0.42227   0.21653   0.53826   0.00000  Uiso   1.00
C543   C     0.57773   0.11680   0.96173   0.00000  Uiso   1.00
C544   C     0.35624   0.31951   0.74814   0.00000  Uiso   1.00
C545   C     0.64376   0.01382   0.75186   0.00000  Uiso   1.00
C546   C     0.35407   0.17041   0.84110   0.00000  Uiso   1.00
H547   H     0.39686   0.23866   0.56283   0.00000  Uiso   1.00
H548   H     0.60063   0.32989   0.75536   0.00000  Uiso   1.00
H549   H     0.49567   0.12460   0.71367   0.00000  Uiso   1.00
H550   H     0.50433   0.20873   0.78633   0.00000  Uiso   1.00
H551   H     0.60314   0.09468   0.93717   0.00000  Uiso   1.00
H552   H     0.36532   0.10112   0.59381   0.00000  Uiso   1.00
H553   H     0.63468   0.23222   0.90619   0.00000  Uiso   1.00
H554   H     0.66434   0.25113   0.99311   0.00000  Uiso   1.00
H555   H     0.33567   0.08221   0.50689   0.00000  Uiso   1.00
H556   H     0.48234   0.20515   0.59504   0.00000  Uiso   1.00
H557   H     0.51766   0.12818   0.90496   0.00000  Uiso   1.00
H558   H     0.39937   0.00344   0.74464   0.00000  Uiso   1.00
N559   N     0.48029   0.15216   0.73740   0.00000  Uiso   1.00
N560   N     0.51971   0.18117   0.76260   0.00000  Uiso   1.00
N561   N     0.57588   0.27704   0.62241   0.00000  Uiso   1.00
N562   N     0.42412   0.05629   0.87759   0.00000  Uiso   1.00
O563   O     0.63052   0.24631   0.75309   0.00000  Uiso   1.00
O564   O     0.36948   0.08702   0.74691   0.00000  Uiso   1.00
O565   O     0.39155   0.23702   0.74502   0.00000  Uiso   1.00
O566   O     0.60845   0.09632   0.75498   0.00000  Uiso   1.00
O567   O     0.63662   0.17397   0.82247   0.00000  Uiso   1.00
O568   O     0.36338   0.15937   0.67753   0.00000  Uiso   1.00
O569   O     0.39764   0.16467   0.81439   0.00000  Uiso   1.00
O570   O     0.60236   0.16866   0.68561   0.00000  Uiso   1.00
Zn571  Zn    0.60366   0.17287   0.75539   0.00000  Uiso   1.00
Zn572  Zn    0.39634   0.16046   0.74461   0.00000  Uiso   1.00
C573   C     0.68175   0.26490   0.74879   0.00000  Uiso   1.00
C574   C     0.97926   0.16293   0.65890   0.00000  Uiso   1.00
C575   C     0.69724   0.17581   0.89394   0.00000  Uiso   1.00
C576   C     0.96943   0.15753   0.60606   0.00000  Uiso   1.00
C577   C     0.68737   0.22431   0.97091   0.00000  Uiso   1.00
C578   C     0.97930   0.10903   0.52909   0.00000  Uiso   1.00
C579   C     0.66953   0.21252   0.92206   0.00000  Uiso   1.00
C580   C     0.99714   0.12082   0.57794   0.00000  Uiso   1.00
C581   C     0.74067   0.14935   0.91515   0.00000  Uiso   1.00
C582   C     0.92599   0.18398   0.58485   0.00000  Uiso   1.00
C583   C     0.76734   0.16985   0.95996   0.00000  Uiso   1.00
C584   C     0.98492   0.06843   0.75121   0.00000  Uiso   1.00
C585   C     0.89932   0.16349   0.54004   0.00000  Uiso   1.00
C586   C     0.73691   0.20410   0.98976   0.00000  Uiso   1.00
C587   C     0.92975   0.12924   0.51024   0.00000  Uiso   1.00
C588   C     0.82312   0.15853   0.97577   0.00000  Uiso   1.00
C589   C     0.84355   0.17480   0.52423   0.00000  Uiso   1.00
C590   C     0.91646   0.23575   0.60572   0.00000  Uiso   1.00
C591   C     0.75020   0.09759   0.89428   0.00000  Uiso   1.00
C592   C     0.80642   0.19917   0.55606   0.00000  Uiso   1.00
C593   C     0.86025   0.13416   0.94394   0.00000  Uiso   1.00
C594   C     0.75560   0.21653   0.53826   0.00000  Uiso   1.00
C595   C     0.91107   0.11680   0.96173   0.00000  Uiso   1.00
C596   C     0.68957   0.31951   0.74814   0.00000  Uiso   1.00
C597   C     0.97709   0.01382   0.75186   0.00000  Uiso   1.00
C598   C     0.68741   0.17041   0.84110   0.00000  Uiso   1.00
H599   H     0.73019   0.23866   0.56283   0.00000  Uiso   1.00
H600   H     0.93396   0.32989   0.75536   0.00000  Uiso   1.00
H601   H     0.82900   0.12460   0.71367   0.00000  Uiso   1.00
H602   H     0.83767   0.20873   0.78633   0.00000  Uiso   1.00
H603   H     0.93647   0.09468   0.93717   0.00000  Uiso   1.00
H604   H     0.69865   0.10112   0.59381   0.00000  Uiso   1.00
H605   H     0.96802   0.23222   0.90619   0.00000  Uiso   1.00
H606   H     0.99767   0.25113   0.99311   0.00000  Uiso   1.00
H607   H     0.66900   0.08221   0.50689   0.00000  Uiso   1.00
H608   H     0.81567   0.20515   0.59504   0.00000  Uiso   1.00
H609   H     0.85099   0.12818   0.90496   0.00000  Uiso   1.00
H610   H     0.73271   0.00344   0.74464   0.00000  Uiso   1.00
N611   N     0.81362   0.15216   0.73740   0.00000  Uiso   1.00
N612   N     0.85305   0.18117   0.76260   0.00000  Uiso   1.00
N613   N     0.90921   0.27704   0.62241   0.00000  Uiso   1.00
N614   N     0.75745   0.05629   0.87759   0.00000  Uiso   1.00
O615   O     0.96386   0.24631   0.75309   0.00000  Uiso   1.00
O616   O     0.70281   0.08702   0.74691   0.00000  Uiso   1.00
O617   O     0.72488   0.23702   0.74502   0.00000  Uiso   1.00
O618   O     0.94178   0.09632   0.75498   0.00000  Uiso   1.00
O619   O     0.96995   0.17397   0.82247   0.00000  Uiso   1.00
O620   O     0.69672   0.15937   0.67753   0.00000  Uiso   1.00
O621   O     0.73098   0.16467   0.81439   0.00000  Uiso   1.00
O622   O     0.93569   0.16866   0.68561   0.00000  Uiso   1.00
Zn623  Zn    0.93700   0.17287   0.75539   0.00000  Uiso   1.00
Zn624  Zn    0.72967   0.16046   0.74461   0.00000  Uiso   1.00
C625   C     0.01508   0.59824   0.74879   0.00000  Uiso   1.00
C626   C     0.31259   0.49626   0.65890   0.00000  Uiso   1.00
C627   C     0.03057   0.50914   0.89394   0.00000  Uiso   1.00
C628   C     0.30277   0.49086   0.60606   0.00000  Uiso   1.00
C629   C     0.02070   0.55764   0.97091   0.00000  Uiso   1.00
C630   C     0.31263   0.44236   0.52909   0.00000  Uiso   1.00
C631   C     0.00286   0.54585   0.92206   0.00000  Uiso   1.00
C632   C     0.33048   0.45415   0.57794   0.00000  Uiso   1.00
C633   C     0.07401   0.48269   0.91515   0.00000  Uiso   1.00
C634   C     0.25933   0.51731   0.58485   0.00000  Uiso   1.00
C635   C     0.10068   0.50318   0.95996   0.00000  Uiso   1.00
C636   C     0.31825   0.40176   0.75121   0.00000  Uiso   1.00
C637   C     0.23266   0.49682   0.54004   0.00000  Uiso   1.00
C638   C     0.07025   0.53743   0.98976   0.00000  Uiso   1.00
C639   C     0.26309   0.46257   0.51024   0.00000  Uiso   1.00
C640   C     0.15645   0.49186   0.97577   0.00000  Uiso   1.00
C641   C     0.17688   0.50814   0.52423   0.00000  Uiso   1.00
C642   C     0.24980   0.56908   0.60572   0.00000  Uiso   1.00
C643   C     0.08354   0.43092   0.89428   0.00000  Uiso   1.00
C644   C     0.13975   0.53250   0.55606   0.00000  Uiso   1.00
C645   C     0.19358   0.46750   0.94394   0.00000  Uiso   1.00
C646   C     0.08893   0.54987   0.53826   0.00000  Uiso   1.00
C647   C     0.24440   0.45013   0.96173   0.00000  Uiso   1.00
C648   C     0.02291   0.65285   0.74814   0.00000  Uiso   1.00
C649   C     0.31043   0.34715   0.75186   0.00000  Uiso   1.00
C650   C     0.02074   0.50374   0.84110   0.00000  Uiso   1.00
H651   H     0.06353   0.57199   0.56283   0.00000  Uiso   1.00
H652   H     0.26729   0.66322   0.75536   0.00000  Uiso   1.00
H653   H     0.16233   0.45794   0.71367   0.00000  Uiso   1.00
H654   H     0.17100   0.54206   0.78633   0.00000  Uiso   1.00
H655   H     0.26981   0.42801   0.93717   0.00000  Uiso   1.00
H656   H     0.03198   0.43445   0.59381   0.00000  Uiso   1.00
H657   H     0.30135   0.56555   0.90619   0.00000  Uiso   1.00
H658   H     0.33100   0.58446   0.99311   0.00000  Uiso   1.00
H659   H     0.00233   0.41554   0.50689   0.00000  Uiso   1.00
H660   H     0.14901   0.53849   0.59504   0.00000  Uiso   1.00
H661   H     0.18433   0.46151   0.90496   0.00000  Uiso   1.00
H662   H     0.06604   0.33678   0.74464   0.00000  Uiso   1.00
N663   N     0.14695   0.48550   0.73740   0.00000  Uiso   1.00
N664   N     0.18638   0.51450   0.76260   0.00000  Uiso   1.00
N665   N     0.24254   0.61038   0.62241   0.00000  Uiso   1.00
N666   N     0.09079   0.38962   0.87759   0.00000  Uiso   1.00
O667   O     0.29719   0.57964   0.75309   0.00000  Uiso   1.00
O668   O     0.03614   0.42036   0.74691   0.00000  Uiso   1.00
O669   O     0.05822   0.57035   0.74502   0.00000  Uiso   1.00
O670   O     0.27512   0.42965   0.75498   0.00000  Uiso   1.00
O671   O     0.30328   0.50730   0.82247   0.00000  Uiso   1.00
O672   O     0.03005   0.49270   0.67753   0.00000  Uiso   1.00
O673   O     0.06431   0.49801   0.81439   0.00000  Uiso   1.00
O674   O     0.26902   0.50199   0.68561   0.00000  Uiso   1.00
Zn675  Zn    0.27033   0.50621   0.75539   0.00000  Uiso   1.00
Zn676  Zn    0.06300   0.49379   0.74461   0.00000  Uiso   1.00
C677   C     0.34842   0.59824   0.74879   0.00000  Uiso   1.00
C678   C     0.64593   0.49626   0.65890   0.00000  Uiso   1.00
C679   C     0.36390   0.50914   0.89394   0.00000  Uiso   1.00
C680   C     0.63610   0.49086   0.60606   0.00000  Uiso   1.00
C681   C     0.35403   0.55764   0.97091   0.00000  Uiso   1.00
C682   C     0.64597   0.44236   0.52909   0.00000  Uiso   1.00
C683   C     0.33619   0.54585   0.92206   0.00000  Uiso   1.00
C684   C     0.66381   0.45415   0.57794   0.00000  Uiso   1.00
C685   C     0.40734   0.48269   0.91515   0.00000  Uiso   1.00
C686   C     0.59266   0.51731   0.58485   0.00000  Uiso   1.00
C687   C     0.43401   0.50318   0.95996   0.00000  Uiso   1.00
C688   C     0.65158   0.40176   0.75121   0.00000  Uiso   1.00
C689   C     0.56599   0.49682   0.54004   0.00000  Uiso   1.00
C690   C     0.40358   0.53743   0.98976   0.00000  Uiso   1.00
C691   C     0.59642   0.46257   0.51024   0.00000  Uiso   1.00
C692   C     0.48979   0.49186   0.97577   0.00000  Uiso   1.00
C693   C     0.51021   0.50814   0.52423   0.00000  Uiso   1.00
C694   C     0.58313   0.56908   0.60572   0.00000  Uiso   1.00
C695   C     0.41687   0.43092   0.89428   0.00000  Uiso   1.00
C696   C     0.47309   0.53250   0.55606   0.00000  Uiso   1.00
C697   C     0.52691   0.46750   0.94394   0.00000  Uiso   1.00
C698   C     0.42227   0.54987   0.53826   0.00000  Uiso   1.00
C699   C     0.57773   0.45013   0.96173   0.00000  Uiso   1.00
C700   C     0.35624   0.65285   0.74814   0.00000  Uiso   1.00
C701   C     0.64376   0.34715   0.75186   0.00000  Uiso   1.00
C702   C     0.35407   0.50374   0.84110   0.00000  Uiso   1.00
H703   H     0.39686   0.57199   0.56283   0.00000  Uiso   1.00
H704   H     0.60063   0.66322   0.75536   0.00000  Uiso   1.00
H705   H     0.49567   0.45794   0.71367   0.00000  Uiso   1.00
H706   H     0.50433   0.54206   0.78633   0.00000  Uiso   1.00
H707   H     0.60314   0.42801   0.93717   0.00000  Uiso   1.00
H708   H     0.36532   0.43445   0.59381   0.00000  Uiso   1.00
H709   H     0.63468   0.56555   0.90619   0.00000  Uiso   1.00
H710   H     0.66434   0.58446   0.99311   0.00000  Uiso   1.00
H711   H     0.33567   0.41554   0.50689   0.00000  Uiso   1.00
H712   H     0.48234   0.53849   0.59504   0.00000  Uiso   1.00
H713   H     0.51766   0.46151   0.90496   0.00000  Uiso   1.00
H714   H     0.39937   0.33678   0.74464   0.00000  Uiso   1.00
N715   N     0.48029   0.48550   0.73740   0.00000  Uiso   1.00
N716   N     0.51971   0.51450   0.76260   0.00000  Uiso   1.00
N717   N     0.57588   0.61038   0.62241   0.00000  Uiso   1.00
N718   N     0.42412   0.38962   0.87759   0.00000  Uiso   1.00
O719   O     0.63052   0.57964   0.75309   0.00000  Uiso   1.00
O720   O     0.36948   0.42036   0.74691   0.00000  Uiso   1.00
O721   O     0.39155   0.57035   0.74502   0.00000  Uiso   1.00
O722   O     0.60845   0.42965   0.75498   0.00000  Uiso   1.00
O723   O     0.63662   0.50730   0.82247   0.00000  Uiso   1.00
O724   O     0.36338   0.49270   0.67753   0.00000  Uiso   1.00
O725   O     0.39764   0.49801   0.81439   0.00000  Uiso   1.00
O726   O     0.60236   0.50199   0.68561   0.00000  Uiso   1.00
Zn727  Zn    0.60366   0.50621   0.75539   0.00000  Uiso   1.00
Zn728  Zn    0.39634   0.49379   0.74461   0.00000  Uiso   1.00
C729   C     0.68175   0.59824   0.74879   0.00000  Uiso   1.00
C730   C     0.97926   0.49626   0.65890   0.00000  Uiso   1.00
C731   C     0.69724   0.50914   0.89394   0.00000  Uiso   1.00
C732   C     0.96943   0.49086   0.60606   0.00000  Uiso   1.00
C733   C     0.68737   0.55764   0.97091   0.00000  Uiso   1.00
C734   C     0.97930   0.44236   0.52909   0.00000  Uiso   1.00
C735   C     0.66953   0.54585   0.92206   0.00000  Uiso   1.00
C736   C     0.99714   0.45415   0.57794   0.00000  Uiso   1.00
C737   C     0.74067   0.48269   0.91515   0.00000  Uiso   1.00
C738   C     0.92599   0.51731   0.58485   0.00000  Uiso   1.00
C739   C     0.76734   0.50318   0.95996   0.00000  Uiso   1.00
C740   C     0.98492   0.40176   0.75121   0.00000  Uiso   1.00
C741   C     0.89932   0.49682   0.54004   0.00000  Uiso   1.00
C742   C     0.73691   0.53743   0.98976   0.00000  Uiso   1.00
C743   C     0.92975   0.46257   0.51024   0.00000  Uiso   1.00
C744   C     0.82312   0.49186   0.97577   0.00000  Uiso   1.00
C745   C     0.84355   0.50814   0.52423   0.00000  Uiso   1.00
C746   C     0.91646   0.56908   0.60572   0.00000  Uiso   1.00
C747   C     0.75020   0.43092   0.89428   0.00000  Uiso   1.00
C748   C     0.80642   0.53250   0.55606   0.00000  Uiso   1.00
C749   C     0.86025   0.46750   0.94394   0.00000  Uiso   1.00
C750   C     0.75560   0.54987   0.53826   0.00000  Uiso   1.00
C751   C     0.91107   0.45013   0.96173   0.00000  Uiso   1.00
C752   C     0.68957   0.65285   0.74814   0.00000  Uiso   1.00
C753   C     0.97709   0.34715   0.75186   0.00000  Uiso   1.00
C754   C     0.68741   0.50374   0.84110   0.00000  Uiso   1.00
H755   H     0.73019   0.57199   0.56283   0.00000  Uiso   1.00
H756   H     0.93396   0.66322   0.75536   0.00000  Uiso   1.00
H757   H     0.82900   0.45794   0.71367   0.00000  Uiso   1.00
H758   H     0.83767   0.54206   0.78633   0.00000  Uiso   1.00
H759   H     0.93647   0.42801   0.93717   0.00000  Uiso   1.00
H760   H     0.69865   0.43445   0.59381   0.00000  Uiso   1.00
H761   H     0.96802   0.56555   0.90619   0.00000  Uiso   1.00
H762   H     0.99767   0.58446   0.99311   0.00000  Uiso   1.00
H763   H     0.66900   0.41554   0.50689   0.00000  Uiso   1.00
H764   H     0.81567   0.53849   0.59504   0.00000  Uiso   1.00
H765   H     0.85099   0.46151   0.90496   0.00000  Uiso   1.00
H766   H     0.73271   0.33678   0.74464   0.00000  Uiso   1.00
N767   N     0.81362   0.48550   0.73740   0.00000  Uiso   1.00
N768   N     0.85305   0.51450   0.76260   0.00000  Uiso   1.00
N769   N     0.90921   0.61038   0.62241   0.00000  Uiso   1.00
N770   N     0.75745   0.38962   0.87759   0.00000  Uiso   1.00
O771   O     0.96386   0.57964   0.75309   0.00000  Uiso   1.00
O772   O     0.70281   0.42036   0.74691   0.00000  Uiso   1.00
O773   O     0.72488   0.57035   0.74502   0.00000  Uiso   1.00
O774   O     0.94178   0.42965   0.75498   0.00000  Uiso   1.00
O775   O     0.96995   0.50730   0.82247   0.00000  Uiso   1.00
O776   O     0.69672   0.49270   0.67753   0.00000  Uiso   1.00
O777   O     0.73098   0.49801   0.81439   0.00000  Uiso   1.00
O778   O     0.93569   0.50199   0.68561   0.00000  Uiso   1.00
Zn779  Zn    0.93700   0.50621   0.75539   0.00000  Uiso   1.00
Zn780  Zn    0.72967   0.49379   0.74461   0.00000  Uiso   1.00
C781   C     0.01508   0.93157   0.74879   0.00000  Uiso   1.00
C782   C     0.31259   0.82959   0.65890   0.00000  Uiso   1.00
C783   C     0.03057   0.84247   0.89394   0.00000  Uiso   1.00
C784   C     0.30277   0.82419   0.60606   0.00000  Uiso   1.00
C785   C     0.02070   0.89098   0.97091   0.00000  Uiso   1.00
C786   C     0.31263   0.77569   0.52909   0.00000  Uiso   1.00
C787   C     0.00286   0.87918   0.92206   0.00000  Uiso   1.00
C788   C     0.33048   0.78748   0.57794   0.00000  Uiso   1.00
C789   C     0.07401   0.81602   0.91515   0.00000  Uiso   1.00
C790   C     0.25933   0.85065   0.58485   0.00000  Uiso   1.00
C791   C     0.10068   0.83651   0.95996   0.00000  Uiso   1.00
C792   C     0.31825   0.73510   0.75121   0.00000  Uiso   1.00
C793   C     0.23266   0.83016   0.54004   0.00000  Uiso   1.00
C794   C     0.07025   0.87076   0.98976   0.00000  Uiso   1.00
C795   C     0.26309   0.79591   0.51024   0.00000  Uiso   1.00
C796   C     0.15645   0.82520   0.97577   0.00000  Uiso   1.00
C797   C     0.17688   0.84147   0.52423   0.00000  Uiso   1.00
C798   C     0.24980   0.90241   0.60572   0.00000  Uiso   1.00
C799   C     0.08354   0.76425   0.89428   0.00000  Uiso   1.00
C800   C     0.13975   0.86584   0.55606   0.00000  Uiso   1.00
C801   C     0.19358   0.80083   0.94394   0.00000  Uiso   1.00
C802   C     0.08893   0.88320   0.53826   0.00000  Uiso   1.00
C803   C     0.24440   0.78347   0.96173   0.00000  Uiso   1.00
C804   C     0.02291   0.98618   0.74814   0.00000  Uiso   1.00
C805   C     0.31043   0.68049   0.75186   0.00000  Uiso   1.00
C806   C     0.02074   0.83707   0.84110   0.00000  Uiso   1.00
H807   H     0.06353   0.90532   0.56283   0.00000  Uiso   1.00
H808   H     0.26729   0.99656   0.75536   0.00000  Uiso   1.00
H809   H     0.16233   0.79127   0.71367   0.00000  Uiso   1.00
H810   H     0.17100   0.87540   0.78633   0.00000  Uiso   1.00
H811   H     0.26981   0.76134   0.93717   0.00000  Uiso   1.00
H812   H     0.03198   0.76779   0.59381   0.00000  Uiso   1.00
H813   H     0.30135   0.89888   0.90619   0.00000  Uiso   1.00
H814   H     0.33100   0.91780   0.99311   0.00000  Uiso   1.00
H815   H     0.00233   0.74887   0.50689   0.00000  Uiso   1.00
H816   H     0.14901   0.87182   0.59504   0.00000  Uiso   1.00
H817   H     0.18433   0.79485   0.90496   0.00000  Uiso   1.00
H818   H     0.06604   0.67011   0.74464   0.00000  Uiso   1.00
N819   N     0.14695   0.81883   0.73740   0.00000  Uiso   1.00
N820   N     0.18638   0.84784   0.76260   0.00000  Uiso   1.00
N821   N     0.24254   0.94371   0.62241   0.00000  Uiso   1.00
N822   N     0.09079   0.72296   0.87759   0.00000  Uiso   1.00
O823   O     0.29719   0.91298   0.75309   0.00000  Uiso   1.00
O824   O     0.03614   0.75369   0.74691   0.00000  Uiso   1.00
O825   O     0.05822   0.90368   0.74502   0.00000  Uiso   1.00
O826   O     0.27512   0.76298   0.75498   0.00000  Uiso   1.00
O827   O     0.30328   0.84063   0.82247   0.00000  Uiso   1.00
O828   O     0.03005   0.82603   0.67753   0.00000  Uiso   1.00
O829   O     0.06431   0.83134   0.81439   0.00000  Uiso   1.00
O830   O     0.26902   0.83533   0.68561   0.00000  Uiso   1.00
Zn831  Zn    0.27033   0.83954   0.75539   0.00000  Uiso   1.00
Zn832  Zn    0.06300   0.82713   0.74461   0.00000  Uiso   1.00
C833   C     0.34842   0.93157   0.74879   0.00000  Uiso   1.00
C834   C     0.64593   0.82959   0.65890   0.00000  Uiso   1.00
C835   C     0.36390   0.84247   0.89394   0.00000  Uiso   1.00
C836   C     0.63610   0.82419   0.60606   0.00000  Uiso   1.00
C837   C     0.35403   0.89098   0.97091   0.00000  Uiso   1.00
C838   C     0.64597   0.77569   0.52909   0.00000  Uiso   1.00
C839   C     0.33619   0.87918   0.92206   0.00000  Uiso   1.00
C840   C     0.66381   0.78748   0.57794   0.00000  Uiso   1.00
C841   C     0.40734   0.81602   0.91515   0.00000  Uiso   1.00
C842   C     0.59266   0.85065   0.58485   0.00000  Uiso   1.00
C843   C     0.43401   0.83651   0.95996   0.00000  Uiso   1.00
C844   C     0.65158   0.73510   0.75121   0.00000  Uiso   1.00
C845   C     0.56599   0.83016   0.54004   0.00000  Uiso   1.00
C846   C     0.40358   0.87076   0.98976   0.00000  Uiso   1.00
C847   C     0.59642   0.79591   0.51024   0.00000  Uiso   1.00
C848   C     0.48979   0.82520   0.97577   0.00000  Uiso   1.00
C849   C     0.51021   0.84147   0.52423   0.00000  Uiso   1.00
C850   C     0.58313   0.90241   0.60572   0.00000  Uiso   1.00
C851   C     0.41687   0.76425   0.89428   0.00000  Uiso   1.00
C852   C     0.47309   0.86584   0.55606   0.00000  Uiso   1.00
C853   C     0.52691   0.80083   0.94394   0.00000  Uiso   1.00
C854   C     0.42227   0.88320   0.53826   0.00000  Uiso   1.00
C855   C     0.57773   0.78347   0.96173   0.00000  Uiso   1.00
C856   C     0.35624   0.98618   0.74814   0.00000  Uiso   1.00
C857   C     0.64376   0.68049   0.75186   0.00000  Uiso   1.00
C858   C     0.35407   0.83707   0.84110   0.00000  Uiso   1.00
H859   H     0.39686   0.90532   0.56283   0.00000  Uiso   1.00
H860   H     0.60063   0.99656   0.75536   0.00000  Uiso   1.00
H861   H     0.49567   0.79127   0.71367   0.00000  Uiso   1.00
H862   H     0.50433   0.87540   0.78633   0.00000  Uiso   1.00
H863   H     0.60314   0.76134   0.93717   0.00000  Uiso   1.00
H864   H     0.36532   0.76779   0.59381   0.00000  Uiso   1.00
H865   H     0.63468   0.89888   0.90619   0.00000  Uiso   1.00
H866   H     0.66434   0.91780   0.99311   0.00000  Uiso   1.00
H867   H     0.33567   0.74887   0.50689   0.00000  Uiso   1.00
H868   H     0.48234   0.87182   0.59504   0.00000  Uiso   1.00
H869   H     0.51766   0.79485   0.90496   0.00000  Uiso   1.00
H870   H     0.39937   0.67011   0.74464   0.00000  Uiso   1.00
N871   N     0.48029   0.81883   0.73740   0.00000  Uiso   1.00
N872   N     0.51971   0.84784   0.76260   0.00000  Uiso   1.00
N873   N     0.57588   0.94371   0.62241   0.00000  Uiso   1.00
N874   N     0.42412   0.72296   0.87759   0.00000  Uiso   1.00
O875   O     0.63052   0.91298   0.75309   0.00000  Uiso   1.00
O876   O     0.36948   0.75369   0.74691   0.00000  Uiso   1.00
O877   O     0.39155   0.90368   0.74502   0.00000  Uiso   1.00
O878   O     0.60845   0.76298   0.75498   0.00000  Uiso   1.00
O879   O     0.63662   0.84063   0.82247   0.00000  Uiso   1.00
O880   O     0.36338   0.82603   0.67753   0.00000  Uiso   1.00
O881   O     0.39764   0.83134   0.81439   0.00000  Uiso   1.00
O882   O     0.60236   0.83533   0.68561   0.00000  Uiso   1.00
Zn883  Zn    0.60366   0.83954   0.75539   0.00000  Uiso   1.00
Zn884  Zn    0.39634   0.82713   0.74461   0.00000  Uiso   1.00
C885   C     0.68175   0.93157   0.74879   0.00000  Uiso   1.00
C886   C     0.97926   0.82959   0.65890   0.00000  Uiso   1.00
C887   C     0.69724   0.84247   0.89394   0.00000  Uiso   1.00
C888   C     0.96943   0.82419   0.60606   0.00000  Uiso   1.00
C889   C     0.68737   0.89098   0.97091   0.00000  Uiso   1.00
C890   C     0.97930   0.77569   0.52909   0.00000  Uiso   1.00
C891   C     0.66953   0.87918   0.92206   0.00000  Uiso   1.00
C892   C     0.99714   0.78748   0.57794   0.00000  Uiso   1.00
C893   C     0.74067   0.81602   0.91515   0.00000  Uiso   1.00
C894   C     0.92599   0.85065   0.58485   0.00000  Uiso   1.00
C895   C     0.76734   0.83651   0.95996   0.00000  Uiso   1.00
C896   C     0.98492   0.73510   0.75121   0.00000  Uiso   1.00
C897   C     0.89932   0.83016   0.54004   0.00000  Uiso   1.00
C898   C     0.73691   0.87076   0.98976   0.00000  Uiso   1.00
C899   C     0.92975   0.79591   0.51024   0.00000  Uiso   1.00
C900   C     0.82312   0.82520   0.97577   0.00000  Uiso   1.00
C901   C     0.84355   0.84147   0.52423   0.00000  Uiso   1.00
C902   C     0.91646   0.90241   0.60572   0.00000  Uiso   1.00
C903   C     0.75020   0.76425   0.89428   0.00000  Uiso   1.00
C904   C     0.80642   0.86584   0.55606   0.00000  Uiso   1.00
C905   C     0.86025   0.80083   0.94394   0.00000  Uiso   1.00
C906   C     0.75560   0.88320   0.53826   0.00000  Uiso   1.00
C907   C     0.91107   0.78347   0.96173   0.00000  Uiso   1.00
C908   C     0.68957   0.98618   0.74814   0.00000  Uiso   1.00
C909   C     0.97709   0.68049   0.75186   0.00000  Uiso   1.00
C910   C     0.68741   0.83707   0.84110   0.00000  Uiso   1.00
H911   H     0.73019   0.90532   0.56283   0.00000  Uiso   1.00
H912   H     0.93396   0.99656   0.75536   0.00000  Uiso   1.00
H913   H     0.82900   0.79127   0.71367   0.00000  Uiso   1.00
H914   H     0.83767   0.87540   0.78633   0.00000  Uiso   1.00
H915   H     0.93647   0.76134   0.93717   0.00000  Uiso   1.00
H916   H     0.69865   0.76779   0.59381   0.00000  Uiso   1.00
H917   H     0.96802   0.89888   0.90619   0.00000  Uiso   1.00
H918   H     0.99767   0.91780   0.99311   0.00000  Uiso   1.00
H919   H     0.66900   0.74887   0.50689   0.00000  Uiso   1.00
H920   H     0.81567   0.87182   0.59504   0.00000  Uiso   1.00
H921   H     0.85099   0.79485   0.90496   0.00000  Uiso   1.00
H922   H     0.73271   0.67011   0.74464   0.00000  Uiso   1.00
N923   N     0.81362   0.81883   0.73740   0.00000  Uiso   1.00
N924   N     0.85305   0.84784   0.76260   0.00000  Uiso   1.00
N925   N     0.90921   0.94371   0.62241   0.00000  Uiso   1.00
N926   N     0.75745   0.72296   0.87759   0.00000  Uiso   1.00
O927   O     0.96386   0.91298   0.75309   0.00000  Uiso   1.00
O928   O     0.70281   0.75369   0.74691   0.00000  Uiso   1.00
O929   O     0.72488   0.90368   0.74502   0.00000  Uiso   1.00
O930   O     0.94178   0.76298   0.75498   0.00000  Uiso   1.00
O931   O     0.96995   0.84063   0.82247   0.00000  Uiso   1.00
O932   O     0.69672   0.82603   0.67753   0.00000  Uiso   1.00
O933   O     0.73098   0.83134   0.81439   0.00000  Uiso   1.00
O934   O     0.93569   0.83533   0.68561   0.00000  Uiso   1.00
Zn935  Zn    0.93700   0.83954   0.75539   0.00000  Uiso   1.00
Zn936  Zn    0.72967   0.82713   0.74461   0.00000  Uiso   1.00
loop_
_geom_bond_atom_site_label_1
_geom_bond_atom_site_label_2
_geom_bond_distance
_geom_bond_site_symmetry_2
_ccdc_geom_bond_type
C1     O45     1.291   .     A
C1     C24     1.403   .     S
C1     O147    1.276   1_455 S
C2     C4      1.450   .     S
C2     O50     1.299   .     A
C2     O100    1.289   .     S
C3     C9      1.393   .     A
C3     C7      1.400   .     A
C3     C26     1.450   .     S
C4     C8      1.400   .     A
C4     C10     1.393   .     A
C5     C14     1.401   .     A
C5     C7      1.391   .     A
C5     H138    1.084   1_455 S
C6     C8      1.391   .     A
C6     C15     1.401   .     A
C6     H87     1.084   .     S
C7     H137    1.083   1_455 S
C8     H84     1.083   .     S
C9     C11     1.405   .     A
C9     C19     1.453   .     S
C10    C18     1.453   .     S
C10    C13     1.405   .     A
C11    C16     1.420   .     A
C11    C14     1.420   .     A
C12    C25     1.403   .     S
C12    O46     1.291   .     A
C12    O96     1.276   .     S
C13    C17     1.420   .     A
C13    C15     1.420   .     A
C14    C490    1.389   .     S
C15    C491    1.389   1_554 S
C16    C21     1.415   .     A
C16    C485    1.417   .     S
C17    C20     1.415   .     A
C17    C484    1.417   1_554 S
C18    N41     1.158   .     T
C19    N42     1.158   .     T
C20    C22     1.385   .     A
C20    H36     1.078   .     S
C21    C23     1.385   .     A
C21    H37     1.078   .     S
C22    H27     1.084   .     S
C22    C482    1.389   1_554 S
C23    H31     1.084   .     S
C23    C483    1.389   .     S
C24    C285    1.340   1_455 S
C24    H194    1.088   .     S
C25    C388    1.340   1_545 S
C25    H340    1.088   1_545 S
C26    O49     1.299   .     A
C26    O151    1.289   1_455 S
H28    C181    1.088   .     S
H29    N39     1.029   .     S
H30    N40     1.029   .     S
H32    C112    1.083   1_455 S
H33    C59     1.083   .     S
H34    C57     1.084   .     S
H35    C110    1.084   1_455 S
H38    C336    1.088   1_545 S
N39    Zn52    2.021   .     S
N39    N40     1.291   .     D
N40    Zn51    2.021   .     S
O43    Zn51    1.950   .     S
O43    C53     1.276   .     S
O44    Zn52    1.950   .     S
O44    C116    1.276   1_455 S
O45    Zn52    1.978   .     S
O46    Zn51    1.978   .     S
O47    Zn51    1.956   .     S
O47    C78     1.289   .     S
O48    Zn52    1.956   .     S
O48    C106    1.289   1_455 S
O49    Zn52    1.905   .     S
O50    Zn51    1.905   .     S
C53    O97     1.291   .     A
C53    C76     1.403   .     S
C54    C56     1.450   .     S
C54    O102    1.299   .     A
C54    O152    1.289   .     S
C55    C61     1.393   .     A
C55    C59     1.400   .     A
C55    C78     1.450   .     S
C56    C60     1.400   .     A
C56    C62     1.393   .     A
C57    C66     1.401   .     A
C57    C59     1.391   .     A
C58    C60     1.391   .     A
C58    C67     1.401   .     A
C58    H139    1.084   .     S
C60    H136    1.083   .     S
C61    C63     1.405   .     A
C61    C71     1.453   .     S
C62    C70     1.453   .     S
C62    C65     1.405   .     A
C63    C68     1.420   .     A
C63    C66     1.420   .     A
C64    C77     1.403   .     S
C64    O98     1.291   .     A
C64    O148    1.276   .     S
C65    C69     1.420   .     A
C65    C67     1.420   .     A
C66    C542    1.389   .     S
C67    C543    1.389   1_554 S
C68    C73     1.415   .     A
C68    C537    1.417   .     S
C69    C72     1.415   .     A
C69    C536    1.417   1_554 S
C70    N93     1.158   .     T
C71    N94     1.158   .     T
C72    C74     1.385   .     A
C72    H88     1.078   .     S
C73    C75     1.385   .     A
C73    H89     1.078   .     S
C74    H79     1.084   .     S
C74    C534    1.389   1_554 S
C75    H83     1.084   .     S
C75    C535    1.389   .     S
C76    C181    1.340   .     S
C76    H246    1.088   .     S
C77    C440    1.340   1_545 S
C77    H392    1.088   1_545 S
C78    O101    1.299   .     A
H80    C233    1.088   .     S
H81    N91     1.029   .     S
H82    N92     1.029   .     S
H85    C111    1.083   .     S
H86    C109    1.084   .     S
H90    C388    1.088   1_545 S
N91    Zn104   2.021   .     S
N91    N92     1.291   .     D
N92    Zn103   2.021   .     S
O95    Zn103   1.950   .     S
O95    C105    1.276   .     S
O96    Zn104   1.950   .     S
O97    Zn104   1.978   .     S
O98    Zn103   1.978   .     S
O99    Zn103   1.956   .     S
O99    C130    1.289   .     S
O100   Zn104   1.956   .     S
O101   Zn104   1.905   .     S
O102   Zn103   1.905   .     S
C105   O149    1.291   .     A
C105   C128    1.403   .     S
C106   C108    1.450   .     S
C106   O154    1.299   .     A
C106   O48     1.289   1_655 S
C107   C113    1.393   .     A
C107   C111    1.400   .     A
C107   C130    1.450   .     S
C108   C112    1.400   .     A
C108   C114    1.393   .     A
C109   C118    1.401   .     A
C109   C111    1.391   .     A
C110   C112    1.391   .     A
C110   C119    1.401   .     A
C110   H35     1.084   1_655 S
C112   H32     1.083   1_655 S
C113   C115    1.405   .     A
C113   C123    1.453   .     S
C114   C122    1.453   .     S
C114   C117    1.405   .     A
C115   C120    1.420   .     A
C115   C118    1.420   .     A
C116   C129    1.403   .     S
C116   O150    1.291   .     A
C116   O44     1.276   1_655 S
C117   C121    1.420   .     A
C117   C119    1.420   .     A
C118   C594    1.389   .     S
C119   C595    1.389   1_554 S
C120   C125    1.415   .     A
C120   C589    1.417   .     S
C121   C124    1.415   .     A
C121   C588    1.417   1_554 S
C122   N145    1.158   .     T
C123   N146    1.158   .     T
C124   C126    1.385   .     A
C124   H140    1.078   .     S
C125   C127    1.385   .     A
C125   H141    1.078   .     S
C126   H131    1.084   .     S
C126   C586    1.389   1_554 S
C127   H135    1.084   .     S
C127   C587    1.389   .     S
C128   C233    1.340   .     S
C128   H298    1.088   .     S
C129   C336    1.340   1_645 S
C129   H444    1.088   1_545 S
C130   O153    1.299   .     A
H132   C285    1.088   .     S
H133   N143    1.029   .     S
H134   N144    1.029   .     S
H137   C7      1.083   1_655 S
H138   C5      1.084   1_655 S
H142   C440    1.088   1_545 S
N143   Zn156   2.021   .     S
N143   N144    1.291   .     D
N144   Zn155   2.021   .     S
O147   Zn155   1.950   .     S
O147   C1      1.276   1_655 S
O148   Zn156   1.950   .     S
O149   Zn156   1.978   .     S
O150   Zn155   1.978   .     S
O151   Zn155   1.956   .     S
O151   C26     1.289   1_655 S
O152   Zn156   1.956   .     S
O153   Zn156   1.905   .     S
O154   Zn155   1.905   .     S
C157   O201    1.291   .     A
C157   C180    1.403   .     S
C157   O303    1.276   1_455 S
C158   C160    1.450   .     S
C158   O206    1.299   .     A
C158   O256    1.289   .     S
C159   C165    1.393   .     A
C159   C163    1.400   .     A
C159   C182    1.450   .     S
C160   C164    1.400   .     A
C160   C166    1.393   .     A
C161   C170    1.401   .     A
C161   C163    1.391   .     A
C161   H294    1.084   1_455 S
C162   C164    1.391   .     A
C162   C171    1.401   .     A
C162   H243    1.084   .     S
C163   H293    1.083   1_455 S
C164   H240    1.083   .     S
C165   C167    1.405   .     A
C165   C175    1.453   .     S
C166   C174    1.453   .     S
C166   C169    1.405   .     A
C167   C172    1.420   .     A
C167   C170    1.420   .     A
C168   C181    1.403   .     S
C168   O202    1.291   .     A
C168   O252    1.276   .     S
C169   C173    1.420   .     A
C169   C171    1.420   .     A
C170   C646    1.389   .     S
C171   C647    1.389   1_554 S
C172   C177    1.415   .     A
C172   C641    1.417   .     S
C173   C176    1.415   .     A
C173   C640    1.417   1_554 S
C174   N197    1.158   .     T
C175   N198    1.158   .     T
C176   C178    1.385   .     A
C176   H192    1.078   .     S
C177   C179    1.385   .     A
C177   H193    1.078   .     S
C178   H183    1.084   .     S
C178   C638    1.389   1_554 S
C179   H187    1.084   .     S
C179   C639    1.389   .     S
C180   C441    1.340   1_455 S
C180   H350    1.088   .     S
C182   O205    1.299   .     A
C182   O307    1.289   1_455 S
H184   C337    1.088   .     S
H185   N195    1.029   .     S
H186   N196    1.029   .     S
H188   C268    1.083   1_455 S
H189   C215    1.083   .     S
H190   C213    1.084   .     S
H191   C266    1.084   1_455 S
N195   Zn208   2.021   .     S
N195   N196    1.291   .     D
N196   Zn207   2.021   .     S
O199   Zn207   1.950   .     S
O199   C209    1.276   .     S
O200   Zn208   1.950   .     S
O200   C272    1.276   1_455 S
O201   Zn208   1.978   .     S
O202   Zn207   1.978   .     S
O203   Zn207   1.956   .     S
O203   C234    1.289   .     S
O204   Zn208   1.956   .     S
O204   C262    1.289   1_455 S
O205   Zn208   1.905   .     S
O206   Zn207   1.905   .     S
C209   O253    1.291   .     A
C209   C232    1.403   .     S
C210   C212    1.450   .     S
C210   O258    1.299   .     A
C210   O308    1.289   .     S
C211   C217    1.393   .     A
C211   C215    1.400   .     A
C211   C234    1.450   .     S
C212   C216    1.400   .     A
C212   C218    1.393   .     A
C213   C222    1.401   .     A
C213   C215    1.391   .     A
C214   C216    1.391   .     A
C214   C223    1.401   .     A
C214   H295    1.084   .     S
C216   H292    1.083   .     S
C217   C219    1.405   .     A
C217   C227    1.453   .     S
C218   C226    1.453   .     S
C218   C221    1.405   .     A
C219   C224    1.420   .     A
C219   C222    1.420   .     A
C220   C233    1.403   .     S
C220   O254    1.291   .     A
C220   O304    1.276   .     S
C221   C225    1.420   .     A
C221   C223    1.420   .     A
C222   C698    1.389   .     S
C223   C699    1.389   1_554 S
C224   C229    1.415   .     A
C224   C693    1.417   .     S
C225   C228    1.415   .     A
C225   C692    1.417   1_554 S
C226   N249    1.158   .     T
C227   N250    1.158   .     T
C228   C230    1.385   .     A
C228   H244    1.078   .     S
C229   C231    1.385   .     A
C229   H245    1.078   .     S
C230   H235    1.084   .     S
C230   C690    1.389   1_554 S
C231   H239    1.084   .     S
C231   C691    1.389   .     S
C232   C337    1.340   .     S
C232   H402    1.088   .     S
C234   O257    1.299   .     A
H236   C389    1.088   .     S
H237   N247    1.029   .     S
H238   N248    1.029   .     S
H241   C267    1.083   .     S
H242   C265    1.084   .     S
N247   Zn260   2.021   .     S
N247   N248    1.291   .     D
N248   Zn259   2.021   .     S
O251   Zn259   1.950   .     S
O251   C261    1.276   .     S
O252   Zn260   1.950   .     S
O253   Zn260   1.978   .     S
O254   Zn259   1.978   .     S
O255   Zn259   1.956   .     S
O255   C286    1.289   .     S
O256   Zn260   1.956   .     S
O257   Zn260   1.905   .     S
O258   Zn259   1.905   .     S
C261   O305    1.291   .     A
C261   C284    1.403   .     S
C262   C264    1.450   .     S
C262   O310    1.299   .     A
C262   O204    1.289   1_655 S
C263   C269    1.393   .     A
C263   C267    1.400   .     A
C263   C286    1.450   .     S
C264   C268    1.400   .     A
C264   C270    1.393   .     A
C265   C274    1.401   .     A
C265   C267    1.391   .     A
C266   C268    1.391   .     A
C266   C275    1.401   .     A
C266   H191    1.084   1_655 S
C268   H188    1.083   1_655 S
C269   C271    1.405   .     A
C269   C279    1.453   .     S
C270   C278    1.453   .     S
C270   C273    1.405   .     A
C271   C276    1.420   .     A
C271   C274    1.420   .     A
C272   C285    1.403   .     S
C272   O306    1.291   .     A
C272   O200    1.276   1_655 S
C273   C277    1.420   .     A
C273   C275    1.420   .     A
C274   C750    1.389   .     S
C275   C751    1.389   1_554 S
C276   C281    1.415   .     A
C276   C745    1.417   .     S
C277   C280    1.415   .     A
C277   C744    1.417   1_554 S
C278   N301    1.158   .     T
C279   N302    1.158   .     T
C280   C282    1.385   .     A
C280   H296    1.078   .     S
C281   C283    1.385   .     A
C281   H297    1.078   .     S
C282   H287    1.084   .     S
C282   C742    1.389   1_554 S
C283   H291    1.084   .     S
C283   C743    1.389   .     S
C284   C389    1.340   .     S
C284   H454    1.088   .     S
C285   C24     1.340   1_655 S
C286   O309    1.299   .     A
H288   C441    1.088   .     S
H289   N299    1.029   .     S
H290   N300    1.029   .     S
H293   C163    1.083   1_655 S
H294   C161    1.084   1_655 S
N299   Zn312   2.021   .     S
N299   N300    1.291   .     D
N300   Zn311   2.021   .     S
O303   Zn311   1.950   .     S
O303   C157    1.276   1_655 S
O304   Zn312   1.950   .     S
O305   Zn312   1.978   .     S
O306   Zn311   1.978   .     S
O307   Zn311   1.956   .     S
O307   C182    1.289   1_655 S
O308   Zn312   1.956   .     S
O309   Zn312   1.905   .     S
O310   Zn311   1.905   .     S
C313   O357    1.291   .     A
C313   C336    1.403   .     S
C313   O459    1.276   1_455 S
C314   C316    1.450   .     S
C314   O362    1.299   .     A
C314   O412    1.289   .     S
C315   C321    1.393   .     A
C315   C319    1.400   .     A
C315   C338    1.450   .     S
C316   C320    1.400   .     A
C316   C322    1.393   .     A
C317   C326    1.401   .     A
C317   C319    1.391   .     A
C317   H450    1.084   1_455 S
C318   C320    1.391   .     A
C318   C327    1.401   .     A
C318   H399    1.084   .     S
C319   H449    1.083   1_455 S
C320   H396    1.083   .     S
C321   C323    1.405   .     A
C321   C331    1.453   .     S
C322   C330    1.453   .     S
C322   C325    1.405   .     A
C323   C328    1.420   .     A
C323   C326    1.420   .     A
C324   C337    1.403   .     S
C324   O358    1.291   .     A
C324   O408    1.276   .     S
C325   C329    1.420   .     A
C325   C327    1.420   .     A
C326   C802    1.389   .     S
C327   C803    1.389   1_554 S
C328   C333    1.415   .     A
C328   C797    1.417   .     S
C329   C332    1.415   .     A
C329   C796    1.417   1_554 S
C330   N353    1.158   .     T
C331   N354    1.158   .     T
C332   C334    1.385   .     A
C332   H348    1.078   .     S
C333   C335    1.385   .     A
C333   H349    1.078   .     S
C334   H339    1.084   .     S
C334   C794    1.389   1_554 S
C335   H343    1.084   .     S
C335   C795    1.389   .     S
C336   C129    1.340   1_465 S
C336   H38     1.088   1_565 S
C338   O361    1.299   .     A
C338   O463    1.289   1_455 S
H340   C25     1.088   1_565 S
H341   N351    1.029   .     S
H342   N352    1.029   .     S
H344   C424    1.083   1_455 S
H345   C371    1.083   .     S
H346   C369    1.084   .     S
H347   C422    1.084   1_455 S
N351   Zn364   2.021   .     S
N351   N352    1.291   .     D
N352   Zn363   2.021   .     S
O355   Zn363   1.950   .     S
O355   C365    1.276   .     S
O356   Zn364   1.950   .     S
O356   C428    1.276   1_455 S
O357   Zn364   1.978   .     S
O358   Zn363   1.978   .     S
O359   Zn363   1.956   .     S
O359   C390    1.289   .     S
O360   Zn364   1.956   .     S
O360   C418    1.289   1_455 S
O361   Zn364   1.905   .     S
O362   Zn363   1.905   .     S
C365   O409    1.291   .     A
C365   C388    1.403   .     S
C366   C368    1.450   .     S
C366   O414    1.299   .     A
C366   O464    1.289   .     S
C367   C373    1.393   .     A
C367   C371    1.400   .     A
C367   C390    1.450   .     S
C368   C372    1.400   .     A
C368   C374    1.393   .     A
C369   C378    1.401   .     A
C369   C371    1.391   .     A
C370   C372    1.391   .     A
C370   C379    1.401   .     A
C370   H451    1.084   .     S
C372   H448    1.083   .     S
C373   C375    1.405   .     A
C373   C383    1.453   .     S
C374   C382    1.453   .     S
C374   C377    1.405   .     A
C375   C380    1.420   .     A
C375   C378    1.420   .     A
C376   C389    1.403   .     S
C376   O410    1.291   .     A
C376   O460    1.276   .     S
C377   C381    1.420   .     A
C377   C379    1.420   .     A
C378   C854    1.389   .     S
C379   C855    1.389   1_554 S
C380   C385    1.415   .     A
C380   C849    1.417   .     S
C381   C384    1.415   .     A
C381   C848    1.417   1_554 S
C382   N405    1.158   .     T
C383   N406    1.158   .     T
C384   C386    1.385   .     A
C384   H400    1.078   .     S
C385   C387    1.385   .     A
C385   H401    1.078   .     S
C386   H391    1.084   .     S
C386   C846    1.389   1_554 S
C387   H395    1.084   .     S
C387   C847    1.389   .     S
C388   C25     1.340   1_565 S
C388   H90     1.088   1_565 S
C390   O413    1.299   .     A
H392   C77     1.088   1_565 S
H393   N403    1.029   .     S
H394   N404    1.029   .     S
H397   C423    1.083   .     S
H398   C421    1.084   .     S
N403   Zn416   2.021   .     S
N403   N404    1.291   .     D
N404   Zn415   2.021   .     S
O407   Zn415   1.950   .     S
O407   C417    1.276   .     S
O408   Zn416   1.950   .     S
O409   Zn416   1.978   .     S
O410   Zn415   1.978   .     S
O411   Zn415   1.956   .     S
O411   C442    1.289   .     S
O412   Zn416   1.956   .     S
O413   Zn416   1.905   .     S
O414   Zn415   1.905   .     S
C417   O461    1.291   .     A
C417   C440    1.403   .     S
C418   C420    1.450   .     S
C418   O466    1.299   .     A
C418   O360    1.289   1_655 S
C419   C425    1.393   .     A
C419   C423    1.400   .     A
C419   C442    1.450   .     S
C420   C424    1.400   .     A
C420   C426    1.393   .     A
C421   C430    1.401   .     A
C421   C423    1.391   .     A
C422   C424    1.391   .     A
C422   C431    1.401   .     A
C422   H347    1.084   1_655 S
C424   H344    1.083   1_655 S
C425   C427    1.405   .     A
C425   C435    1.453   .     S
C426   C434    1.453   .     S
C426   C429    1.405   .     A
C427   C432    1.420   .     A
C427   C430    1.420   .     A
C428   C441    1.403   .     S
C428   O462    1.291   .     A
C428   O356    1.276   1_655 S
C429   C433    1.420   .     A
C429   C431    1.420   .     A
C430   C906    1.389   .     S
C431   C907    1.389   1_554 S
C432   C437    1.415   .     A
C432   C901    1.417   .     S
C433   C436    1.415   .     A
C433   C900    1.417   1_554 S
C434   N457    1.158   .     T
C435   N458    1.158   .     T
C436   C438    1.385   .     A
C436   H452    1.078   .     S
C437   C439    1.385   .     A
C437   H453    1.078   .     S
C438   H443    1.084   .     S
C438   C898    1.389   1_554 S
C439   H447    1.084   .     S
C439   C899    1.389   .     S
C440   C77     1.340   1_565 S
C440   H142    1.088   1_565 S
C441   C180    1.340   1_655 S
C442   O465    1.299   .     A
H444   C129    1.088   1_565 S
H445   N455    1.029   .     S
H446   N456    1.029   .     S
H449   C319    1.083   1_655 S
H450   C317    1.084   1_655 S
N455   Zn468   2.021   .     S
N455   N456    1.291   .     D
N456   Zn467   2.021   .     S
O459   Zn467   1.950   .     S
O459   C313    1.276   1_655 S
O460   Zn468   1.950   .     S
O461   Zn468   1.978   .     S
O462   Zn467   1.978   .     S
O463   Zn467   1.956   .     S
O463   C338    1.289   1_655 S
O464   Zn468   1.956   .     S
O465   Zn468   1.905   .     S
O466   Zn467   1.905   .     S
C469   O513    1.291   .     A
C469   C492    1.403   .     S
C469   O615    1.276   1_455 S
C470   C472    1.450   .     S
C470   O518    1.299   .     A
C470   O568    1.289   .     S
C471   C477    1.393   .     A
C471   C475    1.400   .     A
C471   C494    1.450   .     S
C472   C476    1.400   .     A
C472   C478    1.393   .     A
C473   C482    1.401   .     A
C473   C475    1.391   .     A
C473   H606    1.084   1_455 S
C474   C476    1.391   .     A
C474   C483    1.401   .     A
C474   H555    1.084   .     S
C475   H605    1.083   1_455 S
C476   H552    1.083   .     S
C477   C479    1.405   .     A
C477   C487    1.453   .     S
C478   C486    1.453   .     S
C478   C481    1.405   .     A
C479   C484    1.420   .     A
C479   C482    1.420   .     A
C480   C493    1.403   .     S
C480   O514    1.291   .     A
C480   O564    1.276   .     S
C481   C485    1.420   .     A
C481   C483    1.420   .     A
C482   C22     1.389   1_556 S
C484   C489    1.415   .     A
C484   C17     1.417   1_556 S
C485   C488    1.415   .     A
C486   N509    1.158   .     T
C487   N510    1.158   .     T
C488   C490    1.385   .     A
C488   H504    1.078   .     S
C489   C491    1.385   .     A
C489   H505    1.078   .     S
C490   H495    1.084   .     S
C491   H499    1.084   .     S
C491   C15     1.389   1_556 S
C492   C753    1.340   1_455 S
C492   H662    1.088   .     S
C493   C856    1.340   1_545 S
C493   H808    1.088   1_545 S
C494   O517    1.299   .     A
C494   O619    1.289   1_455 S
H496   C649    1.088   .     S
H497   N507    1.029   .     S
H498   N508    1.029   .     S
H500   C580    1.083   1_455 S
H501   C527    1.083   .     S
H502   C525    1.084   .     S
H503   C578    1.084   1_455 S
H506   C804    1.088   1_545 S
N507   Zn520   2.021   .     S
N507   N508    1.291   .     D
N508   Zn519   2.021   .     S
O511   Zn519   1.950   .     S
O511   C521    1.276   .     S
O512   Zn520   1.950   .     S
O512   C584    1.276   1_455 S
O513   Zn520   1.978   .     S
O514   Zn519   1.978   .     S
O515   Zn519   1.956   .     S
O515   C546    1.289   .     S
O516   Zn520   1.956   .     S
O516   C574    1.289   1_455 S
O517   Zn520   1.905   .     S
O518   Zn519   1.905   .     S
C521   O565    1.291   .     A
C521   C544    1.403   .     S
C522   C524    1.450   .     S
C522   O570    1.299   .     A
C522   O620    1.289   .     S
C523   C529    1.393   .     A
C523   C527    1.400   .     A
C523   C546    1.450   .     S
C524   C528    1.400   .     A
C524   C530    1.393   .     A
C525   C534    1.401   .     A
C525   C527    1.391   .     A
C526   C528    1.391   .     A
C526   C535    1.401   .     A
C526   H607    1.084   .     S
C528   H604    1.083   .     S
C529   C531    1.405   .     A
C529   C539    1.453   .     S
C530   C538    1.453   .     S
C530   C533    1.405   .     A
C531   C536    1.420   .     A
C531   C534    1.420   .     A
C532   C545    1.403   .     S
C532   O566    1.291   .     A
C532   O616    1.276   .     S
C533   C537    1.420   .     A
C533   C535    1.420   .     A
C534   C74     1.389   1_556 S
C536   C541    1.415   .     A
C536   C69     1.417   1_556 S
C537   C540    1.415   .     A
C538   N561    1.158   .     T
C539   N562    1.158   .     T
C540   C542    1.385   .     A
C540   H556    1.078   .     S
C541   C543    1.385   .     A
C541   H557    1.078   .     S
C542   H547    1.084   .     S
C543   H551    1.084   .     S
C543   C67     1.389   1_556 S
C544   C649    1.340   .     S
C544   H714    1.088   .     S
C545   C908    1.340   1_545 S
C545   H860    1.088   1_545 S
C546   O569    1.299   .     A
H548   C701    1.088   .     S
H549   N559    1.029   .     S
H550   N560    1.029   .     S
H553   C579    1.083   .     S
H554   C577    1.084   .     S
H558   C856    1.088   1_545 S
N559   Zn572   2.021   .     S
N559   N560    1.291   .     D
N560   Zn571   2.021   .     S
O563   Zn571   1.950   .     S
O563   C573    1.276   .     S
O564   Zn572   1.950   .     S
O565   Zn572   1.978   .     S
O566   Zn571   1.978   .     S
O567   Zn571   1.956   .     S
O567   C598    1.289   .     S
O568   Zn572   1.956   .     S
O569   Zn572   1.905   .     S
O570   Zn571   1.905   .     S
C573   O617    1.291   .     A
C573   C596    1.403   .     S
C574   C576    1.450   .     S
C574   O622    1.299   .     A
C574   O516    1.289   1_655 S
C575   C581    1.393   .     A
C575   C579    1.400   .     A
C575   C598    1.450   .     S
C576   C580    1.400   .     A
C576   C582    1.393   .     A
C577   C586    1.401   .     A
C577   C579    1.391   .     A
C578   C580    1.391   .     A
C578   C587    1.401   .     A
C578   H503    1.084   1_655 S
C580   H500    1.083   1_655 S
C581   C583    1.405   .     A
C581   C591    1.453   .     S
C582   C590    1.453   .     S
C582   C585    1.405   .     A
C583   C588    1.420   .     A
C583   C586    1.420   .     A
C584   C597    1.403   .     S
C584   O618    1.291   .     A
C584   O512    1.276   1_655 S
C585   C589    1.420   .     A
C585   C587    1.420   .     A
C586   C126    1.389   1_556 S
C588   C593    1.415   .     A
C588   C121    1.417   1_556 S
C589   C592    1.415   .     A
C590   N613    1.158   .     T
C591   N614    1.158   .     T
C592   C594    1.385   .     A
C592   H608    1.078   .     S
C593   C595    1.385   .     A
C593   H609    1.078   .     S
C594   H599    1.084   .     S
C595   H603    1.084   .     S
C595   C119    1.389   1_556 S
C596   C701    1.340   .     S
C596   H766    1.088   .     S
C597   C804    1.340   1_645 S
C597   H912    1.088   1_545 S
C598   O621    1.299   .     A
H600   C753    1.088   .     S
H601   N611    1.029   .     S
H602   N612    1.029   .     S
H605   C475    1.083   1_655 S
H606   C473    1.084   1_655 S
H610   C908    1.088   1_545 S
N611   Zn624   2.021   .     S
N611   N612    1.291   .     D
N612   Zn623   2.021   .     S
O615   Zn623   1.950   .     S
O615   C469    1.276   1_655 S
O616   Zn624   1.950   .     S
O617   Zn624   1.978   .     S
O618   Zn623   1.978   .     S
O619   Zn623   1.956   .     S
O619   C494    1.289   1_655 S
O620   Zn624   1.956   .     S
O621   Zn624   1.905   .     S
O622   Zn623   1.905   .     S
C625   O669    1.291   .     A
C625   C648    1.403   .     S
C625   O771    1.276   1_455 S
C626   C628    1.450   .     S
C626   O674    1.299   .     A
C626   O724    1.289   .     S
C627   C633    1.393   .     A
C627   C631    1.400   .     A
C627   C650    1.450   .     S
C628   C632    1.400   .     A
C628   C634    1.393   .     A
C629   C638    1.401   .     A
C629   C631    1.391   .     A
C629   H762    1.084   1_455 S
C630   C632    1.391   .     A
C630   C639    1.401   .     A
C630   H711    1.084   .     S
C631   H761    1.083   1_455 S
C632   H708    1.083   .     S
C633   C635    1.405   .     A
C633   C643    1.453   .     S
C634   C642    1.453   .     S
C634   C637    1.405   .     A
C635   C640    1.420   .     A
C635   C638    1.420   .     A
C636   C649    1.403   .     S
C636   O670    1.291   .     A
C636   O720    1.276   .     S
C637   C641    1.420   .     A
C637   C639    1.420   .     A
C638   C178    1.389   1_556 S
C640   C645    1.415   .     A
C640   C173    1.417   1_556 S
C641   C644    1.415   .     A
C642   N665    1.158   .     T
C643   N666    1.158   .     T
C644   C646    1.385   .     A
C644   H660    1.078   .     S
C645   C647    1.385   .     A
C645   H661    1.078   .     S
C646   H651    1.084   .     S
C647   H655    1.084   .     S
C647   C171    1.389   1_556 S
C648   C909    1.340   1_455 S
C648   H818    1.088   .     S
C650   O673    1.299   .     A
C650   O775    1.289   1_455 S
H652   C805    1.088   .     S
H653   N663    1.029   .     S
H654   N664    1.029   .     S
H656   C736    1.083   1_455 S
H657   C683    1.083   .     S
H658   C681    1.084   .     S
H659   C734    1.084   1_455 S
N663   Zn676   2.021   .     S
N663   N664    1.291   .     D
N664   Zn675   2.021   .     S
O667   Zn675   1.950   .     S
O667   C677    1.276   .     S
O668   Zn676   1.950   .     S
O668   C740    1.276   1_455 S
O669   Zn676   1.978   .     S
O670   Zn675   1.978   .     S
O671   Zn675   1.956   .     S
O671   C702    1.289   .     S
O672   Zn676   1.956   .     S
O672   C730    1.289   1_455 S
O673   Zn676   1.905   .     S
O674   Zn675   1.905   .     S
C677   O721    1.291   .     A
C677   C700    1.403   .     S
C678   C680    1.450   .     S
C678   O726    1.299   .     A
C678   O776    1.289   .     S
C679   C685    1.393   .     A
C679   C683    1.400   .     A
C679   C702    1.450   .     S
C680   C684    1.400   .     A
C680   C686    1.393   .     A
C681   C690    1.401   .     A
C681   C683    1.391   .     A
C682   C684    1.391   .     A
C682   C691    1.401   .     A
C682   H763    1.084   .     S
C684   H760    1.083   .     S
C685   C687    1.405   .     A
C685   C695    1.453   .     S
C686   C694    1.453   .     S
C686   C689    1.405   .     A
C687   C692    1.420   .     A
C687   C690    1.420   .     A
C688   C701    1.403   .     S
C688   O722    1.291   .     A
C688   O772    1.276   .     S
C689   C693    1.420   .     A
C689   C691    1.420   .     A
C690   C230    1.389   1_556 S
C692   C697    1.415   .     A
C692   C225    1.417   1_556 S
C693   C696    1.415   .     A
C694   N717    1.158   .     T
C695   N718    1.158   .     T
C696   C698    1.385   .     A
C696   H712    1.078   .     S
C697   C699    1.385   .     A
C697   H713    1.078   .     S
C698   H703    1.084   .     S
C699   H707    1.084   .     S
C699   C223    1.389   1_556 S
C700   C805    1.340   .     S
C700   H870    1.088   .     S
C702   O725    1.299   .     A
H704   C857    1.088   .     S
H705   N715    1.029   .     S
H706   N716    1.029   .     S
H709   C735    1.083   .     S
H710   C733    1.084   .     S
N715   Zn728   2.021   .     S
N715   N716    1.291   .     D
N716   Zn727   2.021   .     S
O719   Zn727   1.950   .     S
O719   C729    1.276   .     S
O720   Zn728   1.950   .     S
O721   Zn728   1.978   .     S
O722   Zn727   1.978   .     S
O723   Zn727   1.956   .     S
O723   C754    1.289   .     S
O724   Zn728   1.956   .     S
O725   Zn728   1.905   .     S
O726   Zn727   1.905   .     S
C729   O773    1.291   .     A
C729   C752    1.403   .     S
C730   C732    1.450   .     S
C730   O778    1.299   .     A
C730   O672    1.289   1_655 S
C731   C737    1.393   .     A
C731   C735    1.400   .     A
C731   C754    1.450   .     S
C732   C736    1.400   .     A
C732   C738    1.393   .     A
C733   C742    1.401   .     A
C733   C735    1.391   .     A
C734   C736    1.391   .     A
C734   C743    1.401   .     A
C734   H659    1.084   1_655 S
C736   H656    1.083   1_655 S
C737   C739    1.405   .     A
C737   C747    1.453   .     S
C738   C746    1.453   .     S
C738   C741    1.405   .     A
C739   C744    1.420   .     A
C739   C742    1.420   .     A
C740   C753    1.403   .     S
C740   O774    1.291   .     A
C740   O668    1.276   1_655 S
C741   C745    1.420   .     A
C741   C743    1.420   .     A
C742   C282    1.389   1_556 S
C744   C749    1.415   .     A
C744   C277    1.417   1_556 S
C745   C748    1.415   .     A
C746   N769    1.158   .     T
C747   N770    1.158   .     T
C748   C750    1.385   .     A
C748   H764    1.078   .     S
C749   C751    1.385   .     A
C749   H765    1.078   .     S
C750   H755    1.084   .     S
C751   H759    1.084   .     S
C751   C275    1.389   1_556 S
C752   C857    1.340   .     S
C752   H922    1.088   .     S
C753   C492    1.340   1_655 S
C754   O777    1.299   .     A
H756   C909    1.088   .     S
H757   N767    1.029   .     S
H758   N768    1.029   .     S
H761   C631    1.083   1_655 S
H762   C629    1.084   1_655 S
N767   Zn780   2.021   .     S
N767   N768    1.291   .     D
N768   Zn779   2.021   .     S
O771   Zn779   1.950   .     S
O771   C625    1.276   1_655 S
O772   Zn780   1.950   .     S
O773   Zn780   1.978   .     S
O774   Zn779   1.978   .     S
O775   Zn779   1.956   .     S
O775   C650    1.289   1_655 S
O776   Zn780   1.956   .     S
O777   Zn780   1.905   .     S
O778   Zn779   1.905   .     S
C781   O825    1.291   .     A
C781   C804    1.403   .     S
C781   O927    1.276   1_455 S
C782   C784    1.450   .     S
C782   O830    1.299   .     A
C782   O880    1.289   .     S
C783   C789    1.393   .     A
C783   C787    1.400   .     A
C783   C806    1.450   .     S
C784   C788    1.400   .     A
C784   C790    1.393   .     A
C785   C794    1.401   .     A
C785   C787    1.391   .     A
C785   H918    1.084   1_455 S
C786   C788    1.391   .     A
C786   C795    1.401   .     A
C786   H867    1.084   .     S
C787   H917    1.083   1_455 S
C788   H864    1.083   .     S
C789   C791    1.405   .     A
C789   C799    1.453   .     S
C790   C798    1.453   .     S
C790   C793    1.405   .     A
C791   C796    1.420   .     A
C791   C794    1.420   .     A
C792   C805    1.403   .     S
C792   O826    1.291   .     A
C792   O876    1.276   .     S
C793   C797    1.420   .     A
C793   C795    1.420   .     A
C794   C334    1.389   1_556 S
C796   C801    1.415   .     A
C796   C329    1.417   1_556 S
C797   C800    1.415   .     A
C798   N821    1.158   .     T
C799   N822    1.158   .     T
C800   C802    1.385   .     A
C800   H816    1.078   .     S
C801   C803    1.385   .     A
C801   H817    1.078   .     S
C802   H807    1.084   .     S
C803   H811    1.084   .     S
C803   C327    1.389   1_556 S
C804   C597    1.340   1_465 S
C804   H506    1.088   1_565 S
C806   O829    1.299   .     A
C806   O931    1.289   1_455 S
H808   C493    1.088   1_565 S
H809   N819    1.029   .     S
H810   N820    1.029   .     S
H812   C892    1.083   1_455 S
H813   C839    1.083   .     S
H814   C837    1.084   .     S
H815   C890    1.084   1_455 S
N819   Zn832   2.021   .     S
N819   N820    1.291   .     D
N820   Zn831   2.021   .     S
O823   Zn831   1.950   .     S
O823   C833    1.276   .     S
O824   Zn832   1.950   .     S
O824   C896    1.276   1_455 S
O825   Zn832   1.978   .     S
O826   Zn831   1.978   .     S
O827   Zn831   1.956   .     S
O827   C858    1.289   .     S
O828   Zn832   1.956   .     S
O828   C886    1.289   1_455 S
O829   Zn832   1.905   .     S
O830   Zn831   1.905   .     S
C833   O877    1.291   .     A
C833   C856    1.403   .     S
C834   C836    1.450   .     S
C834   O882    1.299   .     A
C834   O932    1.289   .     S
C835   C841    1.393   .     A
C835   C839    1.400   .     A
C835   C858    1.450   .     S
C836   C840    1.400   .     A
C836   C842    1.393   .     A
C837   C846    1.401   .     A
C837   C839    1.391   .     A
C838   C840    1.391   .     A
C838   C847    1.401   .     A
C838   H919    1.084   .     S
C840   H916    1.083   .     S
C841   C843    1.405   .     A
C841   C851    1.453   .     S
C842   C850    1.453   .     S
C842   C845    1.405   .     A
C843   C848    1.420   .     A
C843   C846    1.420   .     A
C844   C857    1.403   .     S
C844   O878    1.291   .     A
C844   O928    1.276   .     S
C845   C849    1.420   .     A
C845   C847    1.420   .     A
C846   C386    1.389   1_556 S
C848   C853    1.415   .     A
C848   C381    1.417   1_556 S
C849   C852    1.415   .     A
C850   N873    1.158   .     T
C851   N874    1.158   .     T
C852   C854    1.385   .     A
C852   H868    1.078   .     S
C853   C855    1.385   .     A
C853   H869    1.078   .     S
C854   H859    1.084   .     S
C855   H863    1.084   .     S
C855   C379    1.389   1_556 S
C856   C493    1.340   1_565 S
C856   H558    1.088   1_565 S
C858   O881    1.299   .     A
H860   C545    1.088   1_565 S
H861   N871    1.029   .     S
H862   N872    1.029   .     S
H865   C891    1.083   .     S
H866   C889    1.084   .     S
N871   Zn884   2.021   .     S
N871   N872    1.291   .     D
N872   Zn883   2.021   .     S
O875   Zn883   1.950   .     S
O875   C885    1.276   .     S
O876   Zn884   1.950   .     S
O877   Zn884   1.978   .     S
O878   Zn883   1.978   .     S
O879   Zn883   1.956   .     S
O879   C910    1.289   .     S
O880   Zn884   1.956   .     S
O881   Zn884   1.905   .     S
O882   Zn883   1.905   .     S
C885   O929    1.291   .     A
C885   C908    1.403   .     S
C886   C888    1.450   .     S
C886   O934    1.299   .     A
C886   O828    1.289   1_655 S
C887   C893    1.393   .     A
C887   C891    1.400   .     A
C887   C910    1.450   .     S
C888   C892    1.400   .     A
C888   C894    1.393   .     A
C889   C898    1.401   .     A
C889   C891    1.391   .     A
C890   C892    1.391   .     A
C890   C899    1.401   .     A
C890   H815    1.084   1_655 S
C892   H812    1.083   1_655 S
C893   C895    1.405   .     A
C893   C903    1.453   .     S
C894   C902    1.453   .     S
C894   C897    1.405   .     A
C895   C900    1.420   .     A
C895   C898    1.420   .     A
C896   C909    1.403   .     S
C896   O930    1.291   .     A
C896   O824    1.276   1_655 S
C897   C901    1.420   .     A
C897   C899    1.420   .     A
C898   C438    1.389   1_556 S
C900   C905    1.415   .     A
C900   C433    1.417   1_556 S
C901   C904    1.415   .     A
C902   N925    1.158   .     T
C903   N926    1.158   .     T
C904   C906    1.385   .     A
C904   H920    1.078   .     S
C905   C907    1.385   .     A
C905   H921    1.078   .     S
C906   H911    1.084   .     S
C907   H915    1.084   .     S
C907   C431    1.389   1_556 S
C908   C545    1.340   1_565 S
C908   H610    1.088   1_565 S
C909   C648    1.340   1_655 S
C910   O933    1.299   .     A
H912   C597    1.088   1_565 S
H913   N923    1.029   .     S
H914   N924    1.029   .     S
H917   C787    1.083   1_655 S
H918   C785    1.084   1_655 S
N923   Zn936   2.021   .     S
N923   N924    1.291   .     D
N924   Zn935   2.021   .     S
O927   Zn935   1.950   .     S
O927   C781    1.276   1_655 S
O928   Zn936   1.950   .     S
O929   Zn936   1.978   .     S
O930   Zn935   1.978   .     S
O931   Zn935   1.956   .     S
O931   C806    1.289   1_655 S
O932   Zn936   1.956   .     S
O933   Zn936   1.905   .     S
O934   Zn935   1.905   .     S
