data_str_m3_o1_o18_pcu_sym.79
_audit_creation_date              2020-01-03
_audit_creation_method            'Materials Studio'
_symmetry_space_group_name_H-M    'P1'
_symmetry_Int_Tables_number       1
_symmetry_cell_setting            triclinic
loop_
_symmetry_equiv_pos_as_xyz
  x,y,z
_cell_length_a                    30.5181
_cell_length_b                    31.8331
_cell_length_c                    31.2564
_cell_angle_alpha                 92.1750
_cell_angle_beta                  72.6161
_cell_angle_gamma                 90.6416
loop_
_atom_site_label
_atom_site_type_symbol
_atom_site_fract_x
_atom_site_fract_y
_atom_site_fract_z
_atom_site_U_iso_or_equiv
_atom_site_adp_type
_atom_site_occupancy
C1     C     0.16674   0.24631   0.25054   0.00000  Uiso   1.00
C2     C     0.12937   0.31249   0.27943   0.00000  Uiso   1.00
C3     C     0.16651   0.04280   0.25066   0.00000  Uiso   1.00
C4     C     0.16703   0.29066   0.25131   0.00000  Uiso   1.00
C5     C     0.31614   0.13548   0.22731   0.00000  Uiso   1.00
C6     C     0.01842   0.19964   0.26874   0.00000  Uiso   1.00
C7     C     0.02922   0.13411   0.23050   0.00000  Uiso   1.00
C8     C     0.30417   0.19964   0.26870   0.00000  Uiso   1.00
C9     C     0.13850   0.16583   0.33658   0.00000  Uiso   1.00
C10    C     0.19449   0.17079   0.16407   0.00000  Uiso   1.00
C11    C     0.12316   0.16798   0.38532   0.00000  Uiso   1.00
C12    C     0.16649   0.08707   0.25015   0.00000  Uiso   1.00
C13    C     0.20696   0.18667   0.11888   0.00000  Uiso   1.00
C14    C     0.06139   0.18451   0.45057   0.00000  Uiso   1.00
C15    C     0.25746   0.22301   0.05640   0.00000  Uiso   1.00
C16    C     0.07698   0.16295   0.40934   0.00000  Uiso   1.00
C17    C     0.24591   0.21222   0.10164   0.00000  Uiso   1.00
C18    C     0.15364   0.18087   0.40854   0.00000  Uiso   1.00
C19    C     0.17447   0.18312   0.09540   0.00000  Uiso   1.00
C20    C     0.13902   0.18385   0.45549   0.00000  Uiso   1.00
C21    C     0.18434   0.19835   0.05238   0.00000  Uiso   1.00
C22    C     0.09133   0.18688   0.47701   0.00000  Uiso   1.00
C23    C     0.10551   0.20301   0.04813   0.00000  Uiso   1.00
C24    C     0.22992   0.20770   0.03046   0.00000  Uiso   1.00
C25    C     0.17017   0.18670   0.48091   0.00000  Uiso   1.00
C26    C     0.15290   0.19615   0.02765   0.00000  Uiso   1.00
C27    C     0.01486   0.15390   0.06991   0.00000  Uiso   1.00
C28    C     0.29430   0.13042   0.49178   0.00000  Uiso   1.00
C29    C     0.27255   0.22851   0.13004   0.00000  Uiso   1.00
C30    C     0.04591   0.13886   0.39100   0.00000  Uiso   1.00
C31    C     0.03810   0.22318   0.44820   0.00000  Uiso   1.00
C32    C     0.28729   0.25839   0.04107   0.00000  Uiso   1.00
C33    C     0.08805   0.22084   0.09351   0.00000  Uiso   1.00
C34    C     0.21770   0.17728   0.46266   0.00000  Uiso   1.00
C35    C     0.23454   0.14852   0.42406   0.00000  Uiso   1.00
C36    C     0.33243   0.08670   0.15916   0.00000  Uiso   1.00
C37    C     0.02883   0.23336   0.33620   0.00000  Uiso   1.00
C38    C     0.04478   0.06171   0.24105   0.00000  Uiso   1.00
C39    C     0.25381   0.23934   0.33244   0.00000  Uiso   1.00
C40    C     0.07477   0.19512   0.02334   0.00000  Uiso   1.00
C41    C     0.24786   0.18944   0.48736   0.00000  Uiso   1.00
C42    C     0.20497   0.31128   0.22381   0.00000  Uiso   1.00
C43    C     0.12941   0.02231   0.27956   0.00000  Uiso   1.00
C44    C     0.20459   0.02101   0.22320   0.00000  Uiso   1.00
H45    H     0.14261   0.16639   0.10948   0.00000  Uiso   1.00
H46    H     0.02824   0.12587   0.04777   0.00000  Uiso   1.00
H47    H     0.30756   0.17299   0.44114   0.00000  Uiso   1.00
H48    H     0.33055   0.12064   0.48492   0.00000  Uiso   1.00
H49    H     0.27717   0.10707   0.47486   0.00000  Uiso   1.00
H50    H     0.27711   0.13003   0.02845   0.00000  Uiso   1.00
H51    H     0.27073   0.11146   0.19506   0.00000  Uiso   1.00
H52    H     0.31543   0.08445   0.13226   0.00000  Uiso   1.00
H53    H     0.00888   0.05435   0.16467   0.00000  Uiso   1.00
H54    H     0.03029   0.10619   0.14681   0.00000  Uiso   1.00
H55    H     0.03007   0.26346   0.27748   0.00000  Uiso   1.00
H56    H     0.18809   0.18891   0.38994   0.00000  Uiso   1.00
H57    H     0.06242   0.23599   0.34294   0.00000  Uiso   1.00
H58    H     0.01168   0.20392   0.35056   0.00000  Uiso   1.00
H59    H     0.00746   0.26045   0.35366   0.00000  Uiso   1.00
H60    H     0.09029   0.10292   0.19666   0.00000  Uiso   1.00
H61    H     0.06856   0.03546   0.22557   0.00000  Uiso   1.00
H62    H     0.00921   0.05110   0.24421   0.00000  Uiso   1.00
H63    H     0.04712   0.06973   0.27514   0.00000  Uiso   1.00
H64    H     0.29042   0.26367   0.27066   0.00000  Uiso   1.00
H65    H     0.26606   0.26771   0.34720   0.00000  Uiso   1.00
H66    H     0.21639   0.24297   0.33809   0.00000  Uiso   1.00
H67    H     0.23414   0.29416   0.20233   0.00000  Uiso   1.00
H68    H     0.26021   0.21135   0.34990   0.00000  Uiso   1.00
H69    H     0.10112   0.03961   0.30242   0.00000  Uiso   1.00
H70    H     0.23351   0.03722   0.20113   0.00000  Uiso   1.00
H71    H     0.10061   0.29631   0.30159   0.00000  Uiso   1.00
H72    H     0.01534   0.21828   0.06565   0.00000  Uiso   1.00
H73    H     0.02913   0.15468   0.09855   0.00000  Uiso   1.00
H74    H     0.31045   0.15112   0.08340   0.00000  Uiso   1.00
N75    N     0.04759   0.16668   0.25001   0.00000  Uiso   1.00
N76    N     0.24793   0.12553   0.39339   0.00000  Uiso   1.00
N77    N     0.30102   0.10427   0.20042   0.00000  Uiso   1.00
N78    N     0.03588   0.23444   0.28831   0.00000  Uiso   1.00
N79    N     0.05622   0.09794   0.21324   0.00000  Uiso   1.00
N80    N     0.27663   0.23589   0.28473   0.00000  Uiso   1.00
N81    N     0.28574   0.16666   0.24999   0.00000  Uiso   1.00
N82    N     0.02709   0.19211   0.04547   0.00000  Uiso   1.00
N83    N     0.29245   0.17208   0.47511   0.00000  Uiso   1.00
N84    N     0.29414   0.24120   0.15251   0.00000  Uiso   1.00
N85    N     0.02150   0.11924   0.37601   0.00000  Uiso   1.00
N86    N     0.02035   0.25416   0.44451   0.00000  Uiso   1.00
N87    N     0.31045   0.28750   0.03022   0.00000  Uiso   1.00
N88    N     0.07412   0.23503   0.12966   0.00000  Uiso   1.00
O89    O     0.12846   0.22775   0.25001   0.00000  Uiso   1.00
O90    O     0.20488   0.10558   0.25000   0.00000  Uiso   1.00
O91    O     0.20490   0.22774   0.25000   0.00000  Uiso   1.00
O92    O     0.12843   0.10559   0.25000   0.00000  Uiso   1.00
O93    O     0.10661   0.16667   0.31613   0.00000  Uiso   1.00
O94    O     0.22672   0.16666   0.18388   0.00000  Uiso   1.00
O95    O     0.18305   0.16666   0.31612   0.00000  Uiso   1.00
O96    O     0.15028   0.16667   0.18388   0.00000  Uiso   1.00
Zn97   Zn    0.11562   0.16667   0.25000   0.00000  Uiso   1.00
Zn98   Zn    0.21771   0.16666   0.25000   0.00000  Uiso   1.00
C99    C     0.50007   0.24631   0.25054   0.00000  Uiso   1.00
C100   C     0.46270   0.31249   0.27943   0.00000  Uiso   1.00
C101   C     0.49984   0.04280   0.25066   0.00000  Uiso   1.00
C102   C     0.50037   0.29066   0.25131   0.00000  Uiso   1.00
C103   C     0.64948   0.13548   0.22731   0.00000  Uiso   1.00
C104   C     0.35175   0.19964   0.26874   0.00000  Uiso   1.00
C105   C     0.36256   0.13411   0.23050   0.00000  Uiso   1.00
C106   C     0.63751   0.19964   0.26870   0.00000  Uiso   1.00
C107   C     0.47183   0.16583   0.33658   0.00000  Uiso   1.00
C108   C     0.52783   0.17079   0.16407   0.00000  Uiso   1.00
C109   C     0.45650   0.16798   0.38532   0.00000  Uiso   1.00
C110   C     0.49982   0.08707   0.25015   0.00000  Uiso   1.00
C111   C     0.54029   0.18667   0.11888   0.00000  Uiso   1.00
C112   C     0.39473   0.18451   0.45057   0.00000  Uiso   1.00
C113   C     0.59080   0.22301   0.05640   0.00000  Uiso   1.00
C114   C     0.41032   0.16295   0.40934   0.00000  Uiso   1.00
C115   C     0.57925   0.21222   0.10164   0.00000  Uiso   1.00
C116   C     0.48697   0.18087   0.40854   0.00000  Uiso   1.00
C117   C     0.50781   0.18312   0.09540   0.00000  Uiso   1.00
C118   C     0.47236   0.18385   0.45549   0.00000  Uiso   1.00
C119   C     0.51768   0.19835   0.05238   0.00000  Uiso   1.00
C120   C     0.42466   0.18688   0.47701   0.00000  Uiso   1.00
C121   C     0.43885   0.20301   0.04813   0.00000  Uiso   1.00
C122   C     0.56325   0.20770   0.03046   0.00000  Uiso   1.00
C123   C     0.50351   0.18670   0.48091   0.00000  Uiso   1.00
C124   C     0.48624   0.19615   0.02765   0.00000  Uiso   1.00
C125   C     0.34819   0.15390   0.06991   0.00000  Uiso   1.00
C126   C     0.62764   0.13042   0.49178   0.00000  Uiso   1.00
C127   C     0.60589   0.22851   0.13004   0.00000  Uiso   1.00
C128   C     0.37924   0.13886   0.39100   0.00000  Uiso   1.00
C129   C     0.37143   0.22318   0.44820   0.00000  Uiso   1.00
C130   C     0.62063   0.25839   0.04107   0.00000  Uiso   1.00
C131   C     0.42139   0.22084   0.09351   0.00000  Uiso   1.00
C132   C     0.55103   0.17728   0.46266   0.00000  Uiso   1.00
C133   C     0.56787   0.14852   0.42406   0.00000  Uiso   1.00
C134   C     0.66577   0.08670   0.15916   0.00000  Uiso   1.00
C135   C     0.36216   0.23336   0.33620   0.00000  Uiso   1.00
C136   C     0.37811   0.06171   0.24105   0.00000  Uiso   1.00
C137   C     0.58715   0.23934   0.33244   0.00000  Uiso   1.00
C138   C     0.40810   0.19512   0.02334   0.00000  Uiso   1.00
C139   C     0.58119   0.18944   0.48736   0.00000  Uiso   1.00
C140   C     0.53830   0.31128   0.22381   0.00000  Uiso   1.00
C141   C     0.46274   0.02231   0.27956   0.00000  Uiso   1.00
C142   C     0.53792   0.02101   0.22320   0.00000  Uiso   1.00
H143   H     0.47594   0.16639   0.10948   0.00000  Uiso   1.00
H144   H     0.36157   0.12587   0.04777   0.00000  Uiso   1.00
H145   H     0.64090   0.17299   0.44114   0.00000  Uiso   1.00
H146   H     0.66389   0.12064   0.48492   0.00000  Uiso   1.00
H147   H     0.61050   0.10707   0.47486   0.00000  Uiso   1.00
H148   H     0.61045   0.13003   0.02845   0.00000  Uiso   1.00
H149   H     0.60407   0.11146   0.19506   0.00000  Uiso   1.00
H150   H     0.64876   0.08445   0.13226   0.00000  Uiso   1.00
H151   H     0.34221   0.05435   0.16467   0.00000  Uiso   1.00
H152   H     0.36362   0.10619   0.14681   0.00000  Uiso   1.00
H153   H     0.36340   0.26346   0.27748   0.00000  Uiso   1.00
H154   H     0.52143   0.18891   0.38994   0.00000  Uiso   1.00
H155   H     0.39575   0.23599   0.34294   0.00000  Uiso   1.00
H156   H     0.34501   0.20392   0.35056   0.00000  Uiso   1.00
H157   H     0.34079   0.26045   0.35366   0.00000  Uiso   1.00
H158   H     0.42362   0.10292   0.19666   0.00000  Uiso   1.00
H159   H     0.40190   0.03546   0.22557   0.00000  Uiso   1.00
H160   H     0.34254   0.05110   0.24421   0.00000  Uiso   1.00
H161   H     0.38045   0.06973   0.27514   0.00000  Uiso   1.00
H162   H     0.62375   0.26367   0.27066   0.00000  Uiso   1.00
H163   H     0.59939   0.26771   0.34720   0.00000  Uiso   1.00
H164   H     0.54973   0.24297   0.33809   0.00000  Uiso   1.00
H165   H     0.56747   0.29416   0.20233   0.00000  Uiso   1.00
H166   H     0.59354   0.21135   0.34990   0.00000  Uiso   1.00
H167   H     0.43445   0.03961   0.30242   0.00000  Uiso   1.00
H168   H     0.56684   0.03722   0.20113   0.00000  Uiso   1.00
H169   H     0.43394   0.29631   0.30159   0.00000  Uiso   1.00
H170   H     0.34868   0.21828   0.06565   0.00000  Uiso   1.00
H171   H     0.36247   0.15468   0.09855   0.00000  Uiso   1.00
H172   H     0.64378   0.15112   0.08340   0.00000  Uiso   1.00
N173   N     0.38093   0.16668   0.25001   0.00000  Uiso   1.00
N174   N     0.58126   0.12553   0.39339   0.00000  Uiso   1.00
N175   N     0.63435   0.10427   0.20042   0.00000  Uiso   1.00
N176   N     0.36921   0.23444   0.28831   0.00000  Uiso   1.00
N177   N     0.38955   0.09794   0.21324   0.00000  Uiso   1.00
N178   N     0.60996   0.23589   0.28473   0.00000  Uiso   1.00
N179   N     0.61907   0.16666   0.24999   0.00000  Uiso   1.00
N180   N     0.36042   0.19211   0.04547   0.00000  Uiso   1.00
N181   N     0.62578   0.17208   0.47511   0.00000  Uiso   1.00
N182   N     0.62748   0.24120   0.15251   0.00000  Uiso   1.00
N183   N     0.35484   0.11924   0.37601   0.00000  Uiso   1.00
N184   N     0.35368   0.25416   0.44451   0.00000  Uiso   1.00
N185   N     0.64378   0.28750   0.03022   0.00000  Uiso   1.00
N186   N     0.40745   0.23503   0.12966   0.00000  Uiso   1.00
O187   O     0.46179   0.22775   0.25001   0.00000  Uiso   1.00
O188   O     0.53821   0.10558   0.25000   0.00000  Uiso   1.00
O189   O     0.53823   0.22774   0.25000   0.00000  Uiso   1.00
O190   O     0.46177   0.10559   0.25000   0.00000  Uiso   1.00
O191   O     0.43994   0.16667   0.31613   0.00000  Uiso   1.00
O192   O     0.56006   0.16666   0.18388   0.00000  Uiso   1.00
O193   O     0.51639   0.16666   0.31612   0.00000  Uiso   1.00
O194   O     0.48361   0.16667   0.18388   0.00000  Uiso   1.00
Zn195  Zn    0.44896   0.16667   0.25000   0.00000  Uiso   1.00
Zn196  Zn    0.55104   0.16666   0.25000   0.00000  Uiso   1.00
C197   C     0.83340   0.24631   0.25054   0.00000  Uiso   1.00
C198   C     0.79603   0.31249   0.27943   0.00000  Uiso   1.00
C199   C     0.83318   0.04280   0.25066   0.00000  Uiso   1.00
C200   C     0.83370   0.29066   0.25131   0.00000  Uiso   1.00
C201   C     0.98281   0.13548   0.22731   0.00000  Uiso   1.00
C202   C     0.68509   0.19964   0.26874   0.00000  Uiso   1.00
C203   C     0.69589   0.13411   0.23050   0.00000  Uiso   1.00
C204   C     0.97084   0.19964   0.26870   0.00000  Uiso   1.00
C205   C     0.80516   0.16583   0.33658   0.00000  Uiso   1.00
C206   C     0.86116   0.17079   0.16407   0.00000  Uiso   1.00
C207   C     0.78983   0.16798   0.38532   0.00000  Uiso   1.00
C208   C     0.83315   0.08707   0.25015   0.00000  Uiso   1.00
C209   C     0.87363   0.18667   0.11888   0.00000  Uiso   1.00
C210   C     0.72806   0.18451   0.45057   0.00000  Uiso   1.00
C211   C     0.92413   0.22301   0.05640   0.00000  Uiso   1.00
C212   C     0.74365   0.16295   0.40934   0.00000  Uiso   1.00
C213   C     0.91258   0.21222   0.10164   0.00000  Uiso   1.00
C214   C     0.82030   0.18087   0.40854   0.00000  Uiso   1.00
C215   C     0.84114   0.18312   0.09540   0.00000  Uiso   1.00
C216   C     0.80569   0.18385   0.45549   0.00000  Uiso   1.00
C217   C     0.85101   0.19835   0.05238   0.00000  Uiso   1.00
C218   C     0.75800   0.18688   0.47701   0.00000  Uiso   1.00
C219   C     0.77218   0.20301   0.04813   0.00000  Uiso   1.00
C220   C     0.89659   0.20770   0.03046   0.00000  Uiso   1.00
C221   C     0.83684   0.18670   0.48091   0.00000  Uiso   1.00
C222   C     0.81957   0.19615   0.02765   0.00000  Uiso   1.00
C223   C     0.68153   0.15390   0.06991   0.00000  Uiso   1.00
C224   C     0.96097   0.13042   0.49178   0.00000  Uiso   1.00
C225   C     0.93922   0.22851   0.13004   0.00000  Uiso   1.00
C226   C     0.71257   0.13886   0.39100   0.00000  Uiso   1.00
C227   C     0.70476   0.22318   0.44820   0.00000  Uiso   1.00
C228   C     0.95396   0.25839   0.04107   0.00000  Uiso   1.00
C229   C     0.75472   0.22084   0.09351   0.00000  Uiso   1.00
C230   C     0.88437   0.17728   0.46266   0.00000  Uiso   1.00
C231   C     0.90120   0.14852   0.42406   0.00000  Uiso   1.00
C232   C     0.99910   0.08670   0.15916   0.00000  Uiso   1.00
C233   C     0.69550   0.23336   0.33620   0.00000  Uiso   1.00
C234   C     0.71144   0.06171   0.24105   0.00000  Uiso   1.00
C235   C     0.92048   0.23934   0.33244   0.00000  Uiso   1.00
C236   C     0.74143   0.19512   0.02334   0.00000  Uiso   1.00
C237   C     0.91452   0.18944   0.48736   0.00000  Uiso   1.00
C238   C     0.87163   0.31128   0.22381   0.00000  Uiso   1.00
C239   C     0.79608   0.02231   0.27956   0.00000  Uiso   1.00
C240   C     0.87125   0.02101   0.22320   0.00000  Uiso   1.00
H241   H     0.80927   0.16639   0.10948   0.00000  Uiso   1.00
H242   H     0.69491   0.12587   0.04777   0.00000  Uiso   1.00
H243   H     0.97423   0.17299   0.44114   0.00000  Uiso   1.00
H244   H     0.99722   0.12064   0.48492   0.00000  Uiso   1.00
H245   H     0.94383   0.10707   0.47486   0.00000  Uiso   1.00
H246   H     0.94378   0.13003   0.02845   0.00000  Uiso   1.00
H247   H     0.93740   0.11146   0.19506   0.00000  Uiso   1.00
H248   H     0.98209   0.08445   0.13226   0.00000  Uiso   1.00
H249   H     0.67554   0.05435   0.16467   0.00000  Uiso   1.00
H250   H     0.69696   0.10619   0.14681   0.00000  Uiso   1.00
H251   H     0.69673   0.26346   0.27748   0.00000  Uiso   1.00
H252   H     0.85476   0.18891   0.38994   0.00000  Uiso   1.00
H253   H     0.72909   0.23599   0.34294   0.00000  Uiso   1.00
H254   H     0.67835   0.20392   0.35056   0.00000  Uiso   1.00
H255   H     0.67413   0.26045   0.35366   0.00000  Uiso   1.00
H256   H     0.75696   0.10292   0.19666   0.00000  Uiso   1.00
H257   H     0.73523   0.03546   0.22557   0.00000  Uiso   1.00
H258   H     0.67588   0.05110   0.24421   0.00000  Uiso   1.00
H259   H     0.71379   0.06973   0.27514   0.00000  Uiso   1.00
H260   H     0.95708   0.26367   0.27066   0.00000  Uiso   1.00
H261   H     0.93272   0.26771   0.34720   0.00000  Uiso   1.00
H262   H     0.88306   0.24297   0.33809   0.00000  Uiso   1.00
H263   H     0.90081   0.29416   0.20233   0.00000  Uiso   1.00
H264   H     0.92687   0.21135   0.34990   0.00000  Uiso   1.00
H265   H     0.76779   0.03961   0.30242   0.00000  Uiso   1.00
H266   H     0.90017   0.03722   0.20113   0.00000  Uiso   1.00
H267   H     0.76728   0.29631   0.30159   0.00000  Uiso   1.00
H268   H     0.68201   0.21828   0.06565   0.00000  Uiso   1.00
H269   H     0.69580   0.15468   0.09855   0.00000  Uiso   1.00
H270   H     0.97712   0.15112   0.08340   0.00000  Uiso   1.00
N271   N     0.71426   0.16668   0.25001   0.00000  Uiso   1.00
N272   N     0.91460   0.12553   0.39339   0.00000  Uiso   1.00
N273   N     0.96768   0.10427   0.20042   0.00000  Uiso   1.00
N274   N     0.70254   0.23444   0.28831   0.00000  Uiso   1.00
N275   N     0.72288   0.09794   0.21324   0.00000  Uiso   1.00
N276   N     0.94329   0.23589   0.28473   0.00000  Uiso   1.00
N277   N     0.95241   0.16666   0.24999   0.00000  Uiso   1.00
N278   N     0.69376   0.19211   0.04547   0.00000  Uiso   1.00
N279   N     0.95912   0.17208   0.47511   0.00000  Uiso   1.00
N280   N     0.96081   0.24120   0.15251   0.00000  Uiso   1.00
N281   N     0.68817   0.11924   0.37601   0.00000  Uiso   1.00
N282   N     0.68701   0.25416   0.44451   0.00000  Uiso   1.00
N283   N     0.97712   0.28750   0.03022   0.00000  Uiso   1.00
N284   N     0.74078   0.23503   0.12966   0.00000  Uiso   1.00
O285   O     0.79512   0.22775   0.25001   0.00000  Uiso   1.00
O286   O     0.87154   0.10558   0.25000   0.00000  Uiso   1.00
O287   O     0.87157   0.22774   0.25000   0.00000  Uiso   1.00
O288   O     0.79510   0.10559   0.25000   0.00000  Uiso   1.00
O289   O     0.77328   0.16667   0.31613   0.00000  Uiso   1.00
O290   O     0.89339   0.16666   0.18388   0.00000  Uiso   1.00
O291   O     0.84972   0.16666   0.31612   0.00000  Uiso   1.00
O292   O     0.81695   0.16667   0.18388   0.00000  Uiso   1.00
Zn293  Zn    0.78229   0.16667   0.25000   0.00000  Uiso   1.00
Zn294  Zn    0.88438   0.16666   0.25000   0.00000  Uiso   1.00
C295   C     0.16674   0.57964   0.25054   0.00000  Uiso   1.00
C296   C     0.12937   0.64583   0.27943   0.00000  Uiso   1.00
C297   C     0.16651   0.37613   0.25066   0.00000  Uiso   1.00
C298   C     0.16703   0.62399   0.25131   0.00000  Uiso   1.00
C299   C     0.31614   0.46881   0.22731   0.00000  Uiso   1.00
C300   C     0.01842   0.53297   0.26874   0.00000  Uiso   1.00
C301   C     0.02922   0.46744   0.23050   0.00000  Uiso   1.00
C302   C     0.30417   0.53298   0.26870   0.00000  Uiso   1.00
C303   C     0.13850   0.49916   0.33658   0.00000  Uiso   1.00
C304   C     0.19449   0.50412   0.16407   0.00000  Uiso   1.00
C305   C     0.12316   0.50131   0.38532   0.00000  Uiso   1.00
C306   C     0.16649   0.42040   0.25015   0.00000  Uiso   1.00
C307   C     0.20696   0.52000   0.11888   0.00000  Uiso   1.00
C308   C     0.06139   0.51785   0.45057   0.00000  Uiso   1.00
C309   C     0.25746   0.55634   0.05640   0.00000  Uiso   1.00
C310   C     0.07698   0.49629   0.40934   0.00000  Uiso   1.00
C311   C     0.24591   0.54555   0.10164   0.00000  Uiso   1.00
C312   C     0.15364   0.51420   0.40854   0.00000  Uiso   1.00
C313   C     0.17447   0.51646   0.09540   0.00000  Uiso   1.00
C314   C     0.13902   0.51719   0.45549   0.00000  Uiso   1.00
C315   C     0.18434   0.53169   0.05238   0.00000  Uiso   1.00
C316   C     0.09133   0.52021   0.47701   0.00000  Uiso   1.00
C317   C     0.10551   0.53635   0.04813   0.00000  Uiso   1.00
C318   C     0.22992   0.54104   0.03046   0.00000  Uiso   1.00
C319   C     0.17017   0.52003   0.48091   0.00000  Uiso   1.00
C320   C     0.15290   0.52948   0.02765   0.00000  Uiso   1.00
C321   C     0.01486   0.48724   0.06991   0.00000  Uiso   1.00
C322   C     0.29430   0.46375   0.49178   0.00000  Uiso   1.00
C323   C     0.27255   0.56184   0.13004   0.00000  Uiso   1.00
C324   C     0.04591   0.47219   0.39100   0.00000  Uiso   1.00
C325   C     0.03810   0.55652   0.44820   0.00000  Uiso   1.00
C326   C     0.28729   0.59172   0.04107   0.00000  Uiso   1.00
C327   C     0.08805   0.55417   0.09351   0.00000  Uiso   1.00
C328   C     0.21770   0.51061   0.46266   0.00000  Uiso   1.00
C329   C     0.23454   0.48185   0.42406   0.00000  Uiso   1.00
C330   C     0.33243   0.42004   0.15916   0.00000  Uiso   1.00
C331   C     0.02883   0.56670   0.33620   0.00000  Uiso   1.00
C332   C     0.04478   0.39504   0.24105   0.00000  Uiso   1.00
C333   C     0.25381   0.57268   0.33244   0.00000  Uiso   1.00
C334   C     0.07477   0.52845   0.02334   0.00000  Uiso   1.00
C335   C     0.24786   0.52277   0.48736   0.00000  Uiso   1.00
C336   C     0.20497   0.64462   0.22381   0.00000  Uiso   1.00
C337   C     0.12941   0.35564   0.27956   0.00000  Uiso   1.00
C338   C     0.20459   0.35434   0.22320   0.00000  Uiso   1.00
H339   H     0.14261   0.49973   0.10948   0.00000  Uiso   1.00
H340   H     0.02824   0.45920   0.04777   0.00000  Uiso   1.00
H341   H     0.30756   0.50633   0.44114   0.00000  Uiso   1.00
H342   H     0.33055   0.45397   0.48492   0.00000  Uiso   1.00
H343   H     0.27717   0.44040   0.47486   0.00000  Uiso   1.00
H344   H     0.27711   0.46336   0.02845   0.00000  Uiso   1.00
H345   H     0.27073   0.44479   0.19506   0.00000  Uiso   1.00
H346   H     0.31543   0.41778   0.13226   0.00000  Uiso   1.00
H347   H     0.00888   0.38768   0.16467   0.00000  Uiso   1.00
H348   H     0.03029   0.43952   0.14681   0.00000  Uiso   1.00
H349   H     0.03007   0.59679   0.27748   0.00000  Uiso   1.00
H350   H     0.18809   0.52224   0.38994   0.00000  Uiso   1.00
H351   H     0.06242   0.56932   0.34294   0.00000  Uiso   1.00
H352   H     0.01168   0.53725   0.35056   0.00000  Uiso   1.00
H353   H     0.00746   0.59379   0.35366   0.00000  Uiso   1.00
H354   H     0.09029   0.43626   0.19666   0.00000  Uiso   1.00
H355   H     0.06856   0.36879   0.22557   0.00000  Uiso   1.00
H356   H     0.00921   0.38443   0.24421   0.00000  Uiso   1.00
H357   H     0.04712   0.40306   0.27514   0.00000  Uiso   1.00
H358   H     0.29042   0.59700   0.27066   0.00000  Uiso   1.00
H359   H     0.26606   0.60105   0.34720   0.00000  Uiso   1.00
H360   H     0.21639   0.57631   0.33809   0.00000  Uiso   1.00
H361   H     0.23414   0.62749   0.20233   0.00000  Uiso   1.00
H362   H     0.26021   0.54468   0.34990   0.00000  Uiso   1.00
H363   H     0.10112   0.37294   0.30242   0.00000  Uiso   1.00
H364   H     0.23351   0.37055   0.20113   0.00000  Uiso   1.00
H365   H     0.10061   0.62964   0.30159   0.00000  Uiso   1.00
H366   H     0.01534   0.55161   0.06565   0.00000  Uiso   1.00
H367   H     0.02913   0.48802   0.09855   0.00000  Uiso   1.00
H368   H     0.31045   0.48445   0.08340   0.00000  Uiso   1.00
N369   N     0.04759   0.50001   0.25001   0.00000  Uiso   1.00
N370   N     0.24793   0.45887   0.39339   0.00000  Uiso   1.00
N371   N     0.30102   0.43761   0.20042   0.00000  Uiso   1.00
N372   N     0.03588   0.56778   0.28831   0.00000  Uiso   1.00
N373   N     0.05622   0.43128   0.21324   0.00000  Uiso   1.00
N374   N     0.27663   0.56923   0.28473   0.00000  Uiso   1.00
N375   N     0.28574   0.49999   0.24999   0.00000  Uiso   1.00
N376   N     0.02709   0.52544   0.04547   0.00000  Uiso   1.00
N377   N     0.29245   0.50542   0.47511   0.00000  Uiso   1.00
N378   N     0.29414   0.57454   0.15251   0.00000  Uiso   1.00
N379   N     0.02150   0.45258   0.37601   0.00000  Uiso   1.00
N380   N     0.02035   0.58750   0.44451   0.00000  Uiso   1.00
N381   N     0.31045   0.62083   0.03022   0.00000  Uiso   1.00
N382   N     0.07412   0.56836   0.12966   0.00000  Uiso   1.00
O383   O     0.12846   0.56108   0.25001   0.00000  Uiso   1.00
O384   O     0.20488   0.43892   0.25000   0.00000  Uiso   1.00
O385   O     0.20490   0.56107   0.25000   0.00000  Uiso   1.00
O386   O     0.12843   0.43893   0.25000   0.00000  Uiso   1.00
O387   O     0.10661   0.50001   0.31613   0.00000  Uiso   1.00
O388   O     0.22672   0.49999   0.18388   0.00000  Uiso   1.00
O389   O     0.18305   0.50000   0.31612   0.00000  Uiso   1.00
O390   O     0.15028   0.50000   0.18388   0.00000  Uiso   1.00
Zn391  Zn    0.11562   0.50001   0.25000   0.00000  Uiso   1.00
Zn392  Zn    0.21771   0.49999   0.25000   0.00000  Uiso   1.00
C393   C     0.50007   0.57964   0.25054   0.00000  Uiso   1.00
C394   C     0.46270   0.64583   0.27943   0.00000  Uiso   1.00
C395   C     0.49984   0.37613   0.25066   0.00000  Uiso   1.00
C396   C     0.50037   0.62399   0.25131   0.00000  Uiso   1.00
C397   C     0.64948   0.46881   0.22731   0.00000  Uiso   1.00
C398   C     0.35175   0.53297   0.26874   0.00000  Uiso   1.00
C399   C     0.36256   0.46744   0.23050   0.00000  Uiso   1.00
C400   C     0.63751   0.53298   0.26870   0.00000  Uiso   1.00
C401   C     0.47183   0.49916   0.33658   0.00000  Uiso   1.00
C402   C     0.52783   0.50412   0.16407   0.00000  Uiso   1.00
C403   C     0.45650   0.50131   0.38532   0.00000  Uiso   1.00
C404   C     0.49982   0.42040   0.25015   0.00000  Uiso   1.00
C405   C     0.54029   0.52000   0.11888   0.00000  Uiso   1.00
C406   C     0.39473   0.51785   0.45057   0.00000  Uiso   1.00
C407   C     0.59080   0.55634   0.05640   0.00000  Uiso   1.00
C408   C     0.41032   0.49629   0.40934   0.00000  Uiso   1.00
C409   C     0.57925   0.54555   0.10164   0.00000  Uiso   1.00
C410   C     0.48697   0.51420   0.40854   0.00000  Uiso   1.00
C411   C     0.50781   0.51646   0.09540   0.00000  Uiso   1.00
C412   C     0.47236   0.51719   0.45549   0.00000  Uiso   1.00
C413   C     0.51768   0.53169   0.05238   0.00000  Uiso   1.00
C414   C     0.42466   0.52021   0.47701   0.00000  Uiso   1.00
C415   C     0.43885   0.53635   0.04813   0.00000  Uiso   1.00
C416   C     0.56325   0.54104   0.03046   0.00000  Uiso   1.00
C417   C     0.50351   0.52003   0.48091   0.00000  Uiso   1.00
C418   C     0.48624   0.52948   0.02765   0.00000  Uiso   1.00
C419   C     0.34819   0.48724   0.06991   0.00000  Uiso   1.00
C420   C     0.62764   0.46375   0.49178   0.00000  Uiso   1.00
C421   C     0.60589   0.56184   0.13004   0.00000  Uiso   1.00
C422   C     0.37924   0.47219   0.39100   0.00000  Uiso   1.00
C423   C     0.37143   0.55652   0.44820   0.00000  Uiso   1.00
C424   C     0.62063   0.59172   0.04107   0.00000  Uiso   1.00
C425   C     0.42139   0.55417   0.09351   0.00000  Uiso   1.00
C426   C     0.55103   0.51061   0.46266   0.00000  Uiso   1.00
C427   C     0.56787   0.48185   0.42406   0.00000  Uiso   1.00
C428   C     0.66577   0.42004   0.15916   0.00000  Uiso   1.00
C429   C     0.36216   0.56670   0.33620   0.00000  Uiso   1.00
C430   C     0.37811   0.39504   0.24105   0.00000  Uiso   1.00
C431   C     0.58715   0.57268   0.33244   0.00000  Uiso   1.00
C432   C     0.40810   0.52845   0.02334   0.00000  Uiso   1.00
C433   C     0.58119   0.52277   0.48736   0.00000  Uiso   1.00
C434   C     0.53830   0.64462   0.22381   0.00000  Uiso   1.00
C435   C     0.46274   0.35564   0.27956   0.00000  Uiso   1.00
C436   C     0.53792   0.35434   0.22320   0.00000  Uiso   1.00
H437   H     0.47594   0.49973   0.10948   0.00000  Uiso   1.00
H438   H     0.36157   0.45920   0.04777   0.00000  Uiso   1.00
H439   H     0.64090   0.50633   0.44114   0.00000  Uiso   1.00
H440   H     0.66389   0.45397   0.48492   0.00000  Uiso   1.00
H441   H     0.61050   0.44040   0.47486   0.00000  Uiso   1.00
H442   H     0.61045   0.46336   0.02845   0.00000  Uiso   1.00
H443   H     0.60407   0.44479   0.19506   0.00000  Uiso   1.00
H444   H     0.64876   0.41778   0.13226   0.00000  Uiso   1.00
H445   H     0.34221   0.38768   0.16467   0.00000  Uiso   1.00
H446   H     0.36362   0.43952   0.14681   0.00000  Uiso   1.00
H447   H     0.36340   0.59679   0.27748   0.00000  Uiso   1.00
H448   H     0.52143   0.52224   0.38994   0.00000  Uiso   1.00
H449   H     0.39575   0.56932   0.34294   0.00000  Uiso   1.00
H450   H     0.34501   0.53725   0.35056   0.00000  Uiso   1.00
H451   H     0.34079   0.59379   0.35366   0.00000  Uiso   1.00
H452   H     0.42362   0.43626   0.19666   0.00000  Uiso   1.00
H453   H     0.40190   0.36879   0.22557   0.00000  Uiso   1.00
H454   H     0.34254   0.38443   0.24421   0.00000  Uiso   1.00
H455   H     0.38045   0.40306   0.27514   0.00000  Uiso   1.00
H456   H     0.62375   0.59700   0.27066   0.00000  Uiso   1.00
H457   H     0.59939   0.60105   0.34720   0.00000  Uiso   1.00
H458   H     0.54973   0.57631   0.33809   0.00000  Uiso   1.00
H459   H     0.56747   0.62749   0.20233   0.00000  Uiso   1.00
H460   H     0.59354   0.54468   0.34990   0.00000  Uiso   1.00
H461   H     0.43445   0.37294   0.30242   0.00000  Uiso   1.00
H462   H     0.56684   0.37055   0.20113   0.00000  Uiso   1.00
H463   H     0.43394   0.62964   0.30159   0.00000  Uiso   1.00
H464   H     0.34868   0.55161   0.06565   0.00000  Uiso   1.00
H465   H     0.36247   0.48802   0.09855   0.00000  Uiso   1.00
H466   H     0.64378   0.48445   0.08340   0.00000  Uiso   1.00
N467   N     0.38093   0.50001   0.25001   0.00000  Uiso   1.00
N468   N     0.58126   0.45887   0.39339   0.00000  Uiso   1.00
N469   N     0.63435   0.43761   0.20042   0.00000  Uiso   1.00
N470   N     0.36921   0.56778   0.28831   0.00000  Uiso   1.00
N471   N     0.38955   0.43128   0.21324   0.00000  Uiso   1.00
N472   N     0.60996   0.56923   0.28473   0.00000  Uiso   1.00
N473   N     0.61907   0.49999   0.24999   0.00000  Uiso   1.00
N474   N     0.36042   0.52544   0.04547   0.00000  Uiso   1.00
N475   N     0.62578   0.50542   0.47511   0.00000  Uiso   1.00
N476   N     0.62748   0.57454   0.15251   0.00000  Uiso   1.00
N477   N     0.35484   0.45258   0.37601   0.00000  Uiso   1.00
N478   N     0.35368   0.58750   0.44451   0.00000  Uiso   1.00
N479   N     0.64378   0.62083   0.03022   0.00000  Uiso   1.00
N480   N     0.40745   0.56836   0.12966   0.00000  Uiso   1.00
O481   O     0.46179   0.56108   0.25001   0.00000  Uiso   1.00
O482   O     0.53821   0.43892   0.25000   0.00000  Uiso   1.00
O483   O     0.53823   0.56107   0.25000   0.00000  Uiso   1.00
O484   O     0.46177   0.43893   0.25000   0.00000  Uiso   1.00
O485   O     0.43994   0.50001   0.31613   0.00000  Uiso   1.00
O486   O     0.56006   0.49999   0.18388   0.00000  Uiso   1.00
O487   O     0.51639   0.50000   0.31612   0.00000  Uiso   1.00
O488   O     0.48361   0.50000   0.18388   0.00000  Uiso   1.00
Zn489  Zn    0.44896   0.50001   0.25000   0.00000  Uiso   1.00
Zn490  Zn    0.55104   0.49999   0.25000   0.00000  Uiso   1.00
C491   C     0.83340   0.57964   0.25054   0.00000  Uiso   1.00
C492   C     0.79603   0.64583   0.27943   0.00000  Uiso   1.00
C493   C     0.83318   0.37613   0.25066   0.00000  Uiso   1.00
C494   C     0.83370   0.62399   0.25131   0.00000  Uiso   1.00
C495   C     0.98281   0.46881   0.22731   0.00000  Uiso   1.00
C496   C     0.68509   0.53297   0.26874   0.00000  Uiso   1.00
C497   C     0.69589   0.46744   0.23050   0.00000  Uiso   1.00
C498   C     0.97084   0.53298   0.26870   0.00000  Uiso   1.00
C499   C     0.80516   0.49916   0.33658   0.00000  Uiso   1.00
C500   C     0.86116   0.50412   0.16407   0.00000  Uiso   1.00
C501   C     0.78983   0.50131   0.38532   0.00000  Uiso   1.00
C502   C     0.83315   0.42040   0.25015   0.00000  Uiso   1.00
C503   C     0.87363   0.52000   0.11888   0.00000  Uiso   1.00
C504   C     0.72806   0.51785   0.45057   0.00000  Uiso   1.00
C505   C     0.92413   0.55634   0.05640   0.00000  Uiso   1.00
C506   C     0.74365   0.49629   0.40934   0.00000  Uiso   1.00
C507   C     0.91258   0.54555   0.10164   0.00000  Uiso   1.00
C508   C     0.82030   0.51420   0.40854   0.00000  Uiso   1.00
C509   C     0.84114   0.51646   0.09540   0.00000  Uiso   1.00
C510   C     0.80569   0.51719   0.45549   0.00000  Uiso   1.00
C511   C     0.85101   0.53169   0.05238   0.00000  Uiso   1.00
C512   C     0.75800   0.52021   0.47701   0.00000  Uiso   1.00
C513   C     0.77218   0.53635   0.04813   0.00000  Uiso   1.00
C514   C     0.89659   0.54104   0.03046   0.00000  Uiso   1.00
C515   C     0.83684   0.52003   0.48091   0.00000  Uiso   1.00
C516   C     0.81957   0.52948   0.02765   0.00000  Uiso   1.00
C517   C     0.68153   0.48724   0.06991   0.00000  Uiso   1.00
C518   C     0.96097   0.46375   0.49178   0.00000  Uiso   1.00
C519   C     0.93922   0.56184   0.13004   0.00000  Uiso   1.00
C520   C     0.71257   0.47219   0.39100   0.00000  Uiso   1.00
C521   C     0.70476   0.55652   0.44820   0.00000  Uiso   1.00
C522   C     0.95396   0.59172   0.04107   0.00000  Uiso   1.00
C523   C     0.75472   0.55417   0.09351   0.00000  Uiso   1.00
C524   C     0.88437   0.51061   0.46266   0.00000  Uiso   1.00
C525   C     0.90120   0.48185   0.42406   0.00000  Uiso   1.00
C526   C     0.99910   0.42004   0.15916   0.00000  Uiso   1.00
C527   C     0.69550   0.56670   0.33620   0.00000  Uiso   1.00
C528   C     0.71144   0.39504   0.24105   0.00000  Uiso   1.00
C529   C     0.92048   0.57268   0.33244   0.00000  Uiso   1.00
C530   C     0.74143   0.52845   0.02334   0.00000  Uiso   1.00
C531   C     0.91452   0.52277   0.48736   0.00000  Uiso   1.00
C532   C     0.87163   0.64462   0.22381   0.00000  Uiso   1.00
C533   C     0.79608   0.35564   0.27956   0.00000  Uiso   1.00
C534   C     0.87125   0.35434   0.22320   0.00000  Uiso   1.00
H535   H     0.80927   0.49973   0.10948   0.00000  Uiso   1.00
H536   H     0.69491   0.45920   0.04777   0.00000  Uiso   1.00
H537   H     0.97423   0.50633   0.44114   0.00000  Uiso   1.00
H538   H     0.99722   0.45397   0.48492   0.00000  Uiso   1.00
H539   H     0.94383   0.44040   0.47486   0.00000  Uiso   1.00
H540   H     0.94378   0.46336   0.02845   0.00000  Uiso   1.00
H541   H     0.93740   0.44479   0.19506   0.00000  Uiso   1.00
H542   H     0.98209   0.41778   0.13226   0.00000  Uiso   1.00
H543   H     0.67554   0.38768   0.16467   0.00000  Uiso   1.00
H544   H     0.69696   0.43952   0.14681   0.00000  Uiso   1.00
H545   H     0.69673   0.59679   0.27748   0.00000  Uiso   1.00
H546   H     0.85476   0.52224   0.38994   0.00000  Uiso   1.00
H547   H     0.72909   0.56932   0.34294   0.00000  Uiso   1.00
H548   H     0.67835   0.53725   0.35056   0.00000  Uiso   1.00
H549   H     0.67413   0.59379   0.35366   0.00000  Uiso   1.00
H550   H     0.75696   0.43626   0.19666   0.00000  Uiso   1.00
H551   H     0.73523   0.36879   0.22557   0.00000  Uiso   1.00
H552   H     0.67588   0.38443   0.24421   0.00000  Uiso   1.00
H553   H     0.71379   0.40306   0.27514   0.00000  Uiso   1.00
H554   H     0.95708   0.59700   0.27066   0.00000  Uiso   1.00
H555   H     0.93272   0.60105   0.34720   0.00000  Uiso   1.00
H556   H     0.88306   0.57631   0.33809   0.00000  Uiso   1.00
H557   H     0.90081   0.62749   0.20233   0.00000  Uiso   1.00
H558   H     0.92687   0.54468   0.34990   0.00000  Uiso   1.00
H559   H     0.76779   0.37294   0.30242   0.00000  Uiso   1.00
H560   H     0.90017   0.37055   0.20113   0.00000  Uiso   1.00
H561   H     0.76728   0.62964   0.30159   0.00000  Uiso   1.00
H562   H     0.68201   0.55161   0.06565   0.00000  Uiso   1.00
H563   H     0.69580   0.48802   0.09855   0.00000  Uiso   1.00
H564   H     0.97712   0.48445   0.08340   0.00000  Uiso   1.00
N565   N     0.71426   0.50001   0.25001   0.00000  Uiso   1.00
N566   N     0.91460   0.45887   0.39339   0.00000  Uiso   1.00
N567   N     0.96768   0.43761   0.20042   0.00000  Uiso   1.00
N568   N     0.70254   0.56778   0.28831   0.00000  Uiso   1.00
N569   N     0.72288   0.43128   0.21324   0.00000  Uiso   1.00
N570   N     0.94329   0.56923   0.28473   0.00000  Uiso   1.00
N571   N     0.95241   0.49999   0.24999   0.00000  Uiso   1.00
N572   N     0.69376   0.52544   0.04547   0.00000  Uiso   1.00
N573   N     0.95912   0.50542   0.47511   0.00000  Uiso   1.00
N574   N     0.96081   0.57454   0.15251   0.00000  Uiso   1.00
N575   N     0.68817   0.45258   0.37601   0.00000  Uiso   1.00
N576   N     0.68701   0.58750   0.44451   0.00000  Uiso   1.00
N577   N     0.97712   0.62083   0.03022   0.00000  Uiso   1.00
N578   N     0.74078   0.56836   0.12966   0.00000  Uiso   1.00
O579   O     0.79512   0.56108   0.25001   0.00000  Uiso   1.00
O580   O     0.87154   0.43892   0.25000   0.00000  Uiso   1.00
O581   O     0.87157   0.56107   0.25000   0.00000  Uiso   1.00
O582   O     0.79510   0.43893   0.25000   0.00000  Uiso   1.00
O583   O     0.77328   0.50001   0.31613   0.00000  Uiso   1.00
O584   O     0.89339   0.49999   0.18388   0.00000  Uiso   1.00
O585   O     0.84972   0.50000   0.31612   0.00000  Uiso   1.00
O586   O     0.81695   0.50000   0.18388   0.00000  Uiso   1.00
Zn587  Zn    0.78229   0.50001   0.25000   0.00000  Uiso   1.00
Zn588  Zn    0.88438   0.49999   0.25000   0.00000  Uiso   1.00
C589   C     0.16674   0.91297   0.25054   0.00000  Uiso   1.00
C590   C     0.12937   0.97916   0.27943   0.00000  Uiso   1.00
C591   C     0.16651   0.70947   0.25066   0.00000  Uiso   1.00
C592   C     0.16703   0.95733   0.25131   0.00000  Uiso   1.00
C593   C     0.31614   0.80214   0.22731   0.00000  Uiso   1.00
C594   C     0.01842   0.86631   0.26874   0.00000  Uiso   1.00
C595   C     0.02922   0.80078   0.23050   0.00000  Uiso   1.00
C596   C     0.30417   0.86631   0.26870   0.00000  Uiso   1.00
C597   C     0.13850   0.83250   0.33658   0.00000  Uiso   1.00
C598   C     0.19449   0.83745   0.16407   0.00000  Uiso   1.00
C599   C     0.12316   0.83465   0.38532   0.00000  Uiso   1.00
C600   C     0.16649   0.75373   0.25015   0.00000  Uiso   1.00
C601   C     0.20696   0.85334   0.11888   0.00000  Uiso   1.00
C602   C     0.06139   0.85118   0.45057   0.00000  Uiso   1.00
C603   C     0.25746   0.88967   0.05640   0.00000  Uiso   1.00
C604   C     0.07698   0.82962   0.40934   0.00000  Uiso   1.00
C605   C     0.24591   0.87889   0.10164   0.00000  Uiso   1.00
C606   C     0.15364   0.84753   0.40854   0.00000  Uiso   1.00
C607   C     0.17447   0.84979   0.09540   0.00000  Uiso   1.00
C608   C     0.13902   0.85052   0.45549   0.00000  Uiso   1.00
C609   C     0.18434   0.86502   0.05238   0.00000  Uiso   1.00
C610   C     0.09133   0.85355   0.47701   0.00000  Uiso   1.00
C611   C     0.10551   0.86968   0.04813   0.00000  Uiso   1.00
C612   C     0.22992   0.87437   0.03046   0.00000  Uiso   1.00
C613   C     0.17017   0.85336   0.48091   0.00000  Uiso   1.00
C614   C     0.15290   0.86281   0.02765   0.00000  Uiso   1.00
C615   C     0.01486   0.82057   0.06991   0.00000  Uiso   1.00
C616   C     0.29430   0.79708   0.49178   0.00000  Uiso   1.00
C617   C     0.27255   0.89517   0.13004   0.00000  Uiso   1.00
C618   C     0.04591   0.80553   0.39100   0.00000  Uiso   1.00
C619   C     0.03810   0.88985   0.44820   0.00000  Uiso   1.00
C620   C     0.28729   0.92506   0.04107   0.00000  Uiso   1.00
C621   C     0.08805   0.88750   0.09351   0.00000  Uiso   1.00
C622   C     0.21770   0.84395   0.46266   0.00000  Uiso   1.00
C623   C     0.23454   0.81519   0.42406   0.00000  Uiso   1.00
C624   C     0.33243   0.75337   0.15916   0.00000  Uiso   1.00
C625   C     0.02883   0.90003   0.33620   0.00000  Uiso   1.00
C626   C     0.04478   0.72837   0.24105   0.00000  Uiso   1.00
C627   C     0.25381   0.90601   0.33244   0.00000  Uiso   1.00
C628   C     0.07477   0.86178   0.02334   0.00000  Uiso   1.00
C629   C     0.24786   0.85611   0.48736   0.00000  Uiso   1.00
C630   C     0.20497   0.97795   0.22381   0.00000  Uiso   1.00
C631   C     0.12941   0.68897   0.27956   0.00000  Uiso   1.00
C632   C     0.20459   0.68767   0.22320   0.00000  Uiso   1.00
H633   H     0.14261   0.83306   0.10948   0.00000  Uiso   1.00
H634   H     0.02824   0.79254   0.04777   0.00000  Uiso   1.00
H635   H     0.30756   0.83966   0.44114   0.00000  Uiso   1.00
H636   H     0.33055   0.78731   0.48492   0.00000  Uiso   1.00
H637   H     0.27717   0.77373   0.47486   0.00000  Uiso   1.00
H638   H     0.27711   0.79670   0.02845   0.00000  Uiso   1.00
H639   H     0.27073   0.77813   0.19506   0.00000  Uiso   1.00
H640   H     0.31543   0.75112   0.13226   0.00000  Uiso   1.00
H641   H     0.00888   0.72102   0.16467   0.00000  Uiso   1.00
H642   H     0.03029   0.77285   0.14681   0.00000  Uiso   1.00
H643   H     0.03007   0.93012   0.27748   0.00000  Uiso   1.00
H644   H     0.18809   0.85558   0.38994   0.00000  Uiso   1.00
H645   H     0.06242   0.90266   0.34294   0.00000  Uiso   1.00
H646   H     0.01168   0.87058   0.35056   0.00000  Uiso   1.00
H647   H     0.00746   0.92712   0.35366   0.00000  Uiso   1.00
H648   H     0.09029   0.76959   0.19666   0.00000  Uiso   1.00
H649   H     0.06856   0.70213   0.22557   0.00000  Uiso   1.00
H650   H     0.00921   0.71776   0.24421   0.00000  Uiso   1.00
H651   H     0.04712   0.73639   0.27514   0.00000  Uiso   1.00
H652   H     0.29042   0.93033   0.27066   0.00000  Uiso   1.00
H653   H     0.26606   0.93438   0.34720   0.00000  Uiso   1.00
H654   H     0.21639   0.90964   0.33809   0.00000  Uiso   1.00
H655   H     0.23414   0.96083   0.20233   0.00000  Uiso   1.00
H656   H     0.26021   0.87801   0.34990   0.00000  Uiso   1.00
H657   H     0.10112   0.70627   0.30242   0.00000  Uiso   1.00
H658   H     0.23351   0.70388   0.20113   0.00000  Uiso   1.00
H659   H     0.10061   0.96297   0.30159   0.00000  Uiso   1.00
H660   H     0.01534   0.88495   0.06565   0.00000  Uiso   1.00
H661   H     0.02913   0.82135   0.09855   0.00000  Uiso   1.00
H662   H     0.31045   0.81779   0.08340   0.00000  Uiso   1.00
N663   N     0.04759   0.83334   0.25001   0.00000  Uiso   1.00
N664   N     0.24793   0.79220   0.39339   0.00000  Uiso   1.00
N665   N     0.30102   0.77094   0.20042   0.00000  Uiso   1.00
N666   N     0.03588   0.90111   0.28831   0.00000  Uiso   1.00
N667   N     0.05622   0.76461   0.21324   0.00000  Uiso   1.00
N668   N     0.27663   0.90256   0.28473   0.00000  Uiso   1.00
N669   N     0.28574   0.83332   0.24999   0.00000  Uiso   1.00
N670   N     0.02709   0.85877   0.04547   0.00000  Uiso   1.00
N671   N     0.29245   0.83875   0.47511   0.00000  Uiso   1.00
N672   N     0.29414   0.90787   0.15251   0.00000  Uiso   1.00
N673   N     0.02150   0.78591   0.37601   0.00000  Uiso   1.00
N674   N     0.02035   0.92083   0.44451   0.00000  Uiso   1.00
N675   N     0.31045   0.95417   0.03022   0.00000  Uiso   1.00
N676   N     0.07412   0.90170   0.12966   0.00000  Uiso   1.00
O677   O     0.12846   0.89442   0.25001   0.00000  Uiso   1.00
O678   O     0.20488   0.77225   0.25000   0.00000  Uiso   1.00
O679   O     0.20490   0.89441   0.25000   0.00000  Uiso   1.00
O680   O     0.12843   0.77226   0.25000   0.00000  Uiso   1.00
O681   O     0.10661   0.83334   0.31613   0.00000  Uiso   1.00
O682   O     0.22672   0.83333   0.18388   0.00000  Uiso   1.00
O683   O     0.18305   0.83333   0.31612   0.00000  Uiso   1.00
O684   O     0.15028   0.83334   0.18388   0.00000  Uiso   1.00
Zn685  Zn    0.11562   0.83334   0.25000   0.00000  Uiso   1.00
Zn686  Zn    0.21771   0.83333   0.25000   0.00000  Uiso   1.00
C687   C     0.50007   0.91297   0.25054   0.00000  Uiso   1.00
C688   C     0.46270   0.97916   0.27943   0.00000  Uiso   1.00
C689   C     0.49984   0.70947   0.25066   0.00000  Uiso   1.00
C690   C     0.50037   0.95733   0.25131   0.00000  Uiso   1.00
C691   C     0.64948   0.80214   0.22731   0.00000  Uiso   1.00
C692   C     0.35175   0.86631   0.26874   0.00000  Uiso   1.00
C693   C     0.36256   0.80078   0.23050   0.00000  Uiso   1.00
C694   C     0.63751   0.86631   0.26870   0.00000  Uiso   1.00
C695   C     0.47183   0.83250   0.33658   0.00000  Uiso   1.00
C696   C     0.52783   0.83745   0.16407   0.00000  Uiso   1.00
C697   C     0.45650   0.83465   0.38532   0.00000  Uiso   1.00
C698   C     0.49982   0.75373   0.25015   0.00000  Uiso   1.00
C699   C     0.54029   0.85334   0.11888   0.00000  Uiso   1.00
C700   C     0.39473   0.85118   0.45057   0.00000  Uiso   1.00
C701   C     0.59080   0.88967   0.05640   0.00000  Uiso   1.00
C702   C     0.41032   0.82962   0.40934   0.00000  Uiso   1.00
C703   C     0.57925   0.87889   0.10164   0.00000  Uiso   1.00
C704   C     0.48697   0.84753   0.40854   0.00000  Uiso   1.00
C705   C     0.50781   0.84979   0.09540   0.00000  Uiso   1.00
C706   C     0.47236   0.85052   0.45549   0.00000  Uiso   1.00
C707   C     0.51768   0.86502   0.05238   0.00000  Uiso   1.00
C708   C     0.42466   0.85355   0.47701   0.00000  Uiso   1.00
C709   C     0.43885   0.86968   0.04813   0.00000  Uiso   1.00
C710   C     0.56325   0.87437   0.03046   0.00000  Uiso   1.00
C711   C     0.50351   0.85336   0.48091   0.00000  Uiso   1.00
C712   C     0.48624   0.86281   0.02765   0.00000  Uiso   1.00
C713   C     0.34819   0.82057   0.06991   0.00000  Uiso   1.00
C714   C     0.62764   0.79708   0.49178   0.00000  Uiso   1.00
C715   C     0.60589   0.89517   0.13004   0.00000  Uiso   1.00
C716   C     0.37924   0.80553   0.39100   0.00000  Uiso   1.00
C717   C     0.37143   0.88985   0.44820   0.00000  Uiso   1.00
C718   C     0.62063   0.92506   0.04107   0.00000  Uiso   1.00
C719   C     0.42139   0.88750   0.09351   0.00000  Uiso   1.00
C720   C     0.55103   0.84395   0.46266   0.00000  Uiso   1.00
C721   C     0.56787   0.81519   0.42406   0.00000  Uiso   1.00
C722   C     0.66577   0.75337   0.15916   0.00000  Uiso   1.00
C723   C     0.36216   0.90003   0.33620   0.00000  Uiso   1.00
C724   C     0.37811   0.72837   0.24105   0.00000  Uiso   1.00
C725   C     0.58715   0.90601   0.33244   0.00000  Uiso   1.00
C726   C     0.40810   0.86178   0.02334   0.00000  Uiso   1.00
C727   C     0.58119   0.85611   0.48736   0.00000  Uiso   1.00
C728   C     0.53830   0.97795   0.22381   0.00000  Uiso   1.00
C729   C     0.46274   0.68897   0.27956   0.00000  Uiso   1.00
C730   C     0.53792   0.68767   0.22320   0.00000  Uiso   1.00
H731   H     0.47594   0.83306   0.10948   0.00000  Uiso   1.00
H732   H     0.36157   0.79254   0.04777   0.00000  Uiso   1.00
H733   H     0.64090   0.83966   0.44114   0.00000  Uiso   1.00
H734   H     0.66389   0.78731   0.48492   0.00000  Uiso   1.00
H735   H     0.61050   0.77373   0.47486   0.00000  Uiso   1.00
H736   H     0.61045   0.79670   0.02845   0.00000  Uiso   1.00
H737   H     0.60407   0.77813   0.19506   0.00000  Uiso   1.00
H738   H     0.64876   0.75112   0.13226   0.00000  Uiso   1.00
H739   H     0.34221   0.72102   0.16467   0.00000  Uiso   1.00
H740   H     0.36362   0.77285   0.14681   0.00000  Uiso   1.00
H741   H     0.36340   0.93012   0.27748   0.00000  Uiso   1.00
H742   H     0.52143   0.85558   0.38994   0.00000  Uiso   1.00
H743   H     0.39575   0.90266   0.34294   0.00000  Uiso   1.00
H744   H     0.34501   0.87058   0.35056   0.00000  Uiso   1.00
H745   H     0.34079   0.92712   0.35366   0.00000  Uiso   1.00
H746   H     0.42362   0.76959   0.19666   0.00000  Uiso   1.00
H747   H     0.40190   0.70213   0.22557   0.00000  Uiso   1.00
H748   H     0.34254   0.71776   0.24421   0.00000  Uiso   1.00
H749   H     0.38045   0.73639   0.27514   0.00000  Uiso   1.00
H750   H     0.62375   0.93033   0.27066   0.00000  Uiso   1.00
H751   H     0.59939   0.93438   0.34720   0.00000  Uiso   1.00
H752   H     0.54973   0.90964   0.33809   0.00000  Uiso   1.00
H753   H     0.56747   0.96083   0.20233   0.00000  Uiso   1.00
H754   H     0.59354   0.87801   0.34990   0.00000  Uiso   1.00
H755   H     0.43445   0.70627   0.30242   0.00000  Uiso   1.00
H756   H     0.56684   0.70388   0.20113   0.00000  Uiso   1.00
H757   H     0.43394   0.96297   0.30159   0.00000  Uiso   1.00
H758   H     0.34868   0.88495   0.06565   0.00000  Uiso   1.00
H759   H     0.36247   0.82135   0.09855   0.00000  Uiso   1.00
H760   H     0.64378   0.81779   0.08340   0.00000  Uiso   1.00
N761   N     0.38093   0.83334   0.25001   0.00000  Uiso   1.00
N762   N     0.58126   0.79220   0.39339   0.00000  Uiso   1.00
N763   N     0.63435   0.77094   0.20042   0.00000  Uiso   1.00
N764   N     0.36921   0.90111   0.28831   0.00000  Uiso   1.00
N765   N     0.38955   0.76461   0.21324   0.00000  Uiso   1.00
N766   N     0.60996   0.90256   0.28473   0.00000  Uiso   1.00
N767   N     0.61907   0.83332   0.24999   0.00000  Uiso   1.00
N768   N     0.36042   0.85877   0.04547   0.00000  Uiso   1.00
N769   N     0.62578   0.83875   0.47511   0.00000  Uiso   1.00
N770   N     0.62748   0.90787   0.15251   0.00000  Uiso   1.00
N771   N     0.35484   0.78591   0.37601   0.00000  Uiso   1.00
N772   N     0.35368   0.92083   0.44451   0.00000  Uiso   1.00
N773   N     0.64378   0.95417   0.03022   0.00000  Uiso   1.00
N774   N     0.40745   0.90170   0.12966   0.00000  Uiso   1.00
O775   O     0.46179   0.89442   0.25001   0.00000  Uiso   1.00
O776   O     0.53821   0.77225   0.25000   0.00000  Uiso   1.00
O777   O     0.53823   0.89441   0.25000   0.00000  Uiso   1.00
O778   O     0.46177   0.77226   0.25000   0.00000  Uiso   1.00
O779   O     0.43994   0.83334   0.31613   0.00000  Uiso   1.00
O780   O     0.56006   0.83333   0.18388   0.00000  Uiso   1.00
O781   O     0.51639   0.83333   0.31612   0.00000  Uiso   1.00
O782   O     0.48361   0.83334   0.18388   0.00000  Uiso   1.00
Zn783  Zn    0.44896   0.83334   0.25000   0.00000  Uiso   1.00
Zn784  Zn    0.55104   0.83333   0.25000   0.00000  Uiso   1.00
C785   C     0.83340   0.91297   0.25054   0.00000  Uiso   1.00
C786   C     0.79603   0.97916   0.27943   0.00000  Uiso   1.00
C787   C     0.83318   0.70947   0.25066   0.00000  Uiso   1.00
C788   C     0.83370   0.95733   0.25131   0.00000  Uiso   1.00
C789   C     0.98281   0.80214   0.22731   0.00000  Uiso   1.00
C790   C     0.68509   0.86631   0.26874   0.00000  Uiso   1.00
C791   C     0.69589   0.80078   0.23050   0.00000  Uiso   1.00
C792   C     0.97084   0.86631   0.26870   0.00000  Uiso   1.00
C793   C     0.80516   0.83250   0.33658   0.00000  Uiso   1.00
C794   C     0.86116   0.83745   0.16407   0.00000  Uiso   1.00
C795   C     0.78983   0.83465   0.38532   0.00000  Uiso   1.00
C796   C     0.83315   0.75373   0.25015   0.00000  Uiso   1.00
C797   C     0.87363   0.85334   0.11888   0.00000  Uiso   1.00
C798   C     0.72806   0.85118   0.45057   0.00000  Uiso   1.00
C799   C     0.92413   0.88967   0.05640   0.00000  Uiso   1.00
C800   C     0.74365   0.82962   0.40934   0.00000  Uiso   1.00
C801   C     0.91258   0.87889   0.10164   0.00000  Uiso   1.00
C802   C     0.82030   0.84753   0.40854   0.00000  Uiso   1.00
C803   C     0.84114   0.84979   0.09540   0.00000  Uiso   1.00
C804   C     0.80569   0.85052   0.45549   0.00000  Uiso   1.00
C805   C     0.85101   0.86502   0.05238   0.00000  Uiso   1.00
C806   C     0.75800   0.85355   0.47701   0.00000  Uiso   1.00
C807   C     0.77218   0.86968   0.04813   0.00000  Uiso   1.00
C808   C     0.89659   0.87437   0.03046   0.00000  Uiso   1.00
C809   C     0.83684   0.85336   0.48091   0.00000  Uiso   1.00
C810   C     0.81957   0.86281   0.02765   0.00000  Uiso   1.00
C811   C     0.68153   0.82057   0.06991   0.00000  Uiso   1.00
C812   C     0.96097   0.79708   0.49178   0.00000  Uiso   1.00
C813   C     0.93922   0.89517   0.13004   0.00000  Uiso   1.00
C814   C     0.71257   0.80553   0.39100   0.00000  Uiso   1.00
C815   C     0.70476   0.88985   0.44820   0.00000  Uiso   1.00
C816   C     0.95396   0.92506   0.04107   0.00000  Uiso   1.00
C817   C     0.75472   0.88750   0.09351   0.00000  Uiso   1.00
C818   C     0.88437   0.84395   0.46266   0.00000  Uiso   1.00
C819   C     0.90120   0.81519   0.42406   0.00000  Uiso   1.00
C820   C     0.99910   0.75337   0.15916   0.00000  Uiso   1.00
C821   C     0.69550   0.90003   0.33620   0.00000  Uiso   1.00
C822   C     0.71144   0.72837   0.24105   0.00000  Uiso   1.00
C823   C     0.92048   0.90601   0.33244   0.00000  Uiso   1.00
C824   C     0.74143   0.86178   0.02334   0.00000  Uiso   1.00
C825   C     0.91452   0.85611   0.48736   0.00000  Uiso   1.00
C826   C     0.87163   0.97795   0.22381   0.00000  Uiso   1.00
C827   C     0.79608   0.68897   0.27956   0.00000  Uiso   1.00
C828   C     0.87125   0.68767   0.22320   0.00000  Uiso   1.00
H829   H     0.80927   0.83306   0.10948   0.00000  Uiso   1.00
H830   H     0.69491   0.79254   0.04777   0.00000  Uiso   1.00
H831   H     0.97423   0.83966   0.44114   0.00000  Uiso   1.00
H832   H     0.99722   0.78731   0.48492   0.00000  Uiso   1.00
H833   H     0.94383   0.77373   0.47486   0.00000  Uiso   1.00
H834   H     0.94378   0.79670   0.02845   0.00000  Uiso   1.00
H835   H     0.93740   0.77813   0.19506   0.00000  Uiso   1.00
H836   H     0.98209   0.75112   0.13226   0.00000  Uiso   1.00
H837   H     0.67554   0.72102   0.16467   0.00000  Uiso   1.00
H838   H     0.69696   0.77285   0.14681   0.00000  Uiso   1.00
H839   H     0.69673   0.93012   0.27748   0.00000  Uiso   1.00
H840   H     0.85476   0.85558   0.38994   0.00000  Uiso   1.00
H841   H     0.72909   0.90266   0.34294   0.00000  Uiso   1.00
H842   H     0.67835   0.87058   0.35056   0.00000  Uiso   1.00
H843   H     0.67413   0.92712   0.35366   0.00000  Uiso   1.00
H844   H     0.75696   0.76959   0.19666   0.00000  Uiso   1.00
H845   H     0.73523   0.70213   0.22557   0.00000  Uiso   1.00
H846   H     0.67588   0.71776   0.24421   0.00000  Uiso   1.00
H847   H     0.71379   0.73639   0.27514   0.00000  Uiso   1.00
H848   H     0.95708   0.93033   0.27066   0.00000  Uiso   1.00
H849   H     0.93272   0.93438   0.34720   0.00000  Uiso   1.00
H850   H     0.88306   0.90964   0.33809   0.00000  Uiso   1.00
H851   H     0.90081   0.96083   0.20233   0.00000  Uiso   1.00
H852   H     0.92687   0.87801   0.34990   0.00000  Uiso   1.00
H853   H     0.76779   0.70627   0.30242   0.00000  Uiso   1.00
H854   H     0.90017   0.70388   0.20113   0.00000  Uiso   1.00
H855   H     0.76728   0.96297   0.30159   0.00000  Uiso   1.00
H856   H     0.68201   0.88495   0.06565   0.00000  Uiso   1.00
H857   H     0.69580   0.82135   0.09855   0.00000  Uiso   1.00
H858   H     0.97712   0.81779   0.08340   0.00000  Uiso   1.00
N859   N     0.71426   0.83334   0.25001   0.00000  Uiso   1.00
N860   N     0.91460   0.79220   0.39339   0.00000  Uiso   1.00
N861   N     0.96768   0.77094   0.20042   0.00000  Uiso   1.00
N862   N     0.70254   0.90111   0.28831   0.00000  Uiso   1.00
N863   N     0.72288   0.76461   0.21324   0.00000  Uiso   1.00
N864   N     0.94329   0.90256   0.28473   0.00000  Uiso   1.00
N865   N     0.95241   0.83332   0.24999   0.00000  Uiso   1.00
N866   N     0.69376   0.85877   0.04547   0.00000  Uiso   1.00
N867   N     0.95912   0.83875   0.47511   0.00000  Uiso   1.00
N868   N     0.96081   0.90787   0.15251   0.00000  Uiso   1.00
N869   N     0.68817   0.78591   0.37601   0.00000  Uiso   1.00
N870   N     0.68701   0.92083   0.44451   0.00000  Uiso   1.00
N871   N     0.97712   0.95417   0.03022   0.00000  Uiso   1.00
N872   N     0.74078   0.90170   0.12966   0.00000  Uiso   1.00
O873   O     0.79512   0.89442   0.25001   0.00000  Uiso   1.00
O874   O     0.87154   0.77225   0.25000   0.00000  Uiso   1.00
O875   O     0.87157   0.89441   0.25000   0.00000  Uiso   1.00
O876   O     0.79510   0.77226   0.25000   0.00000  Uiso   1.00
O877   O     0.77328   0.83334   0.31613   0.00000  Uiso   1.00
O878   O     0.89339   0.83333   0.18388   0.00000  Uiso   1.00
O879   O     0.84972   0.83333   0.31612   0.00000  Uiso   1.00
O880   O     0.81695   0.83334   0.18388   0.00000  Uiso   1.00
Zn881  Zn    0.78229   0.83334   0.25000   0.00000  Uiso   1.00
Zn882  Zn    0.88438   0.83333   0.25000   0.00000  Uiso   1.00
C883   C     0.16674   0.24631   0.75054   0.00000  Uiso   1.00
C884   C     0.12937   0.31249   0.77943   0.00000  Uiso   1.00
C885   C     0.16651   0.04280   0.75066   0.00000  Uiso   1.00
C886   C     0.16703   0.29066   0.75131   0.00000  Uiso   1.00
C887   C     0.31614   0.13548   0.72731   0.00000  Uiso   1.00
C888   C     0.01842   0.19964   0.76874   0.00000  Uiso   1.00
C889   C     0.02922   0.13411   0.73050   0.00000  Uiso   1.00
C890   C     0.30417   0.19964   0.76870   0.00000  Uiso   1.00
C891   C     0.13850   0.16583   0.83658   0.00000  Uiso   1.00
C892   C     0.19449   0.17079   0.66407   0.00000  Uiso   1.00
C893   C     0.12316   0.16798   0.88532   0.00000  Uiso   1.00
C894   C     0.16649   0.08707   0.75015   0.00000  Uiso   1.00
C895   C     0.20696   0.18667   0.61888   0.00000  Uiso   1.00
C896   C     0.06139   0.18451   0.95057   0.00000  Uiso   1.00
C897   C     0.25746   0.22301   0.55640   0.00000  Uiso   1.00
C898   C     0.07698   0.16295   0.90934   0.00000  Uiso   1.00
C899   C     0.24591   0.21222   0.60164   0.00000  Uiso   1.00
C900   C     0.15364   0.18087   0.90854   0.00000  Uiso   1.00
C901   C     0.17447   0.18312   0.59540   0.00000  Uiso   1.00
C902   C     0.13902   0.18385   0.95549   0.00000  Uiso   1.00
C903   C     0.18434   0.19835   0.55238   0.00000  Uiso   1.00
C904   C     0.09133   0.18688   0.97701   0.00000  Uiso   1.00
C905   C     0.10551   0.20301   0.54813   0.00000  Uiso   1.00
C906   C     0.22992   0.20770   0.53046   0.00000  Uiso   1.00
C907   C     0.17017   0.18670   0.98091   0.00000  Uiso   1.00
C908   C     0.15290   0.19615   0.52765   0.00000  Uiso   1.00
C909   C     0.01486   0.15390   0.56991   0.00000  Uiso   1.00
C910   C     0.29430   0.13042   0.99178   0.00000  Uiso   1.00
C911   C     0.27255   0.22851   0.63004   0.00000  Uiso   1.00
C912   C     0.04591   0.13886   0.89100   0.00000  Uiso   1.00
C913   C     0.03810   0.22318   0.94820   0.00000  Uiso   1.00
C914   C     0.28729   0.25839   0.54107   0.00000  Uiso   1.00
C915   C     0.08805   0.22084   0.59351   0.00000  Uiso   1.00
C916   C     0.21770   0.17728   0.96266   0.00000  Uiso   1.00
C917   C     0.23454   0.14852   0.92406   0.00000  Uiso   1.00
C918   C     0.33243   0.08670   0.65916   0.00000  Uiso   1.00
C919   C     0.02883   0.23336   0.83620   0.00000  Uiso   1.00
C920   C     0.04478   0.06171   0.74105   0.00000  Uiso   1.00
C921   C     0.25381   0.23934   0.83244   0.00000  Uiso   1.00
C922   C     0.07477   0.19512   0.52334   0.00000  Uiso   1.00
C923   C     0.24786   0.18944   0.98736   0.00000  Uiso   1.00
C924   C     0.20497   0.31128   0.72381   0.00000  Uiso   1.00
C925   C     0.12941   0.02231   0.77956   0.00000  Uiso   1.00
C926   C     0.20459   0.02101   0.72320   0.00000  Uiso   1.00
H927   H     0.14261   0.16639   0.60948   0.00000  Uiso   1.00
H928   H     0.02824   0.12587   0.54777   0.00000  Uiso   1.00
H929   H     0.30756   0.17299   0.94114   0.00000  Uiso   1.00
H930   H     0.33055   0.12064   0.98492   0.00000  Uiso   1.00
H931   H     0.27717   0.10707   0.97486   0.00000  Uiso   1.00
H932   H     0.27711   0.13003   0.52845   0.00000  Uiso   1.00
H933   H     0.27073   0.11146   0.69506   0.00000  Uiso   1.00
H934   H     0.31543   0.08445   0.63226   0.00000  Uiso   1.00
H935   H     0.00888   0.05435   0.66467   0.00000  Uiso   1.00
H936   H     0.03029   0.10619   0.64681   0.00000  Uiso   1.00
H937   H     0.03007   0.26346   0.77748   0.00000  Uiso   1.00
H938   H     0.18809   0.18891   0.88994   0.00000  Uiso   1.00
H939   H     0.06242   0.23599   0.84294   0.00000  Uiso   1.00
H940   H     0.01168   0.20392   0.85056   0.00000  Uiso   1.00
H941   H     0.00746   0.26045   0.85366   0.00000  Uiso   1.00
H942   H     0.09029   0.10292   0.69666   0.00000  Uiso   1.00
H943   H     0.06856   0.03546   0.72557   0.00000  Uiso   1.00
H944   H     0.00921   0.05110   0.74421   0.00000  Uiso   1.00
H945   H     0.04712   0.06973   0.77514   0.00000  Uiso   1.00
H946   H     0.29042   0.26367   0.77066   0.00000  Uiso   1.00
H947   H     0.26606   0.26771   0.84720   0.00000  Uiso   1.00
H948   H     0.21639   0.24297   0.83809   0.00000  Uiso   1.00
H949   H     0.23414   0.29416   0.70233   0.00000  Uiso   1.00
H950   H     0.26021   0.21135   0.84990   0.00000  Uiso   1.00
H951   H     0.10112   0.03961   0.80242   0.00000  Uiso   1.00
H952   H     0.23351   0.03722   0.70113   0.00000  Uiso   1.00
H953   H     0.10061   0.29631   0.80159   0.00000  Uiso   1.00
H954   H     0.01534   0.21828   0.56565   0.00000  Uiso   1.00
H955   H     0.02913   0.15468   0.59855   0.00000  Uiso   1.00
H956   H     0.31045   0.15112   0.58340   0.00000  Uiso   1.00
N957   N     0.04759   0.16668   0.75001   0.00000  Uiso   1.00
N958   N     0.24793   0.12553   0.89339   0.00000  Uiso   1.00
N959   N     0.30102   0.10427   0.70042   0.00000  Uiso   1.00
N960   N     0.03588   0.23444   0.78831   0.00000  Uiso   1.00
N961   N     0.05622   0.09794   0.71324   0.00000  Uiso   1.00
N962   N     0.27663   0.23589   0.78473   0.00000  Uiso   1.00
N963   N     0.28574   0.16666   0.74999   0.00000  Uiso   1.00
N964   N     0.02709   0.19211   0.54547   0.00000  Uiso   1.00
N965   N     0.29245   0.17208   0.97511   0.00000  Uiso   1.00
N966   N     0.29414   0.24120   0.65251   0.00000  Uiso   1.00
N967   N     0.02150   0.11924   0.87601   0.00000  Uiso   1.00
N968   N     0.02035   0.25416   0.94451   0.00000  Uiso   1.00
N969   N     0.31045   0.28750   0.53022   0.00000  Uiso   1.00
N970   N     0.07412   0.23503   0.62966   0.00000  Uiso   1.00
O971   O     0.12846   0.22775   0.75001   0.00000  Uiso   1.00
O972   O     0.20488   0.10558   0.75000   0.00000  Uiso   1.00
O973   O     0.20490   0.22774   0.75000   0.00000  Uiso   1.00
O974   O     0.12843   0.10559   0.75000   0.00000  Uiso   1.00
O975   O     0.10661   0.16667   0.81613   0.00000  Uiso   1.00
O976   O     0.22672   0.16666   0.68388   0.00000  Uiso   1.00
O977   O     0.18305   0.16666   0.81612   0.00000  Uiso   1.00
O978   O     0.15028   0.16667   0.68388   0.00000  Uiso   1.00
Zn979  Zn    0.11562   0.16667   0.75000   0.00000  Uiso   1.00
Zn980  Zn    0.21771   0.16666   0.75000   0.00000  Uiso   1.00
C981   C     0.50007   0.24631   0.75054   0.00000  Uiso   1.00
C982   C     0.46270   0.31249   0.77943   0.00000  Uiso   1.00
C983   C     0.49984   0.04280   0.75066   0.00000  Uiso   1.00
C984   C     0.50037   0.29066   0.75131   0.00000  Uiso   1.00
C985   C     0.64948   0.13548   0.72731   0.00000  Uiso   1.00
C986   C     0.35175   0.19964   0.76874   0.00000  Uiso   1.00
C987   C     0.36256   0.13411   0.73050   0.00000  Uiso   1.00
C988   C     0.63751   0.19964   0.76870   0.00000  Uiso   1.00
C989   C     0.47183   0.16583   0.83658   0.00000  Uiso   1.00
C990   C     0.52783   0.17079   0.66407   0.00000  Uiso   1.00
C991   C     0.45650   0.16798   0.88532   0.00000  Uiso   1.00
C992   C     0.49982   0.08707   0.75015   0.00000  Uiso   1.00
C993   C     0.54029   0.18667   0.61888   0.00000  Uiso   1.00
C994   C     0.39473   0.18451   0.95057   0.00000  Uiso   1.00
C995   C     0.59080   0.22301   0.55640   0.00000  Uiso   1.00
C996   C     0.41032   0.16295   0.90934   0.00000  Uiso   1.00
C997   C     0.57925   0.21222   0.60164   0.00000  Uiso   1.00
C998   C     0.48697   0.18087   0.90854   0.00000  Uiso   1.00
C999   C     0.50781   0.18312   0.59540   0.00000  Uiso   1.00
C1000  C     0.47236   0.18385   0.95549   0.00000  Uiso   1.00
C1001  C     0.51768   0.19835   0.55238   0.00000  Uiso   1.00
C1002  C     0.42466   0.18688   0.97701   0.00000  Uiso   1.00
C1003  C     0.43885   0.20301   0.54813   0.00000  Uiso   1.00
C1004  C     0.56325   0.20770   0.53046   0.00000  Uiso   1.00
C1005  C     0.50351   0.18670   0.98091   0.00000  Uiso   1.00
C1006  C     0.48624   0.19615   0.52765   0.00000  Uiso   1.00
C1007  C     0.34819   0.15390   0.56991   0.00000  Uiso   1.00
C1008  C     0.62764   0.13042   0.99178   0.00000  Uiso   1.00
C1009  C     0.60589   0.22851   0.63004   0.00000  Uiso   1.00
C1010  C     0.37924   0.13886   0.89100   0.00000  Uiso   1.00
C1011  C     0.37143   0.22318   0.94820   0.00000  Uiso   1.00
C1012  C     0.62063   0.25839   0.54107   0.00000  Uiso   1.00
C1013  C     0.42139   0.22084   0.59351   0.00000  Uiso   1.00
C1014  C     0.55103   0.17728   0.96266   0.00000  Uiso   1.00
C1015  C     0.56787   0.14852   0.92406   0.00000  Uiso   1.00
C1016  C     0.66577   0.08670   0.65916   0.00000  Uiso   1.00
C1017  C     0.36216   0.23336   0.83620   0.00000  Uiso   1.00
C1018  C     0.37811   0.06171   0.74105   0.00000  Uiso   1.00
C1019  C     0.58715   0.23934   0.83244   0.00000  Uiso   1.00
C1020  C     0.40810   0.19512   0.52334   0.00000  Uiso   1.00
C1021  C     0.58119   0.18944   0.98736   0.00000  Uiso   1.00
C1022  C     0.53830   0.31128   0.72381   0.00000  Uiso   1.00
C1023  C     0.46274   0.02231   0.77956   0.00000  Uiso   1.00
C1024  C     0.53792   0.02101   0.72320   0.00000  Uiso   1.00
H1025  H     0.47594   0.16639   0.60948   0.00000  Uiso   1.00
H1026  H     0.36157   0.12587   0.54777   0.00000  Uiso   1.00
H1027  H     0.64090   0.17299   0.94114   0.00000  Uiso   1.00
H1028  H     0.66389   0.12064   0.98492   0.00000  Uiso   1.00
H1029  H     0.61050   0.10707   0.97486   0.00000  Uiso   1.00
H1030  H     0.61045   0.13003   0.52845   0.00000  Uiso   1.00
H1031  H     0.60407   0.11146   0.69506   0.00000  Uiso   1.00
H1032  H     0.64876   0.08445   0.63226   0.00000  Uiso   1.00
H1033  H     0.34221   0.05435   0.66467   0.00000  Uiso   1.00
H1034  H     0.36362   0.10619   0.64681   0.00000  Uiso   1.00
H1035  H     0.36340   0.26346   0.77748   0.00000  Uiso   1.00
H1036  H     0.52143   0.18891   0.88994   0.00000  Uiso   1.00
H1037  H     0.39575   0.23599   0.84294   0.00000  Uiso   1.00
H1038  H     0.34501   0.20392   0.85056   0.00000  Uiso   1.00
H1039  H     0.34079   0.26045   0.85366   0.00000  Uiso   1.00
H1040  H     0.42362   0.10292   0.69666   0.00000  Uiso   1.00
H1041  H     0.40190   0.03546   0.72557   0.00000  Uiso   1.00
H1042  H     0.34254   0.05110   0.74421   0.00000  Uiso   1.00
H1043  H     0.38045   0.06973   0.77514   0.00000  Uiso   1.00
H1044  H     0.62375   0.26367   0.77066   0.00000  Uiso   1.00
H1045  H     0.59939   0.26771   0.84720   0.00000  Uiso   1.00
H1046  H     0.54973   0.24297   0.83809   0.00000  Uiso   1.00
H1047  H     0.56747   0.29416   0.70233   0.00000  Uiso   1.00
H1048  H     0.59354   0.21135   0.84990   0.00000  Uiso   1.00
H1049  H     0.43445   0.03961   0.80242   0.00000  Uiso   1.00
H1050  H     0.56684   0.03722   0.70113   0.00000  Uiso   1.00
H1051  H     0.43394   0.29631   0.80159   0.00000  Uiso   1.00
H1052  H     0.34868   0.21828   0.56565   0.00000  Uiso   1.00
H1053  H     0.36247   0.15468   0.59855   0.00000  Uiso   1.00
H1054  H     0.64378   0.15112   0.58340   0.00000  Uiso   1.00
N1055  N     0.38093   0.16668   0.75001   0.00000  Uiso   1.00
N1056  N     0.58126   0.12553   0.89339   0.00000  Uiso   1.00
N1057  N     0.63435   0.10427   0.70042   0.00000  Uiso   1.00
N1058  N     0.36921   0.23444   0.78831   0.00000  Uiso   1.00
N1059  N     0.38955   0.09794   0.71324   0.00000  Uiso   1.00
N1060  N     0.60996   0.23589   0.78473   0.00000  Uiso   1.00
N1061  N     0.61907   0.16666   0.74999   0.00000  Uiso   1.00
N1062  N     0.36042   0.19211   0.54547   0.00000  Uiso   1.00
N1063  N     0.62578   0.17208   0.97511   0.00000  Uiso   1.00
N1064  N     0.62748   0.24120   0.65251   0.00000  Uiso   1.00
N1065  N     0.35484   0.11924   0.87601   0.00000  Uiso   1.00
N1066  N     0.35368   0.25416   0.94451   0.00000  Uiso   1.00
N1067  N     0.64378   0.28750   0.53022   0.00000  Uiso   1.00
N1068  N     0.40745   0.23503   0.62966   0.00000  Uiso   1.00
O1069  O     0.46179   0.22775   0.75001   0.00000  Uiso   1.00
O1070  O     0.53821   0.10558   0.75000   0.00000  Uiso   1.00
O1071  O     0.53823   0.22774   0.75000   0.00000  Uiso   1.00
O1072  O     0.46177   0.10559   0.75000   0.00000  Uiso   1.00
O1073  O     0.43994   0.16667   0.81613   0.00000  Uiso   1.00
O1074  O     0.56006   0.16666   0.68388   0.00000  Uiso   1.00
O1075  O     0.51639   0.16666   0.81612   0.00000  Uiso   1.00
O1076  O     0.48361   0.16667   0.68388   0.00000  Uiso   1.00
Zn1077 Zn    0.44896   0.16667   0.75000   0.00000  Uiso   1.00
Zn1078 Zn    0.55104   0.16666   0.75000   0.00000  Uiso   1.00
C1079  C     0.83340   0.24631   0.75054   0.00000  Uiso   1.00
C1080  C     0.79603   0.31249   0.77943   0.00000  Uiso   1.00
C1081  C     0.83318   0.04280   0.75066   0.00000  Uiso   1.00
C1082  C     0.83370   0.29066   0.75131   0.00000  Uiso   1.00
C1083  C     0.98281   0.13548   0.72731   0.00000  Uiso   1.00
C1084  C     0.68509   0.19964   0.76874   0.00000  Uiso   1.00
C1085  C     0.69589   0.13411   0.73050   0.00000  Uiso   1.00
C1086  C     0.97084   0.19964   0.76870   0.00000  Uiso   1.00
C1087  C     0.80516   0.16583   0.83658   0.00000  Uiso   1.00
C1088  C     0.86116   0.17079   0.66407   0.00000  Uiso   1.00
C1089  C     0.78983   0.16798   0.88532   0.00000  Uiso   1.00
C1090  C     0.83315   0.08707   0.75015   0.00000  Uiso   1.00
C1091  C     0.87363   0.18667   0.61888   0.00000  Uiso   1.00
C1092  C     0.72806   0.18451   0.95057   0.00000  Uiso   1.00
C1093  C     0.92413   0.22301   0.55640   0.00000  Uiso   1.00
C1094  C     0.74365   0.16295   0.90934   0.00000  Uiso   1.00
C1095  C     0.91258   0.21222   0.60164   0.00000  Uiso   1.00
C1096  C     0.82030   0.18087   0.90854   0.00000  Uiso   1.00
C1097  C     0.84114   0.18312   0.59540   0.00000  Uiso   1.00
C1098  C     0.80569   0.18385   0.95549   0.00000  Uiso   1.00
C1099  C     0.85101   0.19835   0.55238   0.00000  Uiso   1.00
C1100  C     0.75800   0.18688   0.97701   0.00000  Uiso   1.00
C1101  C     0.77218   0.20301   0.54813   0.00000  Uiso   1.00
C1102  C     0.89659   0.20770   0.53046   0.00000  Uiso   1.00
C1103  C     0.83684   0.18670   0.98091   0.00000  Uiso   1.00
C1104  C     0.81957   0.19615   0.52765   0.00000  Uiso   1.00
C1105  C     0.68153   0.15390   0.56991   0.00000  Uiso   1.00
C1106  C     0.96097   0.13042   0.99178   0.00000  Uiso   1.00
C1107  C     0.93922   0.22851   0.63004   0.00000  Uiso   1.00
C1108  C     0.71257   0.13886   0.89100   0.00000  Uiso   1.00
C1109  C     0.70476   0.22318   0.94820   0.00000  Uiso   1.00
C1110  C     0.95396   0.25839   0.54107   0.00000  Uiso   1.00
C1111  C     0.75472   0.22084   0.59351   0.00000  Uiso   1.00
C1112  C     0.88437   0.17728   0.96266   0.00000  Uiso   1.00
C1113  C     0.90120   0.14852   0.92406   0.00000  Uiso   1.00
C1114  C     0.99910   0.08670   0.65916   0.00000  Uiso   1.00
C1115  C     0.69550   0.23336   0.83620   0.00000  Uiso   1.00
C1116  C     0.71144   0.06171   0.74105   0.00000  Uiso   1.00
C1117  C     0.92048   0.23934   0.83244   0.00000  Uiso   1.00
C1118  C     0.74143   0.19512   0.52334   0.00000  Uiso   1.00
C1119  C     0.91452   0.18944   0.98736   0.00000  Uiso   1.00
C1120  C     0.87163   0.31128   0.72381   0.00000  Uiso   1.00
C1121  C     0.79608   0.02231   0.77956   0.00000  Uiso   1.00
C1122  C     0.87125   0.02101   0.72320   0.00000  Uiso   1.00
H1123  H     0.80927   0.16639   0.60948   0.00000  Uiso   1.00
H1124  H     0.69491   0.12587   0.54777   0.00000  Uiso   1.00
H1125  H     0.97423   0.17299   0.94114   0.00000  Uiso   1.00
H1126  H     0.99722   0.12064   0.98492   0.00000  Uiso   1.00
H1127  H     0.94383   0.10707   0.97486   0.00000  Uiso   1.00
H1128  H     0.94378   0.13003   0.52845   0.00000  Uiso   1.00
H1129  H     0.93740   0.11146   0.69506   0.00000  Uiso   1.00
H1130  H     0.98209   0.08445   0.63226   0.00000  Uiso   1.00
H1131  H     0.67554   0.05435   0.66467   0.00000  Uiso   1.00
H1132  H     0.69696   0.10619   0.64681   0.00000  Uiso   1.00
H1133  H     0.69673   0.26346   0.77748   0.00000  Uiso   1.00
H1134  H     0.85476   0.18891   0.88994   0.00000  Uiso   1.00
H1135  H     0.72909   0.23599   0.84294   0.00000  Uiso   1.00
H1136  H     0.67835   0.20392   0.85056   0.00000  Uiso   1.00
H1137  H     0.67413   0.26045   0.85366   0.00000  Uiso   1.00
H1138  H     0.75696   0.10292   0.69666   0.00000  Uiso   1.00
H1139  H     0.73523   0.03546   0.72557   0.00000  Uiso   1.00
H1140  H     0.67588   0.05110   0.74421   0.00000  Uiso   1.00
H1141  H     0.71379   0.06973   0.77514   0.00000  Uiso   1.00
H1142  H     0.95708   0.26367   0.77066   0.00000  Uiso   1.00
H1143  H     0.93272   0.26771   0.84720   0.00000  Uiso   1.00
H1144  H     0.88306   0.24297   0.83809   0.00000  Uiso   1.00
H1145  H     0.90081   0.29416   0.70233   0.00000  Uiso   1.00
H1146  H     0.92687   0.21135   0.84990   0.00000  Uiso   1.00
H1147  H     0.76779   0.03961   0.80242   0.00000  Uiso   1.00
H1148  H     0.90017   0.03722   0.70113   0.00000  Uiso   1.00
H1149  H     0.76728   0.29631   0.80159   0.00000  Uiso   1.00
H1150  H     0.68201   0.21828   0.56565   0.00000  Uiso   1.00
H1151  H     0.69580   0.15468   0.59855   0.00000  Uiso   1.00
H1152  H     0.97712   0.15112   0.58340   0.00000  Uiso   1.00
N1153  N     0.71426   0.16668   0.75001   0.00000  Uiso   1.00
N1154  N     0.91460   0.12553   0.89339   0.00000  Uiso   1.00
N1155  N     0.96768   0.10427   0.70042   0.00000  Uiso   1.00
N1156  N     0.70254   0.23444   0.78831   0.00000  Uiso   1.00
N1157  N     0.72288   0.09794   0.71324   0.00000  Uiso   1.00
N1158  N     0.94329   0.23589   0.78473   0.00000  Uiso   1.00
N1159  N     0.95241   0.16666   0.74999   0.00000  Uiso   1.00
N1160  N     0.69376   0.19211   0.54547   0.00000  Uiso   1.00
N1161  N     0.95912   0.17208   0.97511   0.00000  Uiso   1.00
N1162  N     0.96081   0.24120   0.65251   0.00000  Uiso   1.00
N1163  N     0.68817   0.11924   0.87601   0.00000  Uiso   1.00
N1164  N     0.68701   0.25416   0.94451   0.00000  Uiso   1.00
N1165  N     0.97712   0.28750   0.53022   0.00000  Uiso   1.00
N1166  N     0.74078   0.23503   0.62966   0.00000  Uiso   1.00
O1167  O     0.79512   0.22775   0.75001   0.00000  Uiso   1.00
O1168  O     0.87154   0.10558   0.75000   0.00000  Uiso   1.00
O1169  O     0.87157   0.22774   0.75000   0.00000  Uiso   1.00
O1170  O     0.79510   0.10559   0.75000   0.00000  Uiso   1.00
O1171  O     0.77328   0.16667   0.81613   0.00000  Uiso   1.00
O1172  O     0.89339   0.16666   0.68388   0.00000  Uiso   1.00
O1173  O     0.84972   0.16666   0.81612   0.00000  Uiso   1.00
O1174  O     0.81695   0.16667   0.68388   0.00000  Uiso   1.00
Zn1175 Zn    0.78229   0.16667   0.75000   0.00000  Uiso   1.00
Zn1176 Zn    0.88438   0.16666   0.75000   0.00000  Uiso   1.00
C1177  C     0.16674   0.57964   0.75054   0.00000  Uiso   1.00
C1178  C     0.12937   0.64583   0.77943   0.00000  Uiso   1.00
C1179  C     0.16651   0.37613   0.75066   0.00000  Uiso   1.00
C1180  C     0.16703   0.62399   0.75131   0.00000  Uiso   1.00
C1181  C     0.31614   0.46881   0.72731   0.00000  Uiso   1.00
C1182  C     0.01842   0.53297   0.76874   0.00000  Uiso   1.00
C1183  C     0.02922   0.46744   0.73050   0.00000  Uiso   1.00
C1184  C     0.30417   0.53298   0.76870   0.00000  Uiso   1.00
C1185  C     0.13850   0.49916   0.83658   0.00000  Uiso   1.00
C1186  C     0.19449   0.50412   0.66407   0.00000  Uiso   1.00
C1187  C     0.12316   0.50131   0.88532   0.00000  Uiso   1.00
C1188  C     0.16649   0.42040   0.75015   0.00000  Uiso   1.00
C1189  C     0.20696   0.52000   0.61888   0.00000  Uiso   1.00
C1190  C     0.06139   0.51785   0.95057   0.00000  Uiso   1.00
C1191  C     0.25746   0.55634   0.55640   0.00000  Uiso   1.00
C1192  C     0.07698   0.49629   0.90934   0.00000  Uiso   1.00
C1193  C     0.24591   0.54555   0.60164   0.00000  Uiso   1.00
C1194  C     0.15364   0.51420   0.90854   0.00000  Uiso   1.00
C1195  C     0.17447   0.51646   0.59540   0.00000  Uiso   1.00
C1196  C     0.13902   0.51719   0.95549   0.00000  Uiso   1.00
C1197  C     0.18434   0.53169   0.55238   0.00000  Uiso   1.00
C1198  C     0.09133   0.52021   0.97701   0.00000  Uiso   1.00
C1199  C     0.10551   0.53635   0.54813   0.00000  Uiso   1.00
C1200  C     0.22992   0.54104   0.53046   0.00000  Uiso   1.00
C1201  C     0.17017   0.52003   0.98091   0.00000  Uiso   1.00
C1202  C     0.15290   0.52948   0.52765   0.00000  Uiso   1.00
C1203  C     0.01486   0.48724   0.56991   0.00000  Uiso   1.00
C1204  C     0.29430   0.46375   0.99178   0.00000  Uiso   1.00
C1205  C     0.27255   0.56184   0.63004   0.00000  Uiso   1.00
C1206  C     0.04591   0.47219   0.89100   0.00000  Uiso   1.00
C1207  C     0.03810   0.55652   0.94820   0.00000  Uiso   1.00
C1208  C     0.28729   0.59172   0.54107   0.00000  Uiso   1.00
C1209  C     0.08805   0.55417   0.59351   0.00000  Uiso   1.00
C1210  C     0.21770   0.51061   0.96266   0.00000  Uiso   1.00
C1211  C     0.23454   0.48185   0.92406   0.00000  Uiso   1.00
C1212  C     0.33243   0.42004   0.65916   0.00000  Uiso   1.00
C1213  C     0.02883   0.56670   0.83620   0.00000  Uiso   1.00
C1214  C     0.04478   0.39504   0.74105   0.00000  Uiso   1.00
C1215  C     0.25381   0.57268   0.83244   0.00000  Uiso   1.00
C1216  C     0.07477   0.52845   0.52334   0.00000  Uiso   1.00
C1217  C     0.24786   0.52277   0.98736   0.00000  Uiso   1.00
C1218  C     0.20497   0.64462   0.72381   0.00000  Uiso   1.00
C1219  C     0.12941   0.35564   0.77956   0.00000  Uiso   1.00
C1220  C     0.20459   0.35434   0.72320   0.00000  Uiso   1.00
H1221  H     0.14261   0.49973   0.60948   0.00000  Uiso   1.00
H1222  H     0.02824   0.45920   0.54777   0.00000  Uiso   1.00
H1223  H     0.30756   0.50633   0.94114   0.00000  Uiso   1.00
H1224  H     0.33055   0.45397   0.98492   0.00000  Uiso   1.00
H1225  H     0.27717   0.44040   0.97486   0.00000  Uiso   1.00
H1226  H     0.27711   0.46336   0.52845   0.00000  Uiso   1.00
H1227  H     0.27073   0.44479   0.69506   0.00000  Uiso   1.00
H1228  H     0.31543   0.41778   0.63226   0.00000  Uiso   1.00
H1229  H     0.00888   0.38768   0.66467   0.00000  Uiso   1.00
H1230  H     0.03029   0.43952   0.64681   0.00000  Uiso   1.00
H1231  H     0.03007   0.59679   0.77748   0.00000  Uiso   1.00
H1232  H     0.18809   0.52224   0.88994   0.00000  Uiso   1.00
H1233  H     0.06242   0.56932   0.84294   0.00000  Uiso   1.00
H1234  H     0.01168   0.53725   0.85056   0.00000  Uiso   1.00
H1235  H     0.00746   0.59379   0.85366   0.00000  Uiso   1.00
H1236  H     0.09029   0.43626   0.69666   0.00000  Uiso   1.00
H1237  H     0.06856   0.36879   0.72557   0.00000  Uiso   1.00
H1238  H     0.00921   0.38443   0.74421   0.00000  Uiso   1.00
H1239  H     0.04712   0.40306   0.77514   0.00000  Uiso   1.00
H1240  H     0.29042   0.59700   0.77066   0.00000  Uiso   1.00
H1241  H     0.26606   0.60105   0.84720   0.00000  Uiso   1.00
H1242  H     0.21639   0.57631   0.83809   0.00000  Uiso   1.00
H1243  H     0.23414   0.62749   0.70233   0.00000  Uiso   1.00
H1244  H     0.26021   0.54468   0.84990   0.00000  Uiso   1.00
H1245  H     0.10112   0.37294   0.80242   0.00000  Uiso   1.00
H1246  H     0.23351   0.37055   0.70113   0.00000  Uiso   1.00
H1247  H     0.10061   0.62964   0.80159   0.00000  Uiso   1.00
H1248  H     0.01534   0.55161   0.56565   0.00000  Uiso   1.00
H1249  H     0.02913   0.48802   0.59855   0.00000  Uiso   1.00
H1250  H     0.31045   0.48445   0.58340   0.00000  Uiso   1.00
N1251  N     0.04759   0.50001   0.75001   0.00000  Uiso   1.00
N1252  N     0.24793   0.45887   0.89339   0.00000  Uiso   1.00
N1253  N     0.30102   0.43761   0.70042   0.00000  Uiso   1.00
N1254  N     0.03588   0.56778   0.78831   0.00000  Uiso   1.00
N1255  N     0.05622   0.43128   0.71324   0.00000  Uiso   1.00
N1256  N     0.27663   0.56923   0.78473   0.00000  Uiso   1.00
N1257  N     0.28574   0.49999   0.74999   0.00000  Uiso   1.00
N1258  N     0.02709   0.52544   0.54547   0.00000  Uiso   1.00
N1259  N     0.29245   0.50542   0.97511   0.00000  Uiso   1.00
N1260  N     0.29414   0.57454   0.65251   0.00000  Uiso   1.00
N1261  N     0.02150   0.45258   0.87601   0.00000  Uiso   1.00
N1262  N     0.02035   0.58750   0.94451   0.00000  Uiso   1.00
N1263  N     0.31045   0.62083   0.53022   0.00000  Uiso   1.00
N1264  N     0.07412   0.56836   0.62966   0.00000  Uiso   1.00
O1265  O     0.12846   0.56108   0.75001   0.00000  Uiso   1.00
O1266  O     0.20488   0.43892   0.75000   0.00000  Uiso   1.00
O1267  O     0.20490   0.56107   0.75000   0.00000  Uiso   1.00
O1268  O     0.12843   0.43893   0.75000   0.00000  Uiso   1.00
O1269  O     0.10661   0.50001   0.81613   0.00000  Uiso   1.00
O1270  O     0.22672   0.49999   0.68388   0.00000  Uiso   1.00
O1271  O     0.18305   0.50000   0.81612   0.00000  Uiso   1.00
O1272  O     0.15028   0.50000   0.68388   0.00000  Uiso   1.00
Zn1273 Zn    0.11562   0.50001   0.75000   0.00000  Uiso   1.00
Zn1274 Zn    0.21771   0.49999   0.75000   0.00000  Uiso   1.00
C1275  C     0.50007   0.57964   0.75054   0.00000  Uiso   1.00
C1276  C     0.46270   0.64583   0.77943   0.00000  Uiso   1.00
C1277  C     0.49984   0.37613   0.75066   0.00000  Uiso   1.00
C1278  C     0.50037   0.62399   0.75131   0.00000  Uiso   1.00
C1279  C     0.64948   0.46881   0.72731   0.00000  Uiso   1.00
C1280  C     0.35175   0.53297   0.76874   0.00000  Uiso   1.00
C1281  C     0.36256   0.46744   0.73050   0.00000  Uiso   1.00
C1282  C     0.63751   0.53298   0.76870   0.00000  Uiso   1.00
C1283  C     0.47183   0.49916   0.83658   0.00000  Uiso   1.00
C1284  C     0.52783   0.50412   0.66407   0.00000  Uiso   1.00
C1285  C     0.45650   0.50131   0.88532   0.00000  Uiso   1.00
C1286  C     0.49982   0.42040   0.75015   0.00000  Uiso   1.00
C1287  C     0.54029   0.52000   0.61888   0.00000  Uiso   1.00
C1288  C     0.39473   0.51785   0.95057   0.00000  Uiso   1.00
C1289  C     0.59080   0.55634   0.55640   0.00000  Uiso   1.00
C1290  C     0.41032   0.49629   0.90934   0.00000  Uiso   1.00
C1291  C     0.57925   0.54555   0.60164   0.00000  Uiso   1.00
C1292  C     0.48697   0.51420   0.90854   0.00000  Uiso   1.00
C1293  C     0.50781   0.51646   0.59540   0.00000  Uiso   1.00
C1294  C     0.47236   0.51719   0.95549   0.00000  Uiso   1.00
C1295  C     0.51768   0.53169   0.55238   0.00000  Uiso   1.00
C1296  C     0.42466   0.52021   0.97701   0.00000  Uiso   1.00
C1297  C     0.43885   0.53635   0.54813   0.00000  Uiso   1.00
C1298  C     0.56325   0.54104   0.53046   0.00000  Uiso   1.00
C1299  C     0.50351   0.52003   0.98091   0.00000  Uiso   1.00
C1300  C     0.48624   0.52948   0.52765   0.00000  Uiso   1.00
C1301  C     0.34819   0.48724   0.56991   0.00000  Uiso   1.00
C1302  C     0.62764   0.46375   0.99178   0.00000  Uiso   1.00
C1303  C     0.60589   0.56184   0.63004   0.00000  Uiso   1.00
C1304  C     0.37924   0.47219   0.89100   0.00000  Uiso   1.00
C1305  C     0.37143   0.55652   0.94820   0.00000  Uiso   1.00
C1306  C     0.62063   0.59172   0.54107   0.00000  Uiso   1.00
C1307  C     0.42139   0.55417   0.59351   0.00000  Uiso   1.00
C1308  C     0.55103   0.51061   0.96266   0.00000  Uiso   1.00
C1309  C     0.56787   0.48185   0.92406   0.00000  Uiso   1.00
C1310  C     0.66577   0.42004   0.65916   0.00000  Uiso   1.00
C1311  C     0.36216   0.56670   0.83620   0.00000  Uiso   1.00
C1312  C     0.37811   0.39504   0.74105   0.00000  Uiso   1.00
C1313  C     0.58715   0.57268   0.83244   0.00000  Uiso   1.00
C1314  C     0.40810   0.52845   0.52334   0.00000  Uiso   1.00
C1315  C     0.58119   0.52277   0.98736   0.00000  Uiso   1.00
C1316  C     0.53830   0.64462   0.72381   0.00000  Uiso   1.00
C1317  C     0.46274   0.35564   0.77956   0.00000  Uiso   1.00
C1318  C     0.53792   0.35434   0.72320   0.00000  Uiso   1.00
H1319  H     0.47594   0.49973   0.60948   0.00000  Uiso   1.00
H1320  H     0.36157   0.45920   0.54777   0.00000  Uiso   1.00
H1321  H     0.64090   0.50633   0.94114   0.00000  Uiso   1.00
H1322  H     0.66389   0.45397   0.98492   0.00000  Uiso   1.00
H1323  H     0.61050   0.44040   0.97486   0.00000  Uiso   1.00
H1324  H     0.61045   0.46336   0.52845   0.00000  Uiso   1.00
H1325  H     0.60407   0.44479   0.69506   0.00000  Uiso   1.00
H1326  H     0.64876   0.41778   0.63226   0.00000  Uiso   1.00
H1327  H     0.34221   0.38768   0.66467   0.00000  Uiso   1.00
H1328  H     0.36362   0.43952   0.64681   0.00000  Uiso   1.00
H1329  H     0.36340   0.59679   0.77748   0.00000  Uiso   1.00
H1330  H     0.52143   0.52224   0.88994   0.00000  Uiso   1.00
H1331  H     0.39575   0.56932   0.84294   0.00000  Uiso   1.00
H1332  H     0.34501   0.53725   0.85056   0.00000  Uiso   1.00
H1333  H     0.34079   0.59379   0.85366   0.00000  Uiso   1.00
H1334  H     0.42362   0.43626   0.69666   0.00000  Uiso   1.00
H1335  H     0.40190   0.36879   0.72557   0.00000  Uiso   1.00
H1336  H     0.34254   0.38443   0.74421   0.00000  Uiso   1.00
H1337  H     0.38045   0.40306   0.77514   0.00000  Uiso   1.00
H1338  H     0.62375   0.59700   0.77066   0.00000  Uiso   1.00
H1339  H     0.59939   0.60105   0.84720   0.00000  Uiso   1.00
H1340  H     0.54973   0.57631   0.83809   0.00000  Uiso   1.00
H1341  H     0.56747   0.62749   0.70233   0.00000  Uiso   1.00
H1342  H     0.59354   0.54468   0.84990   0.00000  Uiso   1.00
H1343  H     0.43445   0.37294   0.80242   0.00000  Uiso   1.00
H1344  H     0.56684   0.37055   0.70113   0.00000  Uiso   1.00
H1345  H     0.43394   0.62964   0.80159   0.00000  Uiso   1.00
H1346  H     0.34868   0.55161   0.56565   0.00000  Uiso   1.00
H1347  H     0.36247   0.48802   0.59855   0.00000  Uiso   1.00
H1348  H     0.64378   0.48445   0.58340   0.00000  Uiso   1.00
N1349  N     0.38093   0.50001   0.75001   0.00000  Uiso   1.00
N1350  N     0.58126   0.45887   0.89339   0.00000  Uiso   1.00
N1351  N     0.63435   0.43761   0.70042   0.00000  Uiso   1.00
N1352  N     0.36921   0.56778   0.78831   0.00000  Uiso   1.00
N1353  N     0.38955   0.43128   0.71324   0.00000  Uiso   1.00
N1354  N     0.60996   0.56923   0.78473   0.00000  Uiso   1.00
N1355  N     0.61907   0.49999   0.74999   0.00000  Uiso   1.00
N1356  N     0.36042   0.52544   0.54547   0.00000  Uiso   1.00
N1357  N     0.62578   0.50542   0.97511   0.00000  Uiso   1.00
N1358  N     0.62748   0.57454   0.65251   0.00000  Uiso   1.00
N1359  N     0.35484   0.45258   0.87601   0.00000  Uiso   1.00
N1360  N     0.35368   0.58750   0.94451   0.00000  Uiso   1.00
N1361  N     0.64378   0.62083   0.53022   0.00000  Uiso   1.00
N1362  N     0.40745   0.56836   0.62966   0.00000  Uiso   1.00
O1363  O     0.46179   0.56108   0.75001   0.00000  Uiso   1.00
O1364  O     0.53821   0.43892   0.75000   0.00000  Uiso   1.00
O1365  O     0.53823   0.56107   0.75000   0.00000  Uiso   1.00
O1366  O     0.46177   0.43893   0.75000   0.00000  Uiso   1.00
O1367  O     0.43994   0.50001   0.81613   0.00000  Uiso   1.00
O1368  O     0.56006   0.49999   0.68388   0.00000  Uiso   1.00
O1369  O     0.51639   0.50000   0.81612   0.00000  Uiso   1.00
O1370  O     0.48361   0.50000   0.68388   0.00000  Uiso   1.00
Zn1371 Zn    0.44896   0.50001   0.75000   0.00000  Uiso   1.00
Zn1372 Zn    0.55104   0.49999   0.75000   0.00000  Uiso   1.00
C1373  C     0.83340   0.57964   0.75054   0.00000  Uiso   1.00
C1374  C     0.79603   0.64583   0.77943   0.00000  Uiso   1.00
C1375  C     0.83318   0.37613   0.75066   0.00000  Uiso   1.00
C1376  C     0.83370   0.62399   0.75131   0.00000  Uiso   1.00
C1377  C     0.98281   0.46881   0.72731   0.00000  Uiso   1.00
C1378  C     0.68509   0.53297   0.76874   0.00000  Uiso   1.00
C1379  C     0.69589   0.46744   0.73050   0.00000  Uiso   1.00
C1380  C     0.97084   0.53298   0.76870   0.00000  Uiso   1.00
C1381  C     0.80516   0.49916   0.83658   0.00000  Uiso   1.00
C1382  C     0.86116   0.50412   0.66407   0.00000  Uiso   1.00
C1383  C     0.78983   0.50131   0.88532   0.00000  Uiso   1.00
C1384  C     0.83315   0.42040   0.75015   0.00000  Uiso   1.00
C1385  C     0.87363   0.52000   0.61888   0.00000  Uiso   1.00
C1386  C     0.72806   0.51785   0.95057   0.00000  Uiso   1.00
C1387  C     0.92413   0.55634   0.55640   0.00000  Uiso   1.00
C1388  C     0.74365   0.49629   0.90934   0.00000  Uiso   1.00
C1389  C     0.91258   0.54555   0.60164   0.00000  Uiso   1.00
C1390  C     0.82030   0.51420   0.90854   0.00000  Uiso   1.00
C1391  C     0.84114   0.51646   0.59540   0.00000  Uiso   1.00
C1392  C     0.80569   0.51719   0.95549   0.00000  Uiso   1.00
C1393  C     0.85101   0.53169   0.55238   0.00000  Uiso   1.00
C1394  C     0.75800   0.52021   0.97701   0.00000  Uiso   1.00
C1395  C     0.77218   0.53635   0.54813   0.00000  Uiso   1.00
C1396  C     0.89659   0.54104   0.53046   0.00000  Uiso   1.00
C1397  C     0.83684   0.52003   0.98091   0.00000  Uiso   1.00
C1398  C     0.81957   0.52948   0.52765   0.00000  Uiso   1.00
C1399  C     0.68153   0.48724   0.56991   0.00000  Uiso   1.00
C1400  C     0.96097   0.46375   0.99178   0.00000  Uiso   1.00
C1401  C     0.93922   0.56184   0.63004   0.00000  Uiso   1.00
C1402  C     0.71257   0.47219   0.89100   0.00000  Uiso   1.00
C1403  C     0.70476   0.55652   0.94820   0.00000  Uiso   1.00
C1404  C     0.95396   0.59172   0.54107   0.00000  Uiso   1.00
C1405  C     0.75472   0.55417   0.59351   0.00000  Uiso   1.00
C1406  C     0.88437   0.51061   0.96266   0.00000  Uiso   1.00
C1407  C     0.90120   0.48185   0.92406   0.00000  Uiso   1.00
C1408  C     0.99910   0.42004   0.65916   0.00000  Uiso   1.00
C1409  C     0.69550   0.56670   0.83620   0.00000  Uiso   1.00
C1410  C     0.71144   0.39504   0.74105   0.00000  Uiso   1.00
C1411  C     0.92048   0.57268   0.83244   0.00000  Uiso   1.00
C1412  C     0.74143   0.52845   0.52334   0.00000  Uiso   1.00
C1413  C     0.91452   0.52277   0.98736   0.00000  Uiso   1.00
C1414  C     0.87163   0.64462   0.72381   0.00000  Uiso   1.00
C1415  C     0.79608   0.35564   0.77956   0.00000  Uiso   1.00
C1416  C     0.87125   0.35434   0.72320   0.00000  Uiso   1.00
H1417  H     0.80927   0.49973   0.60948   0.00000  Uiso   1.00
H1418  H     0.69491   0.45920   0.54777   0.00000  Uiso   1.00
H1419  H     0.97423   0.50633   0.94114   0.00000  Uiso   1.00
H1420  H     0.99722   0.45397   0.98492   0.00000  Uiso   1.00
H1421  H     0.94383   0.44040   0.97486   0.00000  Uiso   1.00
H1422  H     0.94378   0.46336   0.52845   0.00000  Uiso   1.00
H1423  H     0.93740   0.44479   0.69506   0.00000  Uiso   1.00
H1424  H     0.98209   0.41778   0.63226   0.00000  Uiso   1.00
H1425  H     0.67554   0.38768   0.66467   0.00000  Uiso   1.00
H1426  H     0.69696   0.43952   0.64681   0.00000  Uiso   1.00
H1427  H     0.69673   0.59679   0.77748   0.00000  Uiso   1.00
H1428  H     0.85476   0.52224   0.88994   0.00000  Uiso   1.00
H1429  H     0.72909   0.56932   0.84294   0.00000  Uiso   1.00
H1430  H     0.67835   0.53725   0.85056   0.00000  Uiso   1.00
H1431  H     0.67413   0.59379   0.85366   0.00000  Uiso   1.00
H1432  H     0.75696   0.43626   0.69666   0.00000  Uiso   1.00
H1433  H     0.73523   0.36879   0.72557   0.00000  Uiso   1.00
H1434  H     0.67588   0.38443   0.74421   0.00000  Uiso   1.00
H1435  H     0.71379   0.40306   0.77514   0.00000  Uiso   1.00
H1436  H     0.95708   0.59700   0.77066   0.00000  Uiso   1.00
H1437  H     0.93272   0.60105   0.84720   0.00000  Uiso   1.00
H1438  H     0.88306   0.57631   0.83809   0.00000  Uiso   1.00
H1439  H     0.90081   0.62749   0.70233   0.00000  Uiso   1.00
H1440  H     0.92687   0.54468   0.84990   0.00000  Uiso   1.00
H1441  H     0.76779   0.37294   0.80242   0.00000  Uiso   1.00
H1442  H     0.90017   0.37055   0.70113   0.00000  Uiso   1.00
H1443  H     0.76728   0.62964   0.80159   0.00000  Uiso   1.00
H1444  H     0.68201   0.55161   0.56565   0.00000  Uiso   1.00
H1445  H     0.69580   0.48802   0.59855   0.00000  Uiso   1.00
H1446  H     0.97712   0.48445   0.58340   0.00000  Uiso   1.00
N1447  N     0.71426   0.50001   0.75001   0.00000  Uiso   1.00
N1448  N     0.91460   0.45887   0.89339   0.00000  Uiso   1.00
N1449  N     0.96768   0.43761   0.70042   0.00000  Uiso   1.00
N1450  N     0.70254   0.56778   0.78831   0.00000  Uiso   1.00
N1451  N     0.72288   0.43128   0.71324   0.00000  Uiso   1.00
N1452  N     0.94329   0.56923   0.78473   0.00000  Uiso   1.00
N1453  N     0.95241   0.49999   0.74999   0.00000  Uiso   1.00
N1454  N     0.69376   0.52544   0.54547   0.00000  Uiso   1.00
N1455  N     0.95912   0.50542   0.97511   0.00000  Uiso   1.00
N1456  N     0.96081   0.57454   0.65251   0.00000  Uiso   1.00
N1457  N     0.68817   0.45258   0.87601   0.00000  Uiso   1.00
N1458  N     0.68701   0.58750   0.94451   0.00000  Uiso   1.00
N1459  N     0.97712   0.62083   0.53022   0.00000  Uiso   1.00
N1460  N     0.74078   0.56836   0.62966   0.00000  Uiso   1.00
O1461  O     0.79512   0.56108   0.75001   0.00000  Uiso   1.00
O1462  O     0.87154   0.43892   0.75000   0.00000  Uiso   1.00
O1463  O     0.87157   0.56107   0.75000   0.00000  Uiso   1.00
O1464  O     0.79510   0.43893   0.75000   0.00000  Uiso   1.00
O1465  O     0.77328   0.50001   0.81613   0.00000  Uiso   1.00
O1466  O     0.89339   0.49999   0.68388   0.00000  Uiso   1.00
O1467  O     0.84972   0.50000   0.81612   0.00000  Uiso   1.00
O1468  O     0.81695   0.50000   0.68388   0.00000  Uiso   1.00
Zn1469 Zn    0.78229   0.50001   0.75000   0.00000  Uiso   1.00
Zn1470 Zn    0.88438   0.49999   0.75000   0.00000  Uiso   1.00
C1471  C     0.16674   0.91297   0.75054   0.00000  Uiso   1.00
C1472  C     0.12937   0.97916   0.77943   0.00000  Uiso   1.00
C1473  C     0.16651   0.70947   0.75066   0.00000  Uiso   1.00
C1474  C     0.16703   0.95733   0.75131   0.00000  Uiso   1.00
C1475  C     0.31614   0.80214   0.72731   0.00000  Uiso   1.00
C1476  C     0.01842   0.86631   0.76874   0.00000  Uiso   1.00
C1477  C     0.02922   0.80078   0.73050   0.00000  Uiso   1.00
C1478  C     0.30417   0.86631   0.76870   0.00000  Uiso   1.00
C1479  C     0.13850   0.83250   0.83658   0.00000  Uiso   1.00
C1480  C     0.19449   0.83745   0.66407   0.00000  Uiso   1.00
C1481  C     0.12316   0.83465   0.88532   0.00000  Uiso   1.00
C1482  C     0.16649   0.75373   0.75015   0.00000  Uiso   1.00
C1483  C     0.20696   0.85334   0.61888   0.00000  Uiso   1.00
C1484  C     0.06139   0.85118   0.95057   0.00000  Uiso   1.00
C1485  C     0.25746   0.88967   0.55640   0.00000  Uiso   1.00
C1486  C     0.07698   0.82962   0.90934   0.00000  Uiso   1.00
C1487  C     0.24591   0.87889   0.60164   0.00000  Uiso   1.00
C1488  C     0.15364   0.84753   0.90854   0.00000  Uiso   1.00
C1489  C     0.17447   0.84979   0.59540   0.00000  Uiso   1.00
C1490  C     0.13902   0.85052   0.95549   0.00000  Uiso   1.00
C1491  C     0.18434   0.86502   0.55238   0.00000  Uiso   1.00
C1492  C     0.09133   0.85355   0.97701   0.00000  Uiso   1.00
C1493  C     0.10551   0.86968   0.54813   0.00000  Uiso   1.00
C1494  C     0.22992   0.87437   0.53046   0.00000  Uiso   1.00
C1495  C     0.17017   0.85336   0.98091   0.00000  Uiso   1.00
C1496  C     0.15290   0.86281   0.52765   0.00000  Uiso   1.00
C1497  C     0.01486   0.82057   0.56991   0.00000  Uiso   1.00
C1498  C     0.29430   0.79708   0.99178   0.00000  Uiso   1.00
C1499  C     0.27255   0.89517   0.63004   0.00000  Uiso   1.00
C1500  C     0.04591   0.80553   0.89100   0.00000  Uiso   1.00
C1501  C     0.03810   0.88985   0.94820   0.00000  Uiso   1.00
C1502  C     0.28729   0.92506   0.54107   0.00000  Uiso   1.00
C1503  C     0.08805   0.88750   0.59351   0.00000  Uiso   1.00
C1504  C     0.21770   0.84395   0.96266   0.00000  Uiso   1.00
C1505  C     0.23454   0.81519   0.92406   0.00000  Uiso   1.00
C1506  C     0.33243   0.75337   0.65916   0.00000  Uiso   1.00
C1507  C     0.02883   0.90003   0.83620   0.00000  Uiso   1.00
C1508  C     0.04478   0.72837   0.74105   0.00000  Uiso   1.00
C1509  C     0.25381   0.90601   0.83244   0.00000  Uiso   1.00
C1510  C     0.07477   0.86178   0.52334   0.00000  Uiso   1.00
C1511  C     0.24786   0.85611   0.98736   0.00000  Uiso   1.00
C1512  C     0.20497   0.97795   0.72381   0.00000  Uiso   1.00
C1513  C     0.12941   0.68897   0.77956   0.00000  Uiso   1.00
C1514  C     0.20459   0.68767   0.72320   0.00000  Uiso   1.00
H1515  H     0.14261   0.83306   0.60948   0.00000  Uiso   1.00
H1516  H     0.02824   0.79254   0.54777   0.00000  Uiso   1.00
H1517  H     0.30756   0.83966   0.94114   0.00000  Uiso   1.00
H1518  H     0.33055   0.78731   0.98492   0.00000  Uiso   1.00
H1519  H     0.27717   0.77373   0.97486   0.00000  Uiso   1.00
H1520  H     0.27711   0.79670   0.52845   0.00000  Uiso   1.00
H1521  H     0.27073   0.77813   0.69506   0.00000  Uiso   1.00
H1522  H     0.31543   0.75112   0.63226   0.00000  Uiso   1.00
H1523  H     0.00888   0.72102   0.66467   0.00000  Uiso   1.00
H1524  H     0.03029   0.77285   0.64681   0.00000  Uiso   1.00
H1525  H     0.03007   0.93012   0.77748   0.00000  Uiso   1.00
H1526  H     0.18809   0.85558   0.88994   0.00000  Uiso   1.00
H1527  H     0.06242   0.90266   0.84294   0.00000  Uiso   1.00
H1528  H     0.01168   0.87058   0.85056   0.00000  Uiso   1.00
H1529  H     0.00746   0.92712   0.85366   0.00000  Uiso   1.00
H1530  H     0.09029   0.76959   0.69666   0.00000  Uiso   1.00
H1531  H     0.06856   0.70213   0.72557   0.00000  Uiso   1.00
H1532  H     0.00921   0.71776   0.74421   0.00000  Uiso   1.00
H1533  H     0.04712   0.73639   0.77514   0.00000  Uiso   1.00
H1534  H     0.29042   0.93033   0.77066   0.00000  Uiso   1.00
H1535  H     0.26606   0.93438   0.84720   0.00000  Uiso   1.00
H1536  H     0.21639   0.90964   0.83809   0.00000  Uiso   1.00
H1537  H     0.23414   0.96083   0.70233   0.00000  Uiso   1.00
H1538  H     0.26021   0.87801   0.84990   0.00000  Uiso   1.00
H1539  H     0.10112   0.70627   0.80242   0.00000  Uiso   1.00
H1540  H     0.23351   0.70388   0.70113   0.00000  Uiso   1.00
H1541  H     0.10061   0.96297   0.80159   0.00000  Uiso   1.00
H1542  H     0.01534   0.88495   0.56565   0.00000  Uiso   1.00
H1543  H     0.02913   0.82135   0.59855   0.00000  Uiso   1.00
H1544  H     0.31045   0.81779   0.58340   0.00000  Uiso   1.00
N1545  N     0.04759   0.83334   0.75001   0.00000  Uiso   1.00
N1546  N     0.24793   0.79220   0.89339   0.00000  Uiso   1.00
N1547  N     0.30102   0.77094   0.70042   0.00000  Uiso   1.00
N1548  N     0.03588   0.90111   0.78831   0.00000  Uiso   1.00
N1549  N     0.05622   0.76461   0.71324   0.00000  Uiso   1.00
N1550  N     0.27663   0.90256   0.78473   0.00000  Uiso   1.00
N1551  N     0.28574   0.83332   0.74999   0.00000  Uiso   1.00
N1552  N     0.02709   0.85877   0.54547   0.00000  Uiso   1.00
N1553  N     0.29245   0.83875   0.97511   0.00000  Uiso   1.00
N1554  N     0.29414   0.90787   0.65251   0.00000  Uiso   1.00
N1555  N     0.02150   0.78591   0.87601   0.00000  Uiso   1.00
N1556  N     0.02035   0.92083   0.94451   0.00000  Uiso   1.00
N1557  N     0.31045   0.95417   0.53022   0.00000  Uiso   1.00
N1558  N     0.07412   0.90170   0.62966   0.00000  Uiso   1.00
O1559  O     0.12846   0.89442   0.75001   0.00000  Uiso   1.00
O1560  O     0.20488   0.77225   0.75000   0.00000  Uiso   1.00
O1561  O     0.20490   0.89441   0.75000   0.00000  Uiso   1.00
O1562  O     0.12843   0.77226   0.75000   0.00000  Uiso   1.00
O1563  O     0.10661   0.83334   0.81613   0.00000  Uiso   1.00
O1564  O     0.22672   0.83333   0.68388   0.00000  Uiso   1.00
O1565  O     0.18305   0.83333   0.81612   0.00000  Uiso   1.00
O1566  O     0.15028   0.83334   0.68388   0.00000  Uiso   1.00
Zn1567 Zn    0.11562   0.83334   0.75000   0.00000  Uiso   1.00
Zn1568 Zn    0.21771   0.83333   0.75000   0.00000  Uiso   1.00
C1569  C     0.50007   0.91297   0.75054   0.00000  Uiso   1.00
C1570  C     0.46270   0.97916   0.77943   0.00000  Uiso   1.00
C1571  C     0.49984   0.70947   0.75066   0.00000  Uiso   1.00
C1572  C     0.50037   0.95733   0.75131   0.00000  Uiso   1.00
C1573  C     0.64948   0.80214   0.72731   0.00000  Uiso   1.00
C1574  C     0.35175   0.86631   0.76874   0.00000  Uiso   1.00
C1575  C     0.36256   0.80078   0.73050   0.00000  Uiso   1.00
C1576  C     0.63751   0.86631   0.76870   0.00000  Uiso   1.00
C1577  C     0.47183   0.83250   0.83658   0.00000  Uiso   1.00
C1578  C     0.52783   0.83745   0.66407   0.00000  Uiso   1.00
C1579  C     0.45650   0.83465   0.88532   0.00000  Uiso   1.00
C1580  C     0.49982   0.75373   0.75015   0.00000  Uiso   1.00
C1581  C     0.54029   0.85334   0.61888   0.00000  Uiso   1.00
C1582  C     0.39473   0.85118   0.95057   0.00000  Uiso   1.00
C1583  C     0.59080   0.88967   0.55640   0.00000  Uiso   1.00
C1584  C     0.41032   0.82962   0.90934   0.00000  Uiso   1.00
C1585  C     0.57925   0.87889   0.60164   0.00000  Uiso   1.00
C1586  C     0.48697   0.84753   0.90854   0.00000  Uiso   1.00
C1587  C     0.50781   0.84979   0.59540   0.00000  Uiso   1.00
C1588  C     0.47236   0.85052   0.95549   0.00000  Uiso   1.00
C1589  C     0.51768   0.86502   0.55238   0.00000  Uiso   1.00
C1590  C     0.42466   0.85355   0.97701   0.00000  Uiso   1.00
C1591  C     0.43885   0.86968   0.54813   0.00000  Uiso   1.00
C1592  C     0.56325   0.87437   0.53046   0.00000  Uiso   1.00
C1593  C     0.50351   0.85336   0.98091   0.00000  Uiso   1.00
C1594  C     0.48624   0.86281   0.52765   0.00000  Uiso   1.00
C1595  C     0.34819   0.82057   0.56991   0.00000  Uiso   1.00
C1596  C     0.62764   0.79708   0.99178   0.00000  Uiso   1.00
C1597  C     0.60589   0.89517   0.63004   0.00000  Uiso   1.00
C1598  C     0.37924   0.80553   0.89100   0.00000  Uiso   1.00
C1599  C     0.37143   0.88985   0.94820   0.00000  Uiso   1.00
C1600  C     0.62063   0.92506   0.54107   0.00000  Uiso   1.00
C1601  C     0.42139   0.88750   0.59351   0.00000  Uiso   1.00
C1602  C     0.55103   0.84395   0.96266   0.00000  Uiso   1.00
C1603  C     0.56787   0.81519   0.92406   0.00000  Uiso   1.00
C1604  C     0.66577   0.75337   0.65916   0.00000  Uiso   1.00
C1605  C     0.36216   0.90003   0.83620   0.00000  Uiso   1.00
C1606  C     0.37811   0.72837   0.74105   0.00000  Uiso   1.00
C1607  C     0.58715   0.90601   0.83244   0.00000  Uiso   1.00
C1608  C     0.40810   0.86178   0.52334   0.00000  Uiso   1.00
C1609  C     0.58119   0.85611   0.98736   0.00000  Uiso   1.00
C1610  C     0.53830   0.97795   0.72381   0.00000  Uiso   1.00
C1611  C     0.46274   0.68897   0.77956   0.00000  Uiso   1.00
C1612  C     0.53792   0.68767   0.72320   0.00000  Uiso   1.00
H1613  H     0.47594   0.83306   0.60948   0.00000  Uiso   1.00
H1614  H     0.36157   0.79254   0.54777   0.00000  Uiso   1.00
H1615  H     0.64090   0.83966   0.94114   0.00000  Uiso   1.00
H1616  H     0.66389   0.78731   0.98492   0.00000  Uiso   1.00
H1617  H     0.61050   0.77373   0.97486   0.00000  Uiso   1.00
H1618  H     0.61045   0.79670   0.52845   0.00000  Uiso   1.00
H1619  H     0.60407   0.77813   0.69506   0.00000  Uiso   1.00
H1620  H     0.64876   0.75112   0.63226   0.00000  Uiso   1.00
H1621  H     0.34221   0.72102   0.66467   0.00000  Uiso   1.00
H1622  H     0.36362   0.77285   0.64681   0.00000  Uiso   1.00
H1623  H     0.36340   0.93012   0.77748   0.00000  Uiso   1.00
H1624  H     0.52143   0.85558   0.88994   0.00000  Uiso   1.00
H1625  H     0.39575   0.90266   0.84294   0.00000  Uiso   1.00
H1626  H     0.34501   0.87058   0.85056   0.00000  Uiso   1.00
H1627  H     0.34079   0.92712   0.85366   0.00000  Uiso   1.00
H1628  H     0.42362   0.76959   0.69666   0.00000  Uiso   1.00
H1629  H     0.40190   0.70213   0.72557   0.00000  Uiso   1.00
H1630  H     0.34254   0.71776   0.74421   0.00000  Uiso   1.00
H1631  H     0.38045   0.73639   0.77514   0.00000  Uiso   1.00
H1632  H     0.62375   0.93033   0.77066   0.00000  Uiso   1.00
H1633  H     0.59939   0.93438   0.84720   0.00000  Uiso   1.00
H1634  H     0.54973   0.90964   0.83809   0.00000  Uiso   1.00
H1635  H     0.56747   0.96083   0.70233   0.00000  Uiso   1.00
H1636  H     0.59354   0.87801   0.84990   0.00000  Uiso   1.00
H1637  H     0.43445   0.70627   0.80242   0.00000  Uiso   1.00
H1638  H     0.56684   0.70388   0.70113   0.00000  Uiso   1.00
H1639  H     0.43394   0.96297   0.80159   0.00000  Uiso   1.00
H1640  H     0.34868   0.88495   0.56565   0.00000  Uiso   1.00
H1641  H     0.36247   0.82135   0.59855   0.00000  Uiso   1.00
H1642  H     0.64378   0.81779   0.58340   0.00000  Uiso   1.00
N1643  N     0.38093   0.83334   0.75001   0.00000  Uiso   1.00
N1644  N     0.58126   0.79220   0.89339   0.00000  Uiso   1.00
N1645  N     0.63435   0.77094   0.70042   0.00000  Uiso   1.00
N1646  N     0.36921   0.90111   0.78831   0.00000  Uiso   1.00
N1647  N     0.38955   0.76461   0.71324   0.00000  Uiso   1.00
N1648  N     0.60996   0.90256   0.78473   0.00000  Uiso   1.00
N1649  N     0.61907   0.83332   0.74999   0.00000  Uiso   1.00
N1650  N     0.36042   0.85877   0.54547   0.00000  Uiso   1.00
N1651  N     0.62578   0.83875   0.97511   0.00000  Uiso   1.00
N1652  N     0.62748   0.90787   0.65251   0.00000  Uiso   1.00
N1653  N     0.35484   0.78591   0.87601   0.00000  Uiso   1.00
N1654  N     0.35368   0.92083   0.94451   0.00000  Uiso   1.00
N1655  N     0.64378   0.95417   0.53022   0.00000  Uiso   1.00
N1656  N     0.40745   0.90170   0.62966   0.00000  Uiso   1.00
O1657  O     0.46179   0.89442   0.75001   0.00000  Uiso   1.00
O1658  O     0.53821   0.77225   0.75000   0.00000  Uiso   1.00
O1659  O     0.53823   0.89441   0.75000   0.00000  Uiso   1.00
O1660  O     0.46177   0.77226   0.75000   0.00000  Uiso   1.00
O1661  O     0.43994   0.83334   0.81613   0.00000  Uiso   1.00
O1662  O     0.56006   0.83333   0.68388   0.00000  Uiso   1.00
O1663  O     0.51639   0.83333   0.81612   0.00000  Uiso   1.00
O1664  O     0.48361   0.83334   0.68388   0.00000  Uiso   1.00
Zn1665 Zn    0.44896   0.83334   0.75000   0.00000  Uiso   1.00
Zn1666 Zn    0.55104   0.83333   0.75000   0.00000  Uiso   1.00
C1667  C     0.83340   0.91297   0.75054   0.00000  Uiso   1.00
C1668  C     0.79603   0.97916   0.77943   0.00000  Uiso   1.00
C1669  C     0.83318   0.70947   0.75066   0.00000  Uiso   1.00
C1670  C     0.83370   0.95733   0.75131   0.00000  Uiso   1.00
C1671  C     0.98281   0.80214   0.72731   0.00000  Uiso   1.00
C1672  C     0.68509   0.86631   0.76874   0.00000  Uiso   1.00
C1673  C     0.69589   0.80078   0.73050   0.00000  Uiso   1.00
C1674  C     0.97084   0.86631   0.76870   0.00000  Uiso   1.00
C1675  C     0.80516   0.83250   0.83658   0.00000  Uiso   1.00
C1676  C     0.86116   0.83745   0.66407   0.00000  Uiso   1.00
C1677  C     0.78983   0.83465   0.88532   0.00000  Uiso   1.00
C1678  C     0.83315   0.75373   0.75015   0.00000  Uiso   1.00
C1679  C     0.87363   0.85334   0.61888   0.00000  Uiso   1.00
C1680  C     0.72806   0.85118   0.95057   0.00000  Uiso   1.00
C1681  C     0.92413   0.88967   0.55640   0.00000  Uiso   1.00
C1682  C     0.74365   0.82962   0.90934   0.00000  Uiso   1.00
C1683  C     0.91258   0.87889   0.60164   0.00000  Uiso   1.00
C1684  C     0.82030   0.84753   0.90854   0.00000  Uiso   1.00
C1685  C     0.84114   0.84979   0.59540   0.00000  Uiso   1.00
C1686  C     0.80569   0.85052   0.95549   0.00000  Uiso   1.00
C1687  C     0.85101   0.86502   0.55238   0.00000  Uiso   1.00
C1688  C     0.75800   0.85355   0.97701   0.00000  Uiso   1.00
C1689  C     0.77218   0.86968   0.54813   0.00000  Uiso   1.00
C1690  C     0.89659   0.87437   0.53046   0.00000  Uiso   1.00
C1691  C     0.83684   0.85336   0.98091   0.00000  Uiso   1.00
C1692  C     0.81957   0.86281   0.52765   0.00000  Uiso   1.00
C1693  C     0.68153   0.82057   0.56991   0.00000  Uiso   1.00
C1694  C     0.96097   0.79708   0.99178   0.00000  Uiso   1.00
C1695  C     0.93922   0.89517   0.63004   0.00000  Uiso   1.00
C1696  C     0.71257   0.80553   0.89100   0.00000  Uiso   1.00
C1697  C     0.70476   0.88985   0.94820   0.00000  Uiso   1.00
C1698  C     0.95396   0.92506   0.54107   0.00000  Uiso   1.00
C1699  C     0.75472   0.88750   0.59351   0.00000  Uiso   1.00
C1700  C     0.88437   0.84395   0.96266   0.00000  Uiso   1.00
C1701  C     0.90120   0.81519   0.92406   0.00000  Uiso   1.00
C1702  C     0.99910   0.75337   0.65916   0.00000  Uiso   1.00
C1703  C     0.69550   0.90003   0.83620   0.00000  Uiso   1.00
C1704  C     0.71144   0.72837   0.74105   0.00000  Uiso   1.00
C1705  C     0.92048   0.90601   0.83244   0.00000  Uiso   1.00
C1706  C     0.74143   0.86178   0.52334   0.00000  Uiso   1.00
C1707  C     0.91452   0.85611   0.98736   0.00000  Uiso   1.00
C1708  C     0.87163   0.97795   0.72381   0.00000  Uiso   1.00
C1709  C     0.79608   0.68897   0.77956   0.00000  Uiso   1.00
C1710  C     0.87125   0.68767   0.72320   0.00000  Uiso   1.00
H1711  H     0.80927   0.83306   0.60948   0.00000  Uiso   1.00
H1712  H     0.69491   0.79254   0.54777   0.00000  Uiso   1.00
H1713  H     0.97423   0.83966   0.94114   0.00000  Uiso   1.00
H1714  H     0.99722   0.78731   0.98492   0.00000  Uiso   1.00
H1715  H     0.94383   0.77373   0.97486   0.00000  Uiso   1.00
H1716  H     0.94378   0.79670   0.52845   0.00000  Uiso   1.00
H1717  H     0.93740   0.77813   0.69506   0.00000  Uiso   1.00
H1718  H     0.98209   0.75112   0.63226   0.00000  Uiso   1.00
H1719  H     0.67554   0.72102   0.66467   0.00000  Uiso   1.00
H1720  H     0.69696   0.77285   0.64681   0.00000  Uiso   1.00
H1721  H     0.69673   0.93012   0.77748   0.00000  Uiso   1.00
H1722  H     0.85476   0.85558   0.88994   0.00000  Uiso   1.00
H1723  H     0.72909   0.90266   0.84294   0.00000  Uiso   1.00
H1724  H     0.67835   0.87058   0.85056   0.00000  Uiso   1.00
H1725  H     0.67413   0.92712   0.85366   0.00000  Uiso   1.00
H1726  H     0.75696   0.76959   0.69666   0.00000  Uiso   1.00
H1727  H     0.73523   0.70213   0.72557   0.00000  Uiso   1.00
H1728  H     0.67588   0.71776   0.74421   0.00000  Uiso   1.00
H1729  H     0.71379   0.73639   0.77514   0.00000  Uiso   1.00
H1730  H     0.95708   0.93033   0.77066   0.00000  Uiso   1.00
H1731  H     0.93272   0.93438   0.84720   0.00000  Uiso   1.00
H1732  H     0.88306   0.90964   0.83809   0.00000  Uiso   1.00
H1733  H     0.90081   0.96083   0.70233   0.00000  Uiso   1.00
H1734  H     0.92687   0.87801   0.84990   0.00000  Uiso   1.00
H1735  H     0.76779   0.70627   0.80242   0.00000  Uiso   1.00
H1736  H     0.90017   0.70388   0.70113   0.00000  Uiso   1.00
H1737  H     0.76728   0.96297   0.80159   0.00000  Uiso   1.00
H1738  H     0.68201   0.88495   0.56565   0.00000  Uiso   1.00
H1739  H     0.69580   0.82135   0.59855   0.00000  Uiso   1.00
H1740  H     0.97712   0.81779   0.58340   0.00000  Uiso   1.00
N1741  N     0.71426   0.83334   0.75001   0.00000  Uiso   1.00
N1742  N     0.91460   0.79220   0.89339   0.00000  Uiso   1.00
N1743  N     0.96768   0.77094   0.70042   0.00000  Uiso   1.00
N1744  N     0.70254   0.90111   0.78831   0.00000  Uiso   1.00
N1745  N     0.72288   0.76461   0.71324   0.00000  Uiso   1.00
N1746  N     0.94329   0.90256   0.78473   0.00000  Uiso   1.00
N1747  N     0.95241   0.83332   0.74999   0.00000  Uiso   1.00
N1748  N     0.69376   0.85877   0.54547   0.00000  Uiso   1.00
N1749  N     0.95912   0.83875   0.97511   0.00000  Uiso   1.00
N1750  N     0.96081   0.90787   0.65251   0.00000  Uiso   1.00
N1751  N     0.68817   0.78591   0.87601   0.00000  Uiso   1.00
N1752  N     0.68701   0.92083   0.94451   0.00000  Uiso   1.00
N1753  N     0.97712   0.95417   0.53022   0.00000  Uiso   1.00
N1754  N     0.74078   0.90170   0.62966   0.00000  Uiso   1.00
O1755  O     0.79512   0.89442   0.75001   0.00000  Uiso   1.00
O1756  O     0.87154   0.77225   0.75000   0.00000  Uiso   1.00
O1757  O     0.87157   0.89441   0.75000   0.00000  Uiso   1.00
O1758  O     0.79510   0.77226   0.75000   0.00000  Uiso   1.00
O1759  O     0.77328   0.83334   0.81613   0.00000  Uiso   1.00
O1760  O     0.89339   0.83333   0.68388   0.00000  Uiso   1.00
O1761  O     0.84972   0.83333   0.81612   0.00000  Uiso   1.00
O1762  O     0.81695   0.83334   0.68388   0.00000  Uiso   1.00
Zn1763 Zn    0.78229   0.83334   0.75000   0.00000  Uiso   1.00
Zn1764 Zn    0.88438   0.83333   0.75000   0.00000  Uiso   1.00
loop_
_geom_bond_atom_site_label_1
_geom_bond_atom_site_label_2
_geom_bond_distance
_geom_bond_site_symmetry_2
_ccdc_geom_bond_type
C1     O91     1.307   .     A
C1     O89     1.307   .     A
C1     C4      1.411   .     S
C2     C4      1.395   .     A
C2     H71     1.081   .     S
C2     C337    1.373   .     S
C3     C43     1.393   .     A
C3     C12     1.410   .     S
C3     C44     1.395   .     A
C4     C42     1.393   .     A
C5     N81     1.387   .     A
C5     N77     1.437   .     S
C5     C105    1.451   .     S
C6     N78     1.420   .     S
C6     N75     1.378   .     A
C6     C204    1.452   1_455 S
C7     N79     1.416   .     S
C7     N75     1.380   .     A
C7     C201    1.451   1_455 S
C8     N81     1.378   .     A
C8     N80     1.420   .     S
C8     C104    1.452   .     S
C9     O95     1.319   .     A
C9     C11     1.453   .     S
C9     O93     1.315   .     A
C10    O96     1.313   .     A
C10    C13     1.457   .     S
C10    O94     1.319   .     A
C11    C18     1.390   .     A
C11    C16     1.395   .     A
C12    O90     1.304   .     A
C12    O92     1.310   .     A
C13    C19     1.400   .     A
C13    C17     1.412   .     A
C14    C31     1.444   .     S
C14    C16     1.390   .     A
C14    C22     1.403   .     A
C15    C32     1.444   .     S
C15    C24     1.403   .     A
C15    C17     1.406   .     A
C16    C30     1.446   .     S
C17    C29     1.451   .     S
C18    H56     1.072   .     S
C18    C20     1.400   .     A
C19    C21     1.392   .     A
C19    H45     1.083   .     S
C20    C22     1.412   .     A
C20    C25     1.409   .     A
C21    C26     1.400   .     A
C21    C24     1.389   .     A
C22    C922    1.399   .     S
C23    C40     1.399   .     A
C23    C26     1.412   .     A
C23    C33     1.453   .     S
C24    C923    1.400   1_554 S
C25    C34     1.422   .     A
C25    C908    1.419   .     S
C26    C907    1.419   1_554 S
C27    H46     1.111   .     S
C27    N82     1.446   .     S
C27    H73     1.106   .     S
C27    H270    1.106   1_455 S
C28    H49     1.110   .     S
C28    N83     1.451   .     S
C28    H48     1.108   .     S
C28    H932    1.109   .     S
C29    N84     1.157   .     T
C30    N85     1.158   .     T
C31    N86     1.156   .     T
C32    N87     1.157   .     T
C33    N88     1.158   .     T
C34    C35     1.454   .     S
C34    C41     1.409   .     A
C35    N76     1.158   .     T
C36    N77     1.454   .     S
C36    H52     1.112   .     S
C36    H151    1.109   .     S
C36    H152    1.107   .     S
C37    H58     1.111   .     S
C37    H59     1.110   .     S
C37    N78     1.449   .     S
C37    H57     1.108   .     S
C38    N79     1.447   .     S
C38    H61     1.110   .     S
C38    H63     1.109   .     S
C38    H62     1.110   .     S
C39    H68     1.111   .     S
C39    H65     1.110   .     S
C39    H66     1.109   .     S
C39    N80     1.446   .     S
C40    N82     1.416   .     S
C40    C904    1.399   1_554 S
C41    N83     1.412   .     S
C41    C906    1.400   .     S
C42    H67     1.080   .     S
C42    C338    1.372   .     S
C43    H69     1.082   .     S
C43    C590    1.373   1_545 S
C44    H70     1.084   .     S
C44    C630    1.372   1_545 S
H47    N83     1.025   .     S
H50    C910    1.109   1_554 S
H51    N77     1.017   .     S
H53    C232    1.109   1_455 S
H54    C232    1.107   1_455 S
H55    N78     1.031   .     S
H60    N79     1.027   .     S
H64    N80     1.031   .     S
H72    N82     1.026   .     S
H74    C125    1.106   .     S
N75    Zn97    2.076   .     S
N81    Zn98    2.076   .     S
O89    Zn97    1.979   .     S
O90    Zn98    1.979   .     S
O91    Zn98    1.988   .     S
O92    Zn97    1.988   .     S
O93    Zn97    2.002   .     S
O94    Zn98    2.002   .     S
O95    Zn98    2.021   .     S
O96    Zn97    2.021   .     S
C99    O189    1.307   .     A
C99    O187    1.307   .     A
C99    C102    1.411   .     S
C100   C102    1.395   .     A
C100   H169    1.081   .     S
C100   C435    1.373   .     S
C101   C141    1.393   .     A
C101   C110    1.410   .     S
C101   C142    1.395   .     A
C102   C140    1.393   .     A
C103   N179    1.387   .     A
C103   N175    1.437   .     S
C103   C203    1.451   .     S
C104   N176    1.420   .     S
C104   N173    1.378   .     A
C105   N177    1.416   .     S
C105   N173    1.380   .     A
C106   N179    1.378   .     A
C106   N178    1.420   .     S
C106   C202    1.452   .     S
C107   O193    1.319   .     A
C107   C109    1.453   .     S
C107   O191    1.315   .     A
C108   O194    1.313   .     A
C108   C111    1.457   .     S
C108   O192    1.319   .     A
C109   C116    1.390   .     A
C109   C114    1.395   .     A
C110   O188    1.304   .     A
C110   O190    1.310   .     A
C111   C117    1.400   .     A
C111   C115    1.412   .     A
C112   C129    1.444   .     S
C112   C114    1.390   .     A
C112   C120    1.403   .     A
C113   C130    1.444   .     S
C113   C122    1.403   .     A
C113   C115    1.406   .     A
C114   C128    1.446   .     S
C115   C127    1.451   .     S
C116   H154    1.072   .     S
C116   C118    1.400   .     A
C117   C119    1.392   .     A
C117   H143    1.083   .     S
C118   C120    1.412   .     A
C118   C123    1.409   .     A
C119   C124    1.400   .     A
C119   C122    1.389   .     A
C120   C1020   1.399   .     S
C121   C138    1.399   .     A
C121   C124    1.412   .     A
C121   C131    1.453   .     S
C122   C1021   1.400   1_554 S
C123   C132    1.422   .     A
C123   C1006   1.419   .     S
C124   C1005   1.419   1_554 S
C125   H144    1.111   .     S
C125   N180    1.446   .     S
C125   H171    1.106   .     S
C126   H147    1.110   .     S
C126   N181    1.451   .     S
C126   H146    1.108   .     S
C126   H1030   1.109   .     S
C127   N182    1.157   .     T
C128   N183    1.158   .     T
C129   N184    1.156   .     T
C130   N185    1.157   .     T
C131   N186    1.158   .     T
C132   C133    1.454   .     S
C132   C139    1.409   .     A
C133   N174    1.158   .     T
C134   N175    1.454   .     S
C134   H150    1.112   .     S
C134   H249    1.109   .     S
C134   H250    1.107   .     S
C135   H156    1.111   .     S
C135   H157    1.110   .     S
C135   N176    1.449   .     S
C135   H155    1.108   .     S
C136   N177    1.447   .     S
C136   H159    1.110   .     S
C136   H161    1.109   .     S
C136   H160    1.110   .     S
C137   H166    1.111   .     S
C137   H163    1.110   .     S
C137   H164    1.109   .     S
C137   N178    1.446   .     S
C138   N180    1.416   .     S
C138   C1002   1.399   1_554 S
C139   N181    1.412   .     S
C139   C1004   1.400   .     S
C140   H165    1.080   .     S
C140   C436    1.372   .     S
C141   H167    1.082   .     S
C141   C688    1.373   1_545 S
C142   H168    1.084   .     S
C142   C728    1.372   1_545 S
H145   N181    1.025   .     S
H148   C1008   1.109   1_554 S
H149   N175    1.017   .     S
H153   N176    1.031   .     S
H158   N177    1.027   .     S
H162   N178    1.031   .     S
H170   N180    1.026   .     S
H172   C223    1.106   .     S
N173   Zn195   2.076   .     S
N179   Zn196   2.076   .     S
O187   Zn195   1.979   .     S
O188   Zn196   1.979   .     S
O189   Zn196   1.988   .     S
O190   Zn195   1.988   .     S
O191   Zn195   2.002   .     S
O192   Zn196   2.002   .     S
O193   Zn196   2.021   .     S
O194   Zn195   2.021   .     S
C197   O287    1.307   .     A
C197   O285    1.307   .     A
C197   C200    1.411   .     S
C198   C200    1.395   .     A
C198   H267    1.081   .     S
C198   C533    1.373   .     S
C199   C239    1.393   .     A
C199   C208    1.410   .     S
C199   C240    1.395   .     A
C200   C238    1.393   .     A
C201   N277    1.387   .     A
C201   N273    1.437   .     S
C201   C7      1.451   1_655 S
C202   N274    1.420   .     S
C202   N271    1.378   .     A
C203   N275    1.416   .     S
C203   N271    1.380   .     A
C204   N277    1.378   .     A
C204   N276    1.420   .     S
C204   C6      1.452   1_655 S
C205   O291    1.319   .     A
C205   C207    1.453   .     S
C205   O289    1.315   .     A
C206   O292    1.313   .     A
C206   C209    1.457   .     S
C206   O290    1.319   .     A
C207   C214    1.390   .     A
C207   C212    1.395   .     A
C208   O286    1.304   .     A
C208   O288    1.310   .     A
C209   C215    1.400   .     A
C209   C213    1.412   .     A
C210   C227    1.444   .     S
C210   C212    1.390   .     A
C210   C218    1.403   .     A
C211   C228    1.444   .     S
C211   C220    1.403   .     A
C211   C213    1.406   .     A
C212   C226    1.446   .     S
C213   C225    1.451   .     S
C214   H252    1.072   .     S
C214   C216    1.400   .     A
C215   C217    1.392   .     A
C215   H241    1.083   .     S
C216   C218    1.412   .     A
C216   C221    1.409   .     A
C217   C222    1.400   .     A
C217   C220    1.389   .     A
C218   C1118   1.399   .     S
C219   C236    1.399   .     A
C219   C222    1.412   .     A
C219   C229    1.453   .     S
C220   C1119   1.400   1_554 S
C221   C230    1.422   .     A
C221   C1104   1.419   .     S
C222   C1103   1.419   1_554 S
C223   H242    1.111   .     S
C223   N278    1.446   .     S
C223   H269    1.106   .     S
C224   H245    1.110   .     S
C224   N279    1.451   .     S
C224   H244    1.108   .     S
C224   H1128   1.109   .     S
C225   N280    1.157   .     T
C226   N281    1.158   .     T
C227   N282    1.156   .     T
C228   N283    1.157   .     T
C229   N284    1.158   .     T
C230   C231    1.454   .     S
C230   C237    1.409   .     A
C231   N272    1.158   .     T
C232   N273    1.454   .     S
C232   H248    1.112   .     S
C232   H53     1.109   1_655 S
C232   H54     1.107   1_655 S
C233   H254    1.111   .     S
C233   H255    1.110   .     S
C233   N274    1.449   .     S
C233   H253    1.108   .     S
C234   N275    1.447   .     S
C234   H257    1.110   .     S
C234   H259    1.109   .     S
C234   H258    1.110   .     S
C235   H264    1.111   .     S
C235   H261    1.110   .     S
C235   H262    1.109   .     S
C235   N276    1.446   .     S
C236   N278    1.416   .     S
C236   C1100   1.399   1_554 S
C237   N279    1.412   .     S
C237   C1102   1.400   .     S
C238   H263    1.080   .     S
C238   C534    1.372   .     S
C239   H265    1.082   .     S
C239   C786    1.373   1_545 S
C240   H266    1.084   .     S
C240   C826    1.372   1_545 S
H243   N279    1.025   .     S
H246   C1106   1.109   1_554 S
H247   N273    1.017   .     S
H251   N274    1.031   .     S
H256   N275    1.027   .     S
H260   N276    1.031   .     S
H268   N278    1.026   .     S
H270   C27     1.106   1_655 S
N271   Zn293   2.076   .     S
N277   Zn294   2.076   .     S
O285   Zn293   1.979   .     S
O286   Zn294   1.979   .     S
O287   Zn294   1.988   .     S
O288   Zn293   1.988   .     S
O289   Zn293   2.002   .     S
O290   Zn294   2.002   .     S
O291   Zn294   2.021   .     S
O292   Zn293   2.021   .     S
C295   O385    1.307   .     A
C295   O383    1.307   .     A
C295   C298    1.411   .     S
C296   C298    1.395   .     A
C296   H365    1.081   .     S
C296   C631    1.373   .     S
C297   C337    1.393   .     A
C297   C306    1.410   .     S
C297   C338    1.395   .     A
C298   C336    1.393   .     A
C299   N375    1.387   .     A
C299   N371    1.437   .     S
C299   C399    1.451   .     S
C300   N372    1.420   .     S
C300   N369    1.378   .     A
C300   C498    1.452   1_455 S
C301   N373    1.416   .     S
C301   N369    1.380   .     A
C301   C495    1.451   1_455 S
C302   N375    1.378   .     A
C302   N374    1.420   .     S
C302   C398    1.452   .     S
C303   O389    1.319   .     A
C303   C305    1.453   .     S
C303   O387    1.315   .     A
C304   O390    1.313   .     A
C304   C307    1.457   .     S
C304   O388    1.319   .     A
C305   C312    1.390   .     A
C305   C310    1.395   .     A
C306   O384    1.304   .     A
C306   O386    1.310   .     A
C307   C313    1.400   .     A
C307   C311    1.412   .     A
C308   C325    1.444   .     S
C308   C310    1.390   .     A
C308   C316    1.403   .     A
C309   C326    1.444   .     S
C309   C318    1.403   .     A
C309   C311    1.406   .     A
C310   C324    1.446   .     S
C311   C323    1.451   .     S
C312   H350    1.072   .     S
C312   C314    1.400   .     A
C313   C315    1.392   .     A
C313   H339    1.083   .     S
C314   C316    1.412   .     A
C314   C319    1.409   .     A
C315   C320    1.400   .     A
C315   C318    1.389   .     A
C316   C1216   1.399   .     S
C317   C334    1.399   .     A
C317   C320    1.412   .     A
C317   C327    1.453   .     S
C318   C1217   1.400   1_554 S
C319   C328    1.422   .     A
C319   C1202   1.419   .     S
C320   C1201   1.419   1_554 S
C321   H340    1.111   .     S
C321   N376    1.446   .     S
C321   H367    1.106   .     S
C321   H564    1.106   1_455 S
C322   H343    1.110   .     S
C322   N377    1.451   .     S
C322   H342    1.108   .     S
C322   H1226   1.109   .     S
C323   N378    1.157   .     T
C324   N379    1.158   .     T
C325   N380    1.156   .     T
C326   N381    1.157   .     T
C327   N382    1.158   .     T
C328   C329    1.454   .     S
C328   C335    1.409   .     A
C329   N370    1.158   .     T
C330   N371    1.454   .     S
C330   H346    1.112   .     S
C330   H445    1.109   .     S
C330   H446    1.107   .     S
C331   H352    1.111   .     S
C331   H353    1.110   .     S
C331   N372    1.449   .     S
C331   H351    1.108   .     S
C332   N373    1.447   .     S
C332   H355    1.110   .     S
C332   H357    1.109   .     S
C332   H356    1.110   .     S
C333   H362    1.111   .     S
C333   H359    1.110   .     S
C333   H360    1.109   .     S
C333   N374    1.446   .     S
C334   N376    1.416   .     S
C334   C1198   1.399   1_554 S
C335   N377    1.412   .     S
C335   C1200   1.400   .     S
C336   H361    1.080   .     S
C336   C632    1.372   .     S
C337   H363    1.082   .     S
C338   H364    1.084   .     S
H341   N377    1.025   .     S
H344   C1204   1.109   1_554 S
H345   N371    1.017   .     S
H347   C526    1.109   1_455 S
H348   C526    1.107   1_455 S
H349   N372    1.031   .     S
H354   N373    1.027   .     S
H358   N374    1.031   .     S
H366   N376    1.026   .     S
H368   C419    1.106   .     S
N369   Zn391   2.076   .     S
N375   Zn392   2.076   .     S
O383   Zn391   1.979   .     S
O384   Zn392   1.979   .     S
O385   Zn392   1.988   .     S
O386   Zn391   1.988   .     S
O387   Zn391   2.002   .     S
O388   Zn392   2.002   .     S
O389   Zn392   2.021   .     S
O390   Zn391   2.021   .     S
C393   O483    1.307   .     A
C393   O481    1.307   .     A
C393   C396    1.411   .     S
C394   C396    1.395   .     A
C394   H463    1.081   .     S
C394   C729    1.373   .     S
C395   C435    1.393   .     A
C395   C404    1.410   .     S
C395   C436    1.395   .     A
C396   C434    1.393   .     A
C397   N473    1.387   .     A
C397   N469    1.437   .     S
C397   C497    1.451   .     S
C398   N470    1.420   .     S
C398   N467    1.378   .     A
C399   N471    1.416   .     S
C399   N467    1.380   .     A
C400   N473    1.378   .     A
C400   N472    1.420   .     S
C400   C496    1.452   .     S
C401   O487    1.319   .     A
C401   C403    1.453   .     S
C401   O485    1.315   .     A
C402   O488    1.313   .     A
C402   C405    1.457   .     S
C402   O486    1.319   .     A
C403   C410    1.390   .     A
C403   C408    1.395   .     A
C404   O482    1.304   .     A
C404   O484    1.310   .     A
C405   C411    1.400   .     A
C405   C409    1.412   .     A
C406   C423    1.444   .     S
C406   C408    1.390   .     A
C406   C414    1.403   .     A
C407   C424    1.444   .     S
C407   C416    1.403   .     A
C407   C409    1.406   .     A
C408   C422    1.446   .     S
C409   C421    1.451   .     S
C410   H448    1.072   .     S
C410   C412    1.400   .     A
C411   C413    1.392   .     A
C411   H437    1.083   .     S
C412   C414    1.412   .     A
C412   C417    1.409   .     A
C413   C418    1.400   .     A
C413   C416    1.389   .     A
C414   C1314   1.399   .     S
C415   C432    1.399   .     A
C415   C418    1.412   .     A
C415   C425    1.453   .     S
C416   C1315   1.400   1_554 S
C417   C426    1.422   .     A
C417   C1300   1.419   .     S
C418   C1299   1.419   1_554 S
C419   H438    1.111   .     S
C419   N474    1.446   .     S
C419   H465    1.106   .     S
C420   H441    1.110   .     S
C420   N475    1.451   .     S
C420   H440    1.108   .     S
C420   H1324   1.109   .     S
C421   N476    1.157   .     T
C422   N477    1.158   .     T
C423   N478    1.156   .     T
C424   N479    1.157   .     T
C425   N480    1.158   .     T
C426   C427    1.454   .     S
C426   C433    1.409   .     A
C427   N468    1.158   .     T
C428   N469    1.454   .     S
C428   H444    1.112   .     S
C428   H543    1.109   .     S
C428   H544    1.107   .     S
C429   H450    1.111   .     S
C429   H451    1.110   .     S
C429   N470    1.449   .     S
C429   H449    1.108   .     S
C430   N471    1.447   .     S
C430   H453    1.110   .     S
C430   H455    1.109   .     S
C430   H454    1.110   .     S
C431   H460    1.111   .     S
C431   H457    1.110   .     S
C431   H458    1.109   .     S
C431   N472    1.446   .     S
C432   N474    1.416   .     S
C432   C1296   1.399   1_554 S
C433   N475    1.412   .     S
C433   C1298   1.400   .     S
C434   H459    1.080   .     S
C434   C730    1.372   .     S
C435   H461    1.082   .     S
C436   H462    1.084   .     S
H439   N475    1.025   .     S
H442   C1302   1.109   1_554 S
H443   N469    1.017   .     S
H447   N470    1.031   .     S
H452   N471    1.027   .     S
H456   N472    1.031   .     S
H464   N474    1.026   .     S
H466   C517    1.106   .     S
N467   Zn489   2.076   .     S
N473   Zn490   2.076   .     S
O481   Zn489   1.979   .     S
O482   Zn490   1.979   .     S
O483   Zn490   1.988   .     S
O484   Zn489   1.988   .     S
O485   Zn489   2.002   .     S
O486   Zn490   2.002   .     S
O487   Zn490   2.021   .     S
O488   Zn489   2.021   .     S
C491   O581    1.307   .     A
C491   O579    1.307   .     A
C491   C494    1.411   .     S
C492   C494    1.395   .     A
C492   H561    1.081   .     S
C492   C827    1.373   .     S
C493   C533    1.393   .     A
C493   C502    1.410   .     S
C493   C534    1.395   .     A
C494   C532    1.393   .     A
C495   N571    1.387   .     A
C495   N567    1.437   .     S
C495   C301    1.451   1_655 S
C496   N568    1.420   .     S
C496   N565    1.378   .     A
C497   N569    1.416   .     S
C497   N565    1.380   .     A
C498   N571    1.378   .     A
C498   N570    1.420   .     S
C498   C300    1.452   1_655 S
C499   O585    1.319   .     A
C499   C501    1.453   .     S
C499   O583    1.315   .     A
C500   O586    1.313   .     A
C500   C503    1.457   .     S
C500   O584    1.319   .     A
C501   C508    1.390   .     A
C501   C506    1.395   .     A
C502   O580    1.304   .     A
C502   O582    1.310   .     A
C503   C509    1.400   .     A
C503   C507    1.412   .     A
C504   C521    1.444   .     S
C504   C506    1.390   .     A
C504   C512    1.403   .     A
C505   C522    1.444   .     S
C505   C514    1.403   .     A
C505   C507    1.406   .     A
C506   C520    1.446   .     S
C507   C519    1.451   .     S
C508   H546    1.072   .     S
C508   C510    1.400   .     A
C509   C511    1.392   .     A
C509   H535    1.083   .     S
C510   C512    1.412   .     A
C510   C515    1.409   .     A
C511   C516    1.400   .     A
C511   C514    1.389   .     A
C512   C1412   1.399   .     S
C513   C530    1.399   .     A
C513   C516    1.412   .     A
C513   C523    1.453   .     S
C514   C1413   1.400   1_554 S
C515   C524    1.422   .     A
C515   C1398   1.419   .     S
C516   C1397   1.419   1_554 S
C517   H536    1.111   .     S
C517   N572    1.446   .     S
C517   H563    1.106   .     S
C518   H539    1.110   .     S
C518   N573    1.451   .     S
C518   H538    1.108   .     S
C518   H1422   1.109   .     S
C519   N574    1.157   .     T
C520   N575    1.158   .     T
C521   N576    1.156   .     T
C522   N577    1.157   .     T
C523   N578    1.158   .     T
C524   C525    1.454   .     S
C524   C531    1.409   .     A
C525   N566    1.158   .     T
C526   N567    1.454   .     S
C526   H542    1.112   .     S
C526   H347    1.109   1_655 S
C526   H348    1.107   1_655 S
C527   H548    1.111   .     S
C527   H549    1.110   .     S
C527   N568    1.449   .     S
C527   H547    1.108   .     S
C528   N569    1.447   .     S
C528   H551    1.110   .     S
C528   H553    1.109   .     S
C528   H552    1.110   .     S
C529   H558    1.111   .     S
C529   H555    1.110   .     S
C529   H556    1.109   .     S
C529   N570    1.446   .     S
C530   N572    1.416   .     S
C530   C1394   1.399   1_554 S
C531   N573    1.412   .     S
C531   C1396   1.400   .     S
C532   H557    1.080   .     S
C532   C828    1.372   .     S
C533   H559    1.082   .     S
C534   H560    1.084   .     S
H537   N573    1.025   .     S
H540   C1400   1.109   1_554 S
H541   N567    1.017   .     S
H545   N568    1.031   .     S
H550   N569    1.027   .     S
H554   N570    1.031   .     S
H562   N572    1.026   .     S
H564   C321    1.106   1_655 S
N565   Zn587   2.076   .     S
N571   Zn588   2.076   .     S
O579   Zn587   1.979   .     S
O580   Zn588   1.979   .     S
O581   Zn588   1.988   .     S
O582   Zn587   1.988   .     S
O583   Zn587   2.002   .     S
O584   Zn588   2.002   .     S
O585   Zn588   2.021   .     S
O586   Zn587   2.021   .     S
C589   O679    1.307   .     A
C589   O677    1.307   .     A
C589   C592    1.411   .     S
C590   C592    1.395   .     A
C590   H659    1.081   .     S
C590   C43     1.373   1_565 S
C591   C631    1.393   .     A
C591   C600    1.410   .     S
C591   C632    1.395   .     A
C592   C630    1.393   .     A
C593   N669    1.387   .     A
C593   N665    1.437   .     S
C593   C693    1.451   .     S
C594   N666    1.420   .     S
C594   N663    1.378   .     A
C594   C792    1.452   1_455 S
C595   N667    1.416   .     S
C595   N663    1.380   .     A
C595   C789    1.451   1_455 S
C596   N669    1.378   .     A
C596   N668    1.420   .     S
C596   C692    1.452   .     S
C597   O683    1.319   .     A
C597   C599    1.453   .     S
C597   O681    1.315   .     A
C598   O684    1.313   .     A
C598   C601    1.457   .     S
C598   O682    1.319   .     A
C599   C606    1.390   .     A
C599   C604    1.395   .     A
C600   O678    1.304   .     A
C600   O680    1.310   .     A
C601   C607    1.400   .     A
C601   C605    1.412   .     A
C602   C619    1.444   .     S
C602   C604    1.390   .     A
C602   C610    1.403   .     A
C603   C620    1.444   .     S
C603   C612    1.403   .     A
C603   C605    1.406   .     A
C604   C618    1.446   .     S
C605   C617    1.451   .     S
C606   H644    1.072   .     S
C606   C608    1.400   .     A
C607   C609    1.392   .     A
C607   H633    1.083   .     S
C608   C610    1.412   .     A
C608   C613    1.409   .     A
C609   C614    1.400   .     A
C609   C612    1.389   .     A
C610   C1510   1.399   .     S
C611   C628    1.399   .     A
C611   C614    1.412   .     A
C611   C621    1.453   .     S
C612   C1511   1.400   1_554 S
C613   C622    1.422   .     A
C613   C1496   1.419   .     S
C614   C1495   1.419   1_554 S
C615   H634    1.111   .     S
C615   N670    1.446   .     S
C615   H661    1.106   .     S
C615   H858    1.106   1_455 S
C616   H637    1.110   .     S
C616   N671    1.451   .     S
C616   H636    1.108   .     S
C616   H1520   1.109   .     S
C617   N672    1.157   .     T
C618   N673    1.158   .     T
C619   N674    1.156   .     T
C620   N675    1.157   .     T
C621   N676    1.158   .     T
C622   C623    1.454   .     S
C622   C629    1.409   .     A
C623   N664    1.158   .     T
C624   N665    1.454   .     S
C624   H640    1.112   .     S
C624   H739    1.109   .     S
C624   H740    1.107   .     S
C625   H646    1.111   .     S
C625   H647    1.110   .     S
C625   N666    1.449   .     S
C625   H645    1.108   .     S
C626   N667    1.447   .     S
C626   H649    1.110   .     S
C626   H651    1.109   .     S
C626   H650    1.110   .     S
C627   H656    1.111   .     S
C627   H653    1.110   .     S
C627   H654    1.109   .     S
C627   N668    1.446   .     S
C628   N670    1.416   .     S
C628   C1492   1.399   1_554 S
C629   N671    1.412   .     S
C629   C1494   1.400   .     S
C630   H655    1.080   .     S
C630   C44     1.372   1_565 S
C631   H657    1.082   .     S
C632   H658    1.084   .     S
H635   N671    1.025   .     S
H638   C1498   1.109   1_554 S
H639   N665    1.017   .     S
H641   C820    1.109   1_455 S
H642   C820    1.107   1_455 S
H643   N666    1.031   .     S
H648   N667    1.027   .     S
H652   N668    1.031   .     S
H660   N670    1.026   .     S
H662   C713    1.106   .     S
N663   Zn685   2.076   .     S
N669   Zn686   2.076   .     S
O677   Zn685   1.979   .     S
O678   Zn686   1.979   .     S
O679   Zn686   1.988   .     S
O680   Zn685   1.988   .     S
O681   Zn685   2.002   .     S
O682   Zn686   2.002   .     S
O683   Zn686   2.021   .     S
O684   Zn685   2.021   .     S
C687   O777    1.307   .     A
C687   O775    1.307   .     A
C687   C690    1.411   .     S
C688   C690    1.395   .     A
C688   H757    1.081   .     S
C688   C141    1.373   1_565 S
C689   C729    1.393   .     A
C689   C698    1.410   .     S
C689   C730    1.395   .     A
C690   C728    1.393   .     A
C691   N767    1.387   .     A
C691   N763    1.437   .     S
C691   C791    1.451   .     S
C692   N764    1.420   .     S
C692   N761    1.378   .     A
C693   N765    1.416   .     S
C693   N761    1.380   .     A
C694   N767    1.378   .     A
C694   N766    1.420   .     S
C694   C790    1.452   .     S
C695   O781    1.319   .     A
C695   C697    1.453   .     S
C695   O779    1.315   .     A
C696   O782    1.313   .     A
C696   C699    1.457   .     S
C696   O780    1.319   .     A
C697   C704    1.390   .     A
C697   C702    1.395   .     A
C698   O776    1.304   .     A
C698   O778    1.310   .     A
C699   C705    1.400   .     A
C699   C703    1.412   .     A
C700   C717    1.444   .     S
C700   C702    1.390   .     A
C700   C708    1.403   .     A
C701   C718    1.444   .     S
C701   C710    1.403   .     A
C701   C703    1.406   .     A
C702   C716    1.446   .     S
C703   C715    1.451   .     S
C704   H742    1.072   .     S
C704   C706    1.400   .     A
C705   C707    1.392   .     A
C705   H731    1.083   .     S
C706   C708    1.412   .     A
C706   C711    1.409   .     A
C707   C712    1.400   .     A
C707   C710    1.389   .     A
C708   C1608   1.399   .     S
C709   C726    1.399   .     A
C709   C712    1.412   .     A
C709   C719    1.453   .     S
C710   C1609   1.400   1_554 S
C711   C720    1.422   .     A
C711   C1594   1.419   .     S
C712   C1593   1.419   1_554 S
C713   H732    1.111   .     S
C713   N768    1.446   .     S
C713   H759    1.106   .     S
C714   H735    1.110   .     S
C714   N769    1.451   .     S
C714   H734    1.108   .     S
C714   H1618   1.109   .     S
C715   N770    1.157   .     T
C716   N771    1.158   .     T
C717   N772    1.156   .     T
C718   N773    1.157   .     T
C719   N774    1.158   .     T
C720   C721    1.454   .     S
C720   C727    1.409   .     A
C721   N762    1.158   .     T
C722   N763    1.454   .     S
C722   H738    1.112   .     S
C722   H837    1.109   .     S
C722   H838    1.107   .     S
C723   H744    1.111   .     S
C723   H745    1.110   .     S
C723   N764    1.449   .     S
C723   H743    1.108   .     S
C724   N765    1.447   .     S
C724   H747    1.110   .     S
C724   H749    1.109   .     S
C724   H748    1.110   .     S
C725   H754    1.111   .     S
C725   H751    1.110   .     S
C725   H752    1.109   .     S
C725   N766    1.446   .     S
C726   N768    1.416   .     S
C726   C1590   1.399   1_554 S
C727   N769    1.412   .     S
C727   C1592   1.400   .     S
C728   H753    1.080   .     S
C728   C142    1.372   1_565 S
C729   H755    1.082   .     S
C730   H756    1.084   .     S
H733   N769    1.025   .     S
H736   C1596   1.109   1_554 S
H737   N763    1.017   .     S
H741   N764    1.031   .     S
H746   N765    1.027   .     S
H750   N766    1.031   .     S
H758   N768    1.026   .     S
H760   C811    1.106   .     S
N761   Zn783   2.076   .     S
N767   Zn784   2.076   .     S
O775   Zn783   1.979   .     S
O776   Zn784   1.979   .     S
O777   Zn784   1.988   .     S
O778   Zn783   1.988   .     S
O779   Zn783   2.002   .     S
O780   Zn784   2.002   .     S
O781   Zn784   2.021   .     S
O782   Zn783   2.021   .     S
C785   O875    1.307   .     A
C785   O873    1.307   .     A
C785   C788    1.411   .     S
C786   C788    1.395   .     A
C786   H855    1.081   .     S
C786   C239    1.373   1_565 S
C787   C827    1.393   .     A
C787   C796    1.410   .     S
C787   C828    1.395   .     A
C788   C826    1.393   .     A
C789   N865    1.387   .     A
C789   N861    1.437   .     S
C789   C595    1.451   1_655 S
C790   N862    1.420   .     S
C790   N859    1.378   .     A
C791   N863    1.416   .     S
C791   N859    1.380   .     A
C792   N865    1.378   .     A
C792   N864    1.420   .     S
C792   C594    1.452   1_655 S
C793   O879    1.319   .     A
C793   C795    1.453   .     S
C793   O877    1.315   .     A
C794   O880    1.313   .     A
C794   C797    1.457   .     S
C794   O878    1.319   .     A
C795   C802    1.390   .     A
C795   C800    1.395   .     A
C796   O874    1.304   .     A
C796   O876    1.310   .     A
C797   C803    1.400   .     A
C797   C801    1.412   .     A
C798   C815    1.444   .     S
C798   C800    1.390   .     A
C798   C806    1.403   .     A
C799   C816    1.444   .     S
C799   C808    1.403   .     A
C799   C801    1.406   .     A
C800   C814    1.446   .     S
C801   C813    1.451   .     S
C802   H840    1.072   .     S
C802   C804    1.400   .     A
C803   C805    1.392   .     A
C803   H829    1.083   .     S
C804   C806    1.412   .     A
C804   C809    1.409   .     A
C805   C810    1.400   .     A
C805   C808    1.389   .     A
C806   C1706   1.399   .     S
C807   C824    1.399   .     A
C807   C810    1.412   .     A
C807   C817    1.453   .     S
C808   C1707   1.400   1_554 S
C809   C818    1.422   .     A
C809   C1692   1.419   .     S
C810   C1691   1.419   1_554 S
C811   H830    1.111   .     S
C811   N866    1.446   .     S
C811   H857    1.106   .     S
C812   H833    1.110   .     S
C812   N867    1.451   .     S
C812   H832    1.108   .     S
C812   H1716   1.109   .     S
C813   N868    1.157   .     T
C814   N869    1.158   .     T
C815   N870    1.156   .     T
C816   N871    1.157   .     T
C817   N872    1.158   .     T
C818   C819    1.454   .     S
C818   C825    1.409   .     A
C819   N860    1.158   .     T
C820   N861    1.454   .     S
C820   H836    1.112   .     S
C820   H641    1.109   1_655 S
C820   H642    1.107   1_655 S
C821   H842    1.111   .     S
C821   H843    1.110   .     S
C821   N862    1.449   .     S
C821   H841    1.108   .     S
C822   N863    1.447   .     S
C822   H845    1.110   .     S
C822   H847    1.109   .     S
C822   H846    1.110   .     S
C823   H852    1.111   .     S
C823   H849    1.110   .     S
C823   H850    1.109   .     S
C823   N864    1.446   .     S
C824   N866    1.416   .     S
C824   C1688   1.399   1_554 S
C825   N867    1.412   .     S
C825   C1690   1.400   .     S
C826   H851    1.080   .     S
C826   C240    1.372   1_565 S
C827   H853    1.082   .     S
C828   H854    1.084   .     S
H831   N867    1.025   .     S
H834   C1694   1.109   1_554 S
H835   N861    1.017   .     S
H839   N862    1.031   .     S
H844   N863    1.027   .     S
H848   N864    1.031   .     S
H856   N866    1.026   .     S
H858   C615    1.106   1_655 S
N859   Zn881   2.076   .     S
N865   Zn882   2.076   .     S
O873   Zn881   1.979   .     S
O874   Zn882   1.979   .     S
O875   Zn882   1.988   .     S
O876   Zn881   1.988   .     S
O877   Zn881   2.002   .     S
O878   Zn882   2.002   .     S
O879   Zn882   2.021   .     S
O880   Zn881   2.021   .     S
C883   O973    1.307   .     A
C883   O971    1.307   .     A
C883   C886    1.411   .     S
C884   C886    1.395   .     A
C884   H953    1.081   .     S
C884   C1219   1.373   .     S
C885   C925    1.393   .     A
C885   C894    1.410   .     S
C885   C926    1.395   .     A
C886   C924    1.393   .     A
C887   N963    1.387   .     A
C887   N959    1.437   .     S
C887   C987    1.451   .     S
C888   N960    1.420   .     S
C888   N957    1.378   .     A
C888   C1086   1.452   1_455 S
C889   N961    1.416   .     S
C889   N957    1.380   .     A
C889   C1083   1.451   1_455 S
C890   N963    1.378   .     A
C890   N962    1.420   .     S
C890   C986    1.452   .     S
C891   O977    1.319   .     A
C891   C893    1.453   .     S
C891   O975    1.315   .     A
C892   O978    1.313   .     A
C892   C895    1.457   .     S
C892   O976    1.319   .     A
C893   C900    1.390   .     A
C893   C898    1.395   .     A
C894   O972    1.304   .     A
C894   O974    1.310   .     A
C895   C901    1.400   .     A
C895   C899    1.412   .     A
C896   C913    1.444   .     S
C896   C898    1.390   .     A
C896   C904    1.403   .     A
C897   C914    1.444   .     S
C897   C906    1.403   .     A
C897   C899    1.406   .     A
C898   C912    1.446   .     S
C899   C911    1.451   .     S
C900   H938    1.072   .     S
C900   C902    1.400   .     A
C901   C903    1.392   .     A
C901   H927    1.083   .     S
C902   C904    1.412   .     A
C902   C907    1.409   .     A
C903   C908    1.400   .     A
C903   C906    1.389   .     A
C904   C40     1.399   1_556 S
C905   C922    1.399   .     A
C905   C908    1.412   .     A
C905   C915    1.453   .     S
C907   C916    1.422   .     A
C907   C26     1.419   1_556 S
C909   H928    1.111   .     S
C909   N964    1.446   .     S
C909   H955    1.106   .     S
C909   H1152   1.106   1_455 S
C910   H931    1.110   .     S
C910   N965    1.451   .     S
C910   H930    1.108   .     S
C910   H50     1.109   1_556 S
C911   N966    1.157   .     T
C912   N967    1.158   .     T
C913   N968    1.156   .     T
C914   N969    1.157   .     T
C915   N970    1.158   .     T
C916   C917    1.454   .     S
C916   C923    1.409   .     A
C917   N958    1.158   .     T
C918   N959    1.454   .     S
C918   H934    1.112   .     S
C918   H1033   1.109   .     S
C918   H1034   1.107   .     S
C919   H940    1.111   .     S
C919   H941    1.110   .     S
C919   N960    1.449   .     S
C919   H939    1.108   .     S
C920   N961    1.447   .     S
C920   H943    1.110   .     S
C920   H945    1.109   .     S
C920   H944    1.110   .     S
C921   H950    1.111   .     S
C921   H947    1.110   .     S
C921   H948    1.109   .     S
C921   N962    1.446   .     S
C922   N964    1.416   .     S
C923   N965    1.412   .     S
C923   C24     1.400   1_556 S
C924   H949    1.080   .     S
C924   C1220   1.372   .     S
C925   H951    1.082   .     S
C925   C1472   1.373   1_545 S
C926   H952    1.084   .     S
C926   C1512   1.372   1_545 S
H929   N965    1.025   .     S
H933   N959    1.017   .     S
H935   C1114   1.109   1_455 S
H936   C1114   1.107   1_455 S
H937   N960    1.031   .     S
H942   N961    1.027   .     S
H946   N962    1.031   .     S
H954   N964    1.026   .     S
H956   C1007   1.106   .     S
N957   Zn979   2.076   .     S
N963   Zn980   2.076   .     S
O971   Zn979   1.979   .     S
O972   Zn980   1.979   .     S
O973   Zn980   1.988   .     S
O974   Zn979   1.988   .     S
O975   Zn979   2.002   .     S
O976   Zn980   2.002   .     S
O977   Zn980   2.021   .     S
O978   Zn979   2.021   .     S
C981   O1071   1.307   .     A
C981   O1069   1.307   .     A
C981   C984    1.411   .     S
C982   C984    1.395   .     A
C982   H1051   1.081   .     S
C982   C1317   1.373   .     S
C983   C1023   1.393   .     A
C983   C992    1.410   .     S
C983   C1024   1.395   .     A
C984   C1022   1.393   .     A
C985   N1061   1.387   .     A
C985   N1057   1.437   .     S
C985   C1085   1.451   .     S
C986   N1058   1.420   .     S
C986   N1055   1.378   .     A
C987   N1059   1.416   .     S
C987   N1055   1.380   .     A
C988   N1061   1.378   .     A
C988   N1060   1.420   .     S
C988   C1084   1.452   .     S
C989   O1075   1.319   .     A
C989   C991    1.453   .     S
C989   O1073   1.315   .     A
C990   O1076   1.313   .     A
C990   C993    1.457   .     S
C990   O1074   1.319   .     A
C991   C998    1.390   .     A
C991   C996    1.395   .     A
C992   O1070   1.304   .     A
C992   O1072   1.310   .     A
C993   C999    1.400   .     A
C993   C997    1.412   .     A
C994   C1011   1.444   .     S
C994   C996    1.390   .     A
C994   C1002   1.403   .     A
C995   C1012   1.444   .     S
C995   C1004   1.403   .     A
C995   C997    1.406   .     A
C996   C1010   1.446   .     S
C997   C1009   1.451   .     S
C998   H1036   1.072   .     S
C998   C1000   1.400   .     A
C999   C1001   1.392   .     A
C999   H1025   1.083   .     S
C1000  C1002   1.412   .     A
C1000  C1005   1.409   .     A
C1001  C1006   1.400   .     A
C1001  C1004   1.389   .     A
C1002  C138    1.399   1_556 S
C1003  C1020   1.399   .     A
C1003  C1006   1.412   .     A
C1003  C1013   1.453   .     S
C1005  C1014   1.422   .     A
C1005  C124    1.419   1_556 S
C1007  H1026   1.111   .     S
C1007  N1062   1.446   .     S
C1007  H1053   1.106   .     S
C1008  H1029   1.110   .     S
C1008  N1063   1.451   .     S
C1008  H1028   1.108   .     S
C1008  H148    1.109   1_556 S
C1009  N1064   1.157   .     T
C1010  N1065   1.158   .     T
C1011  N1066   1.156   .     T
C1012  N1067   1.157   .     T
C1013  N1068   1.158   .     T
C1014  C1015   1.454   .     S
C1014  C1021   1.409   .     A
C1015  N1056   1.158   .     T
C1016  N1057   1.454   .     S
C1016  H1032   1.112   .     S
C1016  H1131   1.109   .     S
C1016  H1132   1.107   .     S
C1017  H1038   1.111   .     S
C1017  H1039   1.110   .     S
C1017  N1058   1.449   .     S
C1017  H1037   1.108   .     S
C1018  N1059   1.447   .     S
C1018  H1041   1.110   .     S
C1018  H1043   1.109   .     S
C1018  H1042   1.110   .     S
C1019  H1048   1.111   .     S
C1019  H1045   1.110   .     S
C1019  H1046   1.109   .     S
C1019  N1060   1.446   .     S
C1020  N1062   1.416   .     S
C1021  N1063   1.412   .     S
C1021  C122    1.400   1_556 S
C1022  H1047   1.080   .     S
C1022  C1318   1.372   .     S
C1023  H1049   1.082   .     S
C1023  C1570   1.373   1_545 S
C1024  H1050   1.084   .     S
C1024  C1610   1.372   1_545 S
H1027  N1063   1.025   .     S
H1031  N1057   1.017   .     S
H1035  N1058   1.031   .     S
H1040  N1059   1.027   .     S
H1044  N1060   1.031   .     S
H1052  N1062   1.026   .     S
H1054  C1105   1.106   .     S
N1055  Zn1077  2.076   .     S
N1061  Zn1078  2.076   .     S
O1069  Zn1077  1.979   .     S
O1070  Zn1078  1.979   .     S
O1071  Zn1078  1.988   .     S
O1072  Zn1077  1.988   .     S
O1073  Zn1077  2.002   .     S
O1074  Zn1078  2.002   .     S
O1075  Zn1078  2.021   .     S
O1076  Zn1077  2.021   .     S
C1079  O1169   1.307   .     A
C1079  O1167   1.307   .     A
C1079  C1082   1.411   .     S
C1080  C1082   1.395   .     A
C1080  H1149   1.081   .     S
C1080  C1415   1.373   .     S
C1081  C1121   1.393   .     A
C1081  C1090   1.410   .     S
C1081  C1122   1.395   .     A
C1082  C1120   1.393   .     A
C1083  N1159   1.387   .     A
C1083  N1155   1.437   .     S
C1083  C889    1.451   1_655 S
C1084  N1156   1.420   .     S
C1084  N1153   1.378   .     A
C1085  N1157   1.416   .     S
C1085  N1153   1.380   .     A
C1086  N1159   1.378   .     A
C1086  N1158   1.420   .     S
C1086  C888    1.452   1_655 S
C1087  O1173   1.319   .     A
C1087  C1089   1.453   .     S
C1087  O1171   1.315   .     A
C1088  O1174   1.313   .     A
C1088  C1091   1.457   .     S
C1088  O1172   1.319   .     A
C1089  C1096   1.390   .     A
C1089  C1094   1.395   .     A
C1090  O1168   1.304   .     A
C1090  O1170   1.310   .     A
C1091  C1097   1.400   .     A
C1091  C1095   1.412   .     A
C1092  C1109   1.444   .     S
C1092  C1094   1.390   .     A
C1092  C1100   1.403   .     A
C1093  C1110   1.444   .     S
C1093  C1102   1.403   .     A
C1093  C1095   1.406   .     A
C1094  C1108   1.446   .     S
C1095  C1107   1.451   .     S
C1096  H1134   1.072   .     S
C1096  C1098   1.400   .     A
C1097  C1099   1.392   .     A
C1097  H1123   1.083   .     S
C1098  C1100   1.412   .     A
C1098  C1103   1.409   .     A
C1099  C1104   1.400   .     A
C1099  C1102   1.389   .     A
C1100  C236    1.399   1_556 S
C1101  C1118   1.399   .     A
C1101  C1104   1.412   .     A
C1101  C1111   1.453   .     S
C1103  C1112   1.422   .     A
C1103  C222    1.419   1_556 S
C1105  H1124   1.111   .     S
C1105  N1160   1.446   .     S
C1105  H1151   1.106   .     S
C1106  H1127   1.110   .     S
C1106  N1161   1.451   .     S
C1106  H1126   1.108   .     S
C1106  H246    1.109   1_556 S
C1107  N1162   1.157   .     T
C1108  N1163   1.158   .     T
C1109  N1164   1.156   .     T
C1110  N1165   1.157   .     T
C1111  N1166   1.158   .     T
C1112  C1113   1.454   .     S
C1112  C1119   1.409   .     A
C1113  N1154   1.158   .     T
C1114  N1155   1.454   .     S
C1114  H1130   1.112   .     S
C1114  H935    1.109   1_655 S
C1114  H936    1.107   1_655 S
C1115  H1136   1.111   .     S
C1115  H1137   1.110   .     S
C1115  N1156   1.449   .     S
C1115  H1135   1.108   .     S
C1116  N1157   1.447   .     S
C1116  H1139   1.110   .     S
C1116  H1141   1.109   .     S
C1116  H1140   1.110   .     S
C1117  H1146   1.111   .     S
C1117  H1143   1.110   .     S
C1117  H1144   1.109   .     S
C1117  N1158   1.446   .     S
C1118  N1160   1.416   .     S
C1119  N1161   1.412   .     S
C1119  C220    1.400   1_556 S
C1120  H1145   1.080   .     S
C1120  C1416   1.372   .     S
C1121  H1147   1.082   .     S
C1121  C1668   1.373   1_545 S
C1122  H1148   1.084   .     S
C1122  C1708   1.372   1_545 S
H1125  N1161   1.025   .     S
H1129  N1155   1.017   .     S
H1133  N1156   1.031   .     S
H1138  N1157   1.027   .     S
H1142  N1158   1.031   .     S
H1150  N1160   1.026   .     S
H1152  C909    1.106   1_655 S
N1153  Zn1175  2.076   .     S
N1159  Zn1176  2.076   .     S
O1167  Zn1175  1.979   .     S
O1168  Zn1176  1.979   .     S
O1169  Zn1176  1.988   .     S
O1170  Zn1175  1.988   .     S
O1171  Zn1175  2.002   .     S
O1172  Zn1176  2.002   .     S
O1173  Zn1176  2.021   .     S
O1174  Zn1175  2.021   .     S
C1177  O1267   1.307   .     A
C1177  O1265   1.307   .     A
C1177  C1180   1.411   .     S
C1178  C1180   1.395   .     A
C1178  H1247   1.081   .     S
C1178  C1513   1.373   .     S
C1179  C1219   1.393   .     A
C1179  C1188   1.410   .     S
C1179  C1220   1.395   .     A
C1180  C1218   1.393   .     A
C1181  N1257   1.387   .     A
C1181  N1253   1.437   .     S
C1181  C1281   1.451   .     S
C1182  N1254   1.420   .     S
C1182  N1251   1.378   .     A
C1182  C1380   1.452   1_455 S
C1183  N1255   1.416   .     S
C1183  N1251   1.380   .     A
C1183  C1377   1.451   1_455 S
C1184  N1257   1.378   .     A
C1184  N1256   1.420   .     S
C1184  C1280   1.452   .     S
C1185  O1271   1.319   .     A
C1185  C1187   1.453   .     S
C1185  O1269   1.315   .     A
C1186  O1272   1.313   .     A
C1186  C1189   1.457   .     S
C1186  O1270   1.319   .     A
C1187  C1194   1.390   .     A
C1187  C1192   1.395   .     A
C1188  O1266   1.304   .     A
C1188  O1268   1.310   .     A
C1189  C1195   1.400   .     A
C1189  C1193   1.412   .     A
C1190  C1207   1.444   .     S
C1190  C1192   1.390   .     A
C1190  C1198   1.403   .     A
C1191  C1208   1.444   .     S
C1191  C1200   1.403   .     A
C1191  C1193   1.406   .     A
C1192  C1206   1.446   .     S
C1193  C1205   1.451   .     S
C1194  H1232   1.072   .     S
C1194  C1196   1.400   .     A
C1195  C1197   1.392   .     A
C1195  H1221   1.083   .     S
C1196  C1198   1.412   .     A
C1196  C1201   1.409   .     A
C1197  C1202   1.400   .     A
C1197  C1200   1.389   .     A
C1198  C334    1.399   1_556 S
C1199  C1216   1.399   .     A
C1199  C1202   1.412   .     A
C1199  C1209   1.453   .     S
C1201  C1210   1.422   .     A
C1201  C320    1.419   1_556 S
C1203  H1222   1.111   .     S
C1203  N1258   1.446   .     S
C1203  H1249   1.106   .     S
C1203  H1446   1.106   1_455 S
C1204  H1225   1.110   .     S
C1204  N1259   1.451   .     S
C1204  H1224   1.108   .     S
C1204  H344    1.109   1_556 S
C1205  N1260   1.157   .     T
C1206  N1261   1.158   .     T
C1207  N1262   1.156   .     T
C1208  N1263   1.157   .     T
C1209  N1264   1.158   .     T
C1210  C1211   1.454   .     S
C1210  C1217   1.409   .     A
C1211  N1252   1.158   .     T
C1212  N1253   1.454   .     S
C1212  H1228   1.112   .     S
C1212  H1327   1.109   .     S
C1212  H1328   1.107   .     S
C1213  H1234   1.111   .     S
C1213  H1235   1.110   .     S
C1213  N1254   1.449   .     S
C1213  H1233   1.108   .     S
C1214  N1255   1.447   .     S
C1214  H1237   1.110   .     S
C1214  H1239   1.109   .     S
C1214  H1238   1.110   .     S
C1215  H1244   1.111   .     S
C1215  H1241   1.110   .     S
C1215  H1242   1.109   .     S
C1215  N1256   1.446   .     S
C1216  N1258   1.416   .     S
C1217  N1259   1.412   .     S
C1217  C318    1.400   1_556 S
C1218  H1243   1.080   .     S
C1218  C1514   1.372   .     S
C1219  H1245   1.082   .     S
C1220  H1246   1.084   .     S
H1223  N1259   1.025   .     S
H1227  N1253   1.017   .     S
H1229  C1408   1.109   1_455 S
H1230  C1408   1.107   1_455 S
H1231  N1254   1.031   .     S
H1236  N1255   1.027   .     S
H1240  N1256   1.031   .     S
H1248  N1258   1.026   .     S
H1250  C1301   1.106   .     S
N1251  Zn1273  2.076   .     S
N1257  Zn1274  2.076   .     S
O1265  Zn1273  1.979   .     S
O1266  Zn1274  1.979   .     S
O1267  Zn1274  1.988   .     S
O1268  Zn1273  1.988   .     S
O1269  Zn1273  2.002   .     S
O1270  Zn1274  2.002   .     S
O1271  Zn1274  2.021   .     S
O1272  Zn1273  2.021   .     S
C1275  O1365   1.307   .     A
C1275  O1363   1.307   .     A
C1275  C1278   1.411   .     S
C1276  C1278   1.395   .     A
C1276  H1345   1.081   .     S
C1276  C1611   1.373   .     S
C1277  C1317   1.393   .     A
C1277  C1286   1.410   .     S
C1277  C1318   1.395   .     A
C1278  C1316   1.393   .     A
C1279  N1355   1.387   .     A
C1279  N1351   1.437   .     S
C1279  C1379   1.451   .     S
C1280  N1352   1.420   .     S
C1280  N1349   1.378   .     A
C1281  N1353   1.416   .     S
C1281  N1349   1.380   .     A
C1282  N1355   1.378   .     A
C1282  N1354   1.420   .     S
C1282  C1378   1.452   .     S
C1283  O1369   1.319   .     A
C1283  C1285   1.453   .     S
C1283  O1367   1.315   .     A
C1284  O1370   1.313   .     A
C1284  C1287   1.457   .     S
C1284  O1368   1.319   .     A
C1285  C1292   1.390   .     A
C1285  C1290   1.395   .     A
C1286  O1364   1.304   .     A
C1286  O1366   1.310   .     A
C1287  C1293   1.400   .     A
C1287  C1291   1.412   .     A
C1288  C1305   1.444   .     S
C1288  C1290   1.390   .     A
C1288  C1296   1.403   .     A
C1289  C1306   1.444   .     S
C1289  C1298   1.403   .     A
C1289  C1291   1.406   .     A
C1290  C1304   1.446   .     S
C1291  C1303   1.451   .     S
C1292  H1330   1.072   .     S
C1292  C1294   1.400   .     A
C1293  C1295   1.392   .     A
C1293  H1319   1.083   .     S
C1294  C1296   1.412   .     A
C1294  C1299   1.409   .     A
C1295  C1300   1.400   .     A
C1295  C1298   1.389   .     A
C1296  C432    1.399   1_556 S
C1297  C1314   1.399   .     A
C1297  C1300   1.412   .     A
C1297  C1307   1.453   .     S
C1299  C1308   1.422   .     A
C1299  C418    1.419   1_556 S
C1301  H1320   1.111   .     S
C1301  N1356   1.446   .     S
C1301  H1347   1.106   .     S
C1302  H1323   1.110   .     S
C1302  N1357   1.451   .     S
C1302  H1322   1.108   .     S
C1302  H442    1.109   1_556 S
C1303  N1358   1.157   .     T
C1304  N1359   1.158   .     T
C1305  N1360   1.156   .     T
C1306  N1361   1.157   .     T
C1307  N1362   1.158   .     T
C1308  C1309   1.454   .     S
C1308  C1315   1.409   .     A
C1309  N1350   1.158   .     T
C1310  N1351   1.454   .     S
C1310  H1326   1.112   .     S
C1310  H1425   1.109   .     S
C1310  H1426   1.107   .     S
C1311  H1332   1.111   .     S
C1311  H1333   1.110   .     S
C1311  N1352   1.449   .     S
C1311  H1331   1.108   .     S
C1312  N1353   1.447   .     S
C1312  H1335   1.110   .     S
C1312  H1337   1.109   .     S
C1312  H1336   1.110   .     S
C1313  H1342   1.111   .     S
C1313  H1339   1.110   .     S
C1313  H1340   1.109   .     S
C1313  N1354   1.446   .     S
C1314  N1356   1.416   .     S
C1315  N1357   1.412   .     S
C1315  C416    1.400   1_556 S
C1316  H1341   1.080   .     S
C1316  C1612   1.372   .     S
C1317  H1343   1.082   .     S
C1318  H1344   1.084   .     S
H1321  N1357   1.025   .     S
H1325  N1351   1.017   .     S
H1329  N1352   1.031   .     S
H1334  N1353   1.027   .     S
H1338  N1354   1.031   .     S
H1346  N1356   1.026   .     S
H1348  C1399   1.106   .     S
N1349  Zn1371  2.076   .     S
N1355  Zn1372  2.076   .     S
O1363  Zn1371  1.979   .     S
O1364  Zn1372  1.979   .     S
O1365  Zn1372  1.988   .     S
O1366  Zn1371  1.988   .     S
O1367  Zn1371  2.002   .     S
O1368  Zn1372  2.002   .     S
O1369  Zn1372  2.021   .     S
O1370  Zn1371  2.021   .     S
C1373  O1463   1.307   .     A
C1373  O1461   1.307   .     A
C1373  C1376   1.411   .     S
C1374  C1376   1.395   .     A
C1374  H1443   1.081   .     S
C1374  C1709   1.373   .     S
C1375  C1415   1.393   .     A
C1375  C1384   1.410   .     S
C1375  C1416   1.395   .     A
C1376  C1414   1.393   .     A
C1377  N1453   1.387   .     A
C1377  N1449   1.437   .     S
C1377  C1183   1.451   1_655 S
C1378  N1450   1.420   .     S
C1378  N1447   1.378   .     A
C1379  N1451   1.416   .     S
C1379  N1447   1.380   .     A
C1380  N1453   1.378   .     A
C1380  N1452   1.420   .     S
C1380  C1182   1.452   1_655 S
C1381  O1467   1.319   .     A
C1381  C1383   1.453   .     S
C1381  O1465   1.315   .     A
C1382  O1468   1.313   .     A
C1382  C1385   1.457   .     S
C1382  O1466   1.319   .     A
C1383  C1390   1.390   .     A
C1383  C1388   1.395   .     A
C1384  O1462   1.304   .     A
C1384  O1464   1.310   .     A
C1385  C1391   1.400   .     A
C1385  C1389   1.412   .     A
C1386  C1403   1.444   .     S
C1386  C1388   1.390   .     A
C1386  C1394   1.403   .     A
C1387  C1404   1.444   .     S
C1387  C1396   1.403   .     A
C1387  C1389   1.406   .     A
C1388  C1402   1.446   .     S
C1389  C1401   1.451   .     S
C1390  H1428   1.072   .     S
C1390  C1392   1.400   .     A
C1391  C1393   1.392   .     A
C1391  H1417   1.083   .     S
C1392  C1394   1.412   .     A
C1392  C1397   1.409   .     A
C1393  C1398   1.400   .     A
C1393  C1396   1.389   .     A
C1394  C530    1.399   1_556 S
C1395  C1412   1.399   .     A
C1395  C1398   1.412   .     A
C1395  C1405   1.453   .     S
C1397  C1406   1.422   .     A
C1397  C516    1.419   1_556 S
C1399  H1418   1.111   .     S
C1399  N1454   1.446   .     S
C1399  H1445   1.106   .     S
C1400  H1421   1.110   .     S
C1400  N1455   1.451   .     S
C1400  H1420   1.108   .     S
C1400  H540    1.109   1_556 S
C1401  N1456   1.157   .     T
C1402  N1457   1.158   .     T
C1403  N1458   1.156   .     T
C1404  N1459   1.157   .     T
C1405  N1460   1.158   .     T
C1406  C1407   1.454   .     S
C1406  C1413   1.409   .     A
C1407  N1448   1.158   .     T
C1408  N1449   1.454   .     S
C1408  H1424   1.112   .     S
C1408  H1229   1.109   1_655 S
C1408  H1230   1.107   1_655 S
C1409  H1430   1.111   .     S
C1409  H1431   1.110   .     S
C1409  N1450   1.449   .     S
C1409  H1429   1.108   .     S
C1410  N1451   1.447   .     S
C1410  H1433   1.110   .     S
C1410  H1435   1.109   .     S
C1410  H1434   1.110   .     S
C1411  H1440   1.111   .     S
C1411  H1437   1.110   .     S
C1411  H1438   1.109   .     S
C1411  N1452   1.446   .     S
C1412  N1454   1.416   .     S
C1413  N1455   1.412   .     S
C1413  C514    1.400   1_556 S
C1414  H1439   1.080   .     S
C1414  C1710   1.372   .     S
C1415  H1441   1.082   .     S
C1416  H1442   1.084   .     S
H1419  N1455   1.025   .     S
H1423  N1449   1.017   .     S
H1427  N1450   1.031   .     S
H1432  N1451   1.027   .     S
H1436  N1452   1.031   .     S
H1444  N1454   1.026   .     S
H1446  C1203   1.106   1_655 S
N1447  Zn1469  2.076   .     S
N1453  Zn1470  2.076   .     S
O1461  Zn1469  1.979   .     S
O1462  Zn1470  1.979   .     S
O1463  Zn1470  1.988   .     S
O1464  Zn1469  1.988   .     S
O1465  Zn1469  2.002   .     S
O1466  Zn1470  2.002   .     S
O1467  Zn1470  2.021   .     S
O1468  Zn1469  2.021   .     S
C1471  O1561   1.307   .     A
C1471  O1559   1.307   .     A
C1471  C1474   1.411   .     S
C1472  C1474   1.395   .     A
C1472  H1541   1.081   .     S
C1472  C925    1.373   1_565 S
C1473  C1513   1.393   .     A
C1473  C1482   1.410   .     S
C1473  C1514   1.395   .     A
C1474  C1512   1.393   .     A
C1475  N1551   1.387   .     A
C1475  N1547   1.437   .     S
C1475  C1575   1.451   .     S
C1476  N1548   1.420   .     S
C1476  N1545   1.378   .     A
C1476  C1674   1.452   1_455 S
C1477  N1549   1.416   .     S
C1477  N1545   1.380   .     A
C1477  C1671   1.451   1_455 S
C1478  N1551   1.378   .     A
C1478  N1550   1.420   .     S
C1478  C1574   1.452   .     S
C1479  O1565   1.319   .     A
C1479  C1481   1.453   .     S
C1479  O1563   1.315   .     A
C1480  O1566   1.313   .     A
C1480  C1483   1.457   .     S
C1480  O1564   1.319   .     A
C1481  C1488   1.390   .     A
C1481  C1486   1.395   .     A
C1482  O1560   1.304   .     A
C1482  O1562   1.310   .     A
C1483  C1489   1.400   .     A
C1483  C1487   1.412   .     A
C1484  C1501   1.444   .     S
C1484  C1486   1.390   .     A
C1484  C1492   1.403   .     A
C1485  C1502   1.444   .     S
C1485  C1494   1.403   .     A
C1485  C1487   1.406   .     A
C1486  C1500   1.446   .     S
C1487  C1499   1.451   .     S
C1488  H1526   1.072   .     S
C1488  C1490   1.400   .     A
C1489  C1491   1.392   .     A
C1489  H1515   1.083   .     S
C1490  C1492   1.412   .     A
C1490  C1495   1.409   .     A
C1491  C1496   1.400   .     A
C1491  C1494   1.389   .     A
C1492  C628    1.399   1_556 S
C1493  C1510   1.399   .     A
C1493  C1496   1.412   .     A
C1493  C1503   1.453   .     S
C1495  C1504   1.422   .     A
C1495  C614    1.419   1_556 S
C1497  H1516   1.111   .     S
C1497  N1552   1.446   .     S
C1497  H1543   1.106   .     S
C1497  H1740   1.106   1_455 S
C1498  H1519   1.110   .     S
C1498  N1553   1.451   .     S
C1498  H1518   1.108   .     S
C1498  H638    1.109   1_556 S
C1499  N1554   1.157   .     T
C1500  N1555   1.158   .     T
C1501  N1556   1.156   .     T
C1502  N1557   1.157   .     T
C1503  N1558   1.158   .     T
C1504  C1505   1.454   .     S
C1504  C1511   1.409   .     A
C1505  N1546   1.158   .     T
C1506  N1547   1.454   .     S
C1506  H1522   1.112   .     S
C1506  H1621   1.109   .     S
C1506  H1622   1.107   .     S
C1507  H1528   1.111   .     S
C1507  H1529   1.110   .     S
C1507  N1548   1.449   .     S
C1507  H1527   1.108   .     S
C1508  N1549   1.447   .     S
C1508  H1531   1.110   .     S
C1508  H1533   1.109   .     S
C1508  H1532   1.110   .     S
C1509  H1538   1.111   .     S
C1509  H1535   1.110   .     S
C1509  H1536   1.109   .     S
C1509  N1550   1.446   .     S
C1510  N1552   1.416   .     S
C1511  N1553   1.412   .     S
C1511  C612    1.400   1_556 S
C1512  H1537   1.080   .     S
C1512  C926    1.372   1_565 S
C1513  H1539   1.082   .     S
C1514  H1540   1.084   .     S
H1517  N1553   1.025   .     S
H1521  N1547   1.017   .     S
H1523  C1702   1.109   1_455 S
H1524  C1702   1.107   1_455 S
H1525  N1548   1.031   .     S
H1530  N1549   1.027   .     S
H1534  N1550   1.031   .     S
H1542  N1552   1.026   .     S
H1544  C1595   1.106   .     S
N1545  Zn1567  2.076   .     S
N1551  Zn1568  2.076   .     S
O1559  Zn1567  1.979   .     S
O1560  Zn1568  1.979   .     S
O1561  Zn1568  1.988   .     S
O1562  Zn1567  1.988   .     S
O1563  Zn1567  2.002   .     S
O1564  Zn1568  2.002   .     S
O1565  Zn1568  2.021   .     S
O1566  Zn1567  2.021   .     S
C1569  O1659   1.307   .     A
C1569  O1657   1.307   .     A
C1569  C1572   1.411   .     S
C1570  C1572   1.395   .     A
C1570  H1639   1.081   .     S
C1570  C1023   1.373   1_565 S
C1571  C1611   1.393   .     A
C1571  C1580   1.410   .     S
C1571  C1612   1.395   .     A
C1572  C1610   1.393   .     A
C1573  N1649   1.387   .     A
C1573  N1645   1.437   .     S
C1573  C1673   1.451   .     S
C1574  N1646   1.420   .     S
C1574  N1643   1.378   .     A
C1575  N1647   1.416   .     S
C1575  N1643   1.380   .     A
C1576  N1649   1.378   .     A
C1576  N1648   1.420   .     S
C1576  C1672   1.452   .     S
C1577  O1663   1.319   .     A
C1577  C1579   1.453   .     S
C1577  O1661   1.315   .     A
C1578  O1664   1.313   .     A
C1578  C1581   1.457   .     S
C1578  O1662   1.319   .     A
C1579  C1586   1.390   .     A
C1579  C1584   1.395   .     A
C1580  O1658   1.304   .     A
C1580  O1660   1.310   .     A
C1581  C1587   1.400   .     A
C1581  C1585   1.412   .     A
C1582  C1599   1.444   .     S
C1582  C1584   1.390   .     A
C1582  C1590   1.403   .     A
C1583  C1600   1.444   .     S
C1583  C1592   1.403   .     A
C1583  C1585   1.406   .     A
C1584  C1598   1.446   .     S
C1585  C1597   1.451   .     S
C1586  H1624   1.072   .     S
C1586  C1588   1.400   .     A
C1587  C1589   1.392   .     A
C1587  H1613   1.083   .     S
C1588  C1590   1.412   .     A
C1588  C1593   1.409   .     A
C1589  C1594   1.400   .     A
C1589  C1592   1.389   .     A
C1590  C726    1.399   1_556 S
C1591  C1608   1.399   .     A
C1591  C1594   1.412   .     A
C1591  C1601   1.453   .     S
C1593  C1602   1.422   .     A
C1593  C712    1.419   1_556 S
C1595  H1614   1.111   .     S
C1595  N1650   1.446   .     S
C1595  H1641   1.106   .     S
C1596  H1617   1.110   .     S
C1596  N1651   1.451   .     S
C1596  H1616   1.108   .     S
C1596  H736    1.109   1_556 S
C1597  N1652   1.157   .     T
C1598  N1653   1.158   .     T
C1599  N1654   1.156   .     T
C1600  N1655   1.157   .     T
C1601  N1656   1.158   .     T
C1602  C1603   1.454   .     S
C1602  C1609   1.409   .     A
C1603  N1644   1.158   .     T
C1604  N1645   1.454   .     S
C1604  H1620   1.112   .     S
C1604  H1719   1.109   .     S
C1604  H1720   1.107   .     S
C1605  H1626   1.111   .     S
C1605  H1627   1.110   .     S
C1605  N1646   1.449   .     S
C1605  H1625   1.108   .     S
C1606  N1647   1.447   .     S
C1606  H1629   1.110   .     S
C1606  H1631   1.109   .     S
C1606  H1630   1.110   .     S
C1607  H1636   1.111   .     S
C1607  H1633   1.110   .     S
C1607  H1634   1.109   .     S
C1607  N1648   1.446   .     S
C1608  N1650   1.416   .     S
C1609  N1651   1.412   .     S
C1609  C710    1.400   1_556 S
C1610  H1635   1.080   .     S
C1610  C1024   1.372   1_565 S
C1611  H1637   1.082   .     S
C1612  H1638   1.084   .     S
H1615  N1651   1.025   .     S
H1619  N1645   1.017   .     S
H1623  N1646   1.031   .     S
H1628  N1647   1.027   .     S
H1632  N1648   1.031   .     S
H1640  N1650   1.026   .     S
H1642  C1693   1.106   .     S
N1643  Zn1665  2.076   .     S
N1649  Zn1666  2.076   .     S
O1657  Zn1665  1.979   .     S
O1658  Zn1666  1.979   .     S
O1659  Zn1666  1.988   .     S
O1660  Zn1665  1.988   .     S
O1661  Zn1665  2.002   .     S
O1662  Zn1666  2.002   .     S
O1663  Zn1666  2.021   .     S
O1664  Zn1665  2.021   .     S
C1667  O1757   1.307   .     A
C1667  O1755   1.307   .     A
C1667  C1670   1.411   .     S
C1668  C1670   1.395   .     A
C1668  H1737   1.081   .     S
C1668  C1121   1.373   1_565 S
C1669  C1709   1.393   .     A
C1669  C1678   1.410   .     S
C1669  C1710   1.395   .     A
C1670  C1708   1.393   .     A
C1671  N1747   1.387   .     A
C1671  N1743   1.437   .     S
C1671  C1477   1.451   1_655 S
C1672  N1744   1.420   .     S
C1672  N1741   1.378   .     A
C1673  N1745   1.416   .     S
C1673  N1741   1.380   .     A
C1674  N1747   1.378   .     A
C1674  N1746   1.420   .     S
C1674  C1476   1.452   1_655 S
C1675  O1761   1.319   .     A
C1675  C1677   1.453   .     S
C1675  O1759   1.315   .     A
C1676  O1762   1.313   .     A
C1676  C1679   1.457   .     S
C1676  O1760   1.319   .     A
C1677  C1684   1.390   .     A
C1677  C1682   1.395   .     A
C1678  O1756   1.304   .     A
C1678  O1758   1.310   .     A
C1679  C1685   1.400   .     A
C1679  C1683   1.412   .     A
C1680  C1697   1.444   .     S
C1680  C1682   1.390   .     A
C1680  C1688   1.403   .     A
C1681  C1698   1.444   .     S
C1681  C1690   1.403   .     A
C1681  C1683   1.406   .     A
C1682  C1696   1.446   .     S
C1683  C1695   1.451   .     S
C1684  H1722   1.072   .     S
C1684  C1686   1.400   .     A
C1685  C1687   1.392   .     A
C1685  H1711   1.083   .     S
C1686  C1688   1.412   .     A
C1686  C1691   1.409   .     A
C1687  C1692   1.400   .     A
C1687  C1690   1.389   .     A
C1688  C824    1.399   1_556 S
C1689  C1706   1.399   .     A
C1689  C1692   1.412   .     A
C1689  C1699   1.453   .     S
C1691  C1700   1.422   .     A
C1691  C810    1.419   1_556 S
C1693  H1712   1.111   .     S
C1693  N1748   1.446   .     S
C1693  H1739   1.106   .     S
C1694  H1715   1.110   .     S
C1694  N1749   1.451   .     S
C1694  H1714   1.108   .     S
C1694  H834    1.109   1_556 S
C1695  N1750   1.157   .     T
C1696  N1751   1.158   .     T
C1697  N1752   1.156   .     T
C1698  N1753   1.157   .     T
C1699  N1754   1.158   .     T
C1700  C1701   1.454   .     S
C1700  C1707   1.409   .     A
C1701  N1742   1.158   .     T
C1702  N1743   1.454   .     S
C1702  H1718   1.112   .     S
C1702  H1523   1.109   1_655 S
C1702  H1524   1.107   1_655 S
C1703  H1724   1.111   .     S
C1703  H1725   1.110   .     S
C1703  N1744   1.449   .     S
C1703  H1723   1.108   .     S
C1704  N1745   1.447   .     S
C1704  H1727   1.110   .     S
C1704  H1729   1.109   .     S
C1704  H1728   1.110   .     S
C1705  H1734   1.111   .     S
C1705  H1731   1.110   .     S
C1705  H1732   1.109   .     S
C1705  N1746   1.446   .     S
C1706  N1748   1.416   .     S
C1707  N1749   1.412   .     S
C1707  C808    1.400   1_556 S
C1708  H1733   1.080   .     S
C1708  C1122   1.372   1_565 S
C1709  H1735   1.082   .     S
C1710  H1736   1.084   .     S
H1713  N1749   1.025   .     S
H1717  N1743   1.017   .     S
H1721  N1744   1.031   .     S
H1726  N1745   1.027   .     S
H1730  N1746   1.031   .     S
H1738  N1748   1.026   .     S
H1740  C1497   1.106   1_655 S
N1741  Zn1763  2.076   .     S
N1747  Zn1764  2.076   .     S
O1755  Zn1763  1.979   .     S
O1756  Zn1764  1.979   .     S
O1757  Zn1764  1.988   .     S
O1758  Zn1763  1.988   .     S
O1759  Zn1763  2.002   .     S
O1760  Zn1764  2.002   .     S
O1761  Zn1764  2.021   .     S
O1762  Zn1763  2.021   .     S
