data_str_m3_o1_o2_pcu_sym.40
_audit_creation_date              2020-01-03
_audit_creation_method            'Materials Studio'
_symmetry_space_group_name_H-M    'P1'
_symmetry_Int_Tables_number       1
_symmetry_cell_setting            triclinic
loop_
_symmetry_equiv_pos_as_xyz
  x,y,z
_cell_length_a                    32.1449
_cell_length_b                    29.6573
_cell_length_c                    30.0529
_cell_angle_alpha                 89.9998
_cell_angle_beta                  92.3197
_cell_angle_gamma                 90.0002
loop_
_atom_site_label
_atom_site_type_symbol
_atom_site_fract_x
_atom_site_fract_y
_atom_site_fract_z
_atom_site_U_iso_or_equiv
_atom_site_adp_type
_atom_site_occupancy
Br1    Br    0.22857   0.05543   0.32106   0.00000  Uiso   1.00
Br2    Br    0.10291   0.27813   0.18085   0.00000  Uiso   1.00
Br3    Br    0.10476   0.05543   0.17894   0.00000  Uiso   1.00
Br4    Br    0.23042   0.27813   0.31915   0.00000  Uiso   1.00
Br5    Br    0.04447   0.06898   0.27899   0.00000  Uiso   1.00
Br6    Br    0.28922   0.26386   0.22005   0.00000  Uiso   1.00
Br7    Br    0.28886   0.06898   0.22101   0.00000  Uiso   1.00
Br8    Br    0.04411   0.26386   0.27995   0.00000  Uiso   1.00
C9     C     0.08691   0.16665   0.25480   0.00000  Uiso   1.00
C10    C     0.31264   0.20782   0.24300   0.00000  Uiso   1.00
C11    C     0.31259   0.12524   0.24314   0.00000  Uiso   1.00
C12    C     0.02070   0.20782   0.25700   0.00000  Uiso   1.00
C13    C     0.15298   0.20386   0.04628   0.00000  Uiso   1.00
C14    C     0.15298   0.12741   0.45208   0.00000  Uiso   1.00
C15    C     0.18036   0.20388   0.45372   0.00000  Uiso   1.00
C16    C     0.18042   0.12742   0.04793   0.00000  Uiso   1.00
C17    C     0.15368   0.20448   0.09218   0.00000  Uiso   1.00
C18    C     0.15308   0.12771   0.40611   0.00000  Uiso   1.00
C19    C     0.17964   0.20449   0.40782   0.00000  Uiso   1.00
C20    C     0.24642   0.16665   0.24520   0.00000  Uiso   1.00
C21    C     0.18031   0.12772   0.09390   0.00000  Uiso   1.00
C22    C     0.16701   0.16633   0.11605   0.00000  Uiso   1.00
C23    C     0.16634   0.16633   0.38395   0.00000  Uiso   1.00
C24    C     0.16661   0.16547   0.02406   0.00000  Uiso   1.00
C25    C     0.16677   0.16547   0.47594   0.00000  Uiso   1.00
C26    C     0.29098   0.16656   0.24073   0.00000  Uiso   1.00
C27    C     0.04235   0.16656   0.25927   0.00000  Uiso   1.00
C28    C     0.16676   0.16662   0.16396   0.00000  Uiso   1.00
C29    C     0.16658   0.16662   0.33604   0.00000  Uiso   1.00
C30    C     0.19239   0.02396   0.27908   0.00000  Uiso   1.00
C31    C     0.14066   0.30942   0.22122   0.00000  Uiso   1.00
C32    C     0.14094   0.02396   0.22092   0.00000  Uiso   1.00
C33    C     0.19268   0.30942   0.27878   0.00000  Uiso   1.00
C34    C     0.02075   0.12524   0.25686   0.00000  Uiso   1.00
H35    H     0.14158   0.23324   0.02817   0.00000  Uiso   1.00
H36    H     0.14176   0.09777   0.46892   0.00000  Uiso   1.00
H37    H     0.19173   0.23327   0.47182   0.00000  Uiso   1.00
H38    H     0.19168   0.09780   0.03110   0.00000  Uiso   1.00
H39    H     0.14333   0.23451   0.10878   0.00000  Uiso   1.00
H40    H     0.14230   0.09808   0.38795   0.00000  Uiso   1.00
H41    H     0.18995   0.23454   0.39121   0.00000  Uiso   1.00
H42    H     0.19111   0.09811   0.11206   0.00000  Uiso   1.00
N43    N     0.16667   0.28573   0.25000   0.00000  Uiso   1.00
N44    N     0.16667   0.04760   0.25000   0.00000  Uiso   1.00
O45    O     0.10559   0.20487   0.24999   0.00000  Uiso   1.00
O46    O     0.22774   0.12846   0.25000   0.00000  Uiso   1.00
O47    O     0.22774   0.20487   0.25000   0.00000  Uiso   1.00
O48    O     0.10559   0.12846   0.24999   0.00000  Uiso   1.00
O49    O     0.16666   0.20489   0.18453   0.00000  Uiso   1.00
O50    O     0.16667   0.12845   0.31547   0.00000  Uiso   1.00
O51    O     0.16667   0.20489   0.31547   0.00000  Uiso   1.00
O52    O     0.16666   0.12845   0.18453   0.00000  Uiso   1.00
Zn53   Zn    0.16667   0.21771   0.25000   0.00000  Uiso   1.00
Zn54   Zn    0.16667   0.11563   0.25000   0.00000  Uiso   1.00
Br55   Br    0.56190   0.05543   0.32106   0.00000  Uiso   1.00
Br56   Br    0.43624   0.27813   0.18085   0.00000  Uiso   1.00
Br57   Br    0.43810   0.05543   0.17894   0.00000  Uiso   1.00
Br58   Br    0.56376   0.27813   0.31915   0.00000  Uiso   1.00
Br59   Br    0.37780   0.06898   0.27899   0.00000  Uiso   1.00
Br60   Br    0.62255   0.26386   0.22005   0.00000  Uiso   1.00
Br61   Br    0.62220   0.06898   0.22101   0.00000  Uiso   1.00
Br62   Br    0.37745   0.26386   0.27995   0.00000  Uiso   1.00
C63    C     0.42025   0.16665   0.25480   0.00000  Uiso   1.00
C64    C     0.64597   0.20782   0.24300   0.00000  Uiso   1.00
C65    C     0.64592   0.12524   0.24314   0.00000  Uiso   1.00
C66    C     0.35403   0.20782   0.25700   0.00000  Uiso   1.00
C67    C     0.48631   0.20386   0.04628   0.00000  Uiso   1.00
C68    C     0.48632   0.12741   0.45208   0.00000  Uiso   1.00
C69    C     0.51369   0.20388   0.45372   0.00000  Uiso   1.00
C70    C     0.51376   0.12742   0.04793   0.00000  Uiso   1.00
C71    C     0.48702   0.20448   0.09218   0.00000  Uiso   1.00
C72    C     0.48642   0.12771   0.40611   0.00000  Uiso   1.00
C73    C     0.51297   0.20449   0.40782   0.00000  Uiso   1.00
C74    C     0.57976   0.16665   0.24520   0.00000  Uiso   1.00
C75    C     0.51364   0.12772   0.09390   0.00000  Uiso   1.00
C76    C     0.50034   0.16633   0.11605   0.00000  Uiso   1.00
C77    C     0.49967   0.16633   0.38395   0.00000  Uiso   1.00
C78    C     0.49994   0.16547   0.02406   0.00000  Uiso   1.00
C79    C     0.50010   0.16547   0.47594   0.00000  Uiso   1.00
C80    C     0.62431   0.16656   0.24073   0.00000  Uiso   1.00
C81    C     0.37569   0.16656   0.25927   0.00000  Uiso   1.00
C82    C     0.50009   0.16662   0.16396   0.00000  Uiso   1.00
C83    C     0.49991   0.16662   0.33604   0.00000  Uiso   1.00
C84    C     0.52573   0.02396   0.27908   0.00000  Uiso   1.00
C85    C     0.47399   0.30942   0.22122   0.00000  Uiso   1.00
C86    C     0.47427   0.02396   0.22092   0.00000  Uiso   1.00
C87    C     0.52601   0.30942   0.27878   0.00000  Uiso   1.00
C88    C     0.35408   0.12524   0.25686   0.00000  Uiso   1.00
H89    H     0.47491   0.23324   0.02817   0.00000  Uiso   1.00
H90    H     0.47509   0.09777   0.46892   0.00000  Uiso   1.00
H91    H     0.52507   0.23327   0.47182   0.00000  Uiso   1.00
H92    H     0.52501   0.09780   0.03110   0.00000  Uiso   1.00
H93    H     0.47666   0.23451   0.10878   0.00000  Uiso   1.00
H94    H     0.47564   0.09808   0.38795   0.00000  Uiso   1.00
H95    H     0.52329   0.23454   0.39121   0.00000  Uiso   1.00
H96    H     0.52444   0.09811   0.11206   0.00000  Uiso   1.00
N97    N     0.50000   0.28573   0.25000   0.00000  Uiso   1.00
N98    N     0.50000   0.04760   0.25000   0.00000  Uiso   1.00
O99    O     0.43892   0.20487   0.24999   0.00000  Uiso   1.00
O100   O     0.56108   0.12846   0.25000   0.00000  Uiso   1.00
O101   O     0.56108   0.20487   0.25000   0.00000  Uiso   1.00
O102   O     0.43892   0.12846   0.24999   0.00000  Uiso   1.00
O103   O     0.50000   0.20489   0.18453   0.00000  Uiso   1.00
O104   O     0.50000   0.12845   0.31547   0.00000  Uiso   1.00
O105   O     0.50000   0.20489   0.31547   0.00000  Uiso   1.00
O106   O     0.50000   0.12845   0.18453   0.00000  Uiso   1.00
Zn107  Zn    0.50000   0.21771   0.25000   0.00000  Uiso   1.00
Zn108  Zn    0.50000   0.11563   0.25000   0.00000  Uiso   1.00
Br109  Br    0.89524   0.05543   0.32106   0.00000  Uiso   1.00
Br110  Br    0.76958   0.27813   0.18085   0.00000  Uiso   1.00
Br111  Br    0.77143   0.05543   0.17894   0.00000  Uiso   1.00
Br112  Br    0.89709   0.27813   0.31915   0.00000  Uiso   1.00
Br113  Br    0.71113   0.06898   0.27899   0.00000  Uiso   1.00
Br114  Br    0.95589   0.26386   0.22005   0.00000  Uiso   1.00
Br115  Br    0.95553   0.06898   0.22101   0.00000  Uiso   1.00
Br116  Br    0.71078   0.26386   0.27995   0.00000  Uiso   1.00
C117   C     0.75358   0.16665   0.25480   0.00000  Uiso   1.00
C118   C     0.97930   0.20782   0.24300   0.00000  Uiso   1.00
C119   C     0.97925   0.12524   0.24314   0.00000  Uiso   1.00
C120   C     0.68737   0.20782   0.25700   0.00000  Uiso   1.00
C121   C     0.81964   0.20386   0.04628   0.00000  Uiso   1.00
C122   C     0.81965   0.12741   0.45208   0.00000  Uiso   1.00
C123   C     0.84703   0.20388   0.45372   0.00000  Uiso   1.00
C124   C     0.84709   0.12742   0.04793   0.00000  Uiso   1.00
C125   C     0.82035   0.20448   0.09218   0.00000  Uiso   1.00
C126   C     0.81975   0.12771   0.40611   0.00000  Uiso   1.00
C127   C     0.84630   0.20449   0.40782   0.00000  Uiso   1.00
C128   C     0.91309   0.16665   0.24520   0.00000  Uiso   1.00
C129   C     0.84698   0.12772   0.09390   0.00000  Uiso   1.00
C130   C     0.83367   0.16633   0.11605   0.00000  Uiso   1.00
C131   C     0.83301   0.16633   0.38395   0.00000  Uiso   1.00
C132   C     0.83328   0.16547   0.02406   0.00000  Uiso   1.00
C133   C     0.83343   0.16547   0.47594   0.00000  Uiso   1.00
C134   C     0.95765   0.16656   0.24073   0.00000  Uiso   1.00
C135   C     0.70902   0.16656   0.25927   0.00000  Uiso   1.00
C136   C     0.83343   0.16662   0.16396   0.00000  Uiso   1.00
C137   C     0.83324   0.16662   0.33604   0.00000  Uiso   1.00
C138   C     0.85906   0.02396   0.27908   0.00000  Uiso   1.00
C139   C     0.80732   0.30942   0.22122   0.00000  Uiso   1.00
C140   C     0.80761   0.02396   0.22092   0.00000  Uiso   1.00
C141   C     0.85934   0.30942   0.27878   0.00000  Uiso   1.00
C142   C     0.68741   0.12524   0.25686   0.00000  Uiso   1.00
H143   H     0.80824   0.23324   0.02817   0.00000  Uiso   1.00
H144   H     0.80843   0.09777   0.46892   0.00000  Uiso   1.00
H145   H     0.85840   0.23327   0.47182   0.00000  Uiso   1.00
H146   H     0.85835   0.09780   0.03110   0.00000  Uiso   1.00
H147   H     0.81000   0.23451   0.10878   0.00000  Uiso   1.00
H148   H     0.80897   0.09808   0.38795   0.00000  Uiso   1.00
H149   H     0.85662   0.23454   0.39121   0.00000  Uiso   1.00
H150   H     0.85778   0.09811   0.11206   0.00000  Uiso   1.00
N151   N     0.83333   0.28573   0.25000   0.00000  Uiso   1.00
N152   N     0.83333   0.04760   0.25000   0.00000  Uiso   1.00
O153   O     0.77226   0.20487   0.24999   0.00000  Uiso   1.00
O154   O     0.89441   0.12846   0.25000   0.00000  Uiso   1.00
O155   O     0.89441   0.20487   0.25000   0.00000  Uiso   1.00
O156   O     0.77226   0.12846   0.24999   0.00000  Uiso   1.00
O157   O     0.83333   0.20489   0.18453   0.00000  Uiso   1.00
O158   O     0.83334   0.12845   0.31547   0.00000  Uiso   1.00
O159   O     0.83334   0.20489   0.31547   0.00000  Uiso   1.00
O160   O     0.83333   0.12845   0.18453   0.00000  Uiso   1.00
Zn161  Zn    0.83333   0.21771   0.25000   0.00000  Uiso   1.00
Zn162  Zn    0.83333   0.11563   0.25000   0.00000  Uiso   1.00
Br163  Br    0.22857   0.38876   0.32106   0.00000  Uiso   1.00
Br164  Br    0.10291   0.61147   0.18085   0.00000  Uiso   1.00
Br165  Br    0.10476   0.38876   0.17894   0.00000  Uiso   1.00
Br166  Br    0.23042   0.61147   0.31915   0.00000  Uiso   1.00
Br167  Br    0.04447   0.40232   0.27899   0.00000  Uiso   1.00
Br168  Br    0.28922   0.59720   0.22005   0.00000  Uiso   1.00
Br169  Br    0.28886   0.40232   0.22101   0.00000  Uiso   1.00
Br170  Br    0.04411   0.59719   0.27995   0.00000  Uiso   1.00
C171   C     0.08691   0.49998   0.25480   0.00000  Uiso   1.00
C172   C     0.31264   0.54116   0.24300   0.00000  Uiso   1.00
C173   C     0.31259   0.45857   0.24314   0.00000  Uiso   1.00
C174   C     0.02070   0.54116   0.25700   0.00000  Uiso   1.00
C175   C     0.15298   0.53720   0.04628   0.00000  Uiso   1.00
C176   C     0.15298   0.46074   0.45208   0.00000  Uiso   1.00
C177   C     0.18036   0.53721   0.45372   0.00000  Uiso   1.00
C178   C     0.18042   0.46076   0.04793   0.00000  Uiso   1.00
C179   C     0.15368   0.53781   0.09218   0.00000  Uiso   1.00
C180   C     0.15308   0.46104   0.40611   0.00000  Uiso   1.00
C181   C     0.17964   0.53783   0.40782   0.00000  Uiso   1.00
C182   C     0.24642   0.49998   0.24520   0.00000  Uiso   1.00
C183   C     0.18031   0.46106   0.09390   0.00000  Uiso   1.00
C184   C     0.16701   0.49966   0.11605   0.00000  Uiso   1.00
C185   C     0.16634   0.49966   0.38395   0.00000  Uiso   1.00
C186   C     0.16661   0.49880   0.02406   0.00000  Uiso   1.00
C187   C     0.16677   0.49880   0.47594   0.00000  Uiso   1.00
C188   C     0.29098   0.49990   0.24073   0.00000  Uiso   1.00
C189   C     0.04235   0.49990   0.25927   0.00000  Uiso   1.00
C190   C     0.16676   0.49996   0.16396   0.00000  Uiso   1.00
C191   C     0.16658   0.49996   0.33604   0.00000  Uiso   1.00
C192   C     0.19239   0.35730   0.27908   0.00000  Uiso   1.00
C193   C     0.14066   0.64276   0.22122   0.00000  Uiso   1.00
C194   C     0.14094   0.35730   0.22092   0.00000  Uiso   1.00
C195   C     0.19268   0.64276   0.27878   0.00000  Uiso   1.00
C196   C     0.02075   0.45857   0.25686   0.00000  Uiso   1.00
H197   H     0.14158   0.56658   0.02817   0.00000  Uiso   1.00
H198   H     0.14176   0.43111   0.46892   0.00000  Uiso   1.00
H199   H     0.19173   0.56660   0.47182   0.00000  Uiso   1.00
H200   H     0.19168   0.43114   0.03110   0.00000  Uiso   1.00
H201   H     0.14333   0.56784   0.10878   0.00000  Uiso   1.00
H202   H     0.14230   0.43142   0.38795   0.00000  Uiso   1.00
H203   H     0.18995   0.56787   0.39121   0.00000  Uiso   1.00
H204   H     0.19111   0.43145   0.11206   0.00000  Uiso   1.00
N205   N     0.16667   0.61907   0.25000   0.00000  Uiso   1.00
N206   N     0.16667   0.38093   0.25000   0.00000  Uiso   1.00
O207   O     0.10559   0.53821   0.24999   0.00000  Uiso   1.00
O208   O     0.22774   0.46179   0.25000   0.00000  Uiso   1.00
O209   O     0.22774   0.53821   0.25000   0.00000  Uiso   1.00
O210   O     0.10559   0.46179   0.24999   0.00000  Uiso   1.00
O211   O     0.16666   0.53822   0.18453   0.00000  Uiso   1.00
O212   O     0.16667   0.46178   0.31547   0.00000  Uiso   1.00
O213   O     0.16667   0.53822   0.31547   0.00000  Uiso   1.00
O214   O     0.16666   0.46178   0.18453   0.00000  Uiso   1.00
Zn215  Zn    0.16667   0.55104   0.25000   0.00000  Uiso   1.00
Zn216  Zn    0.16667   0.44896   0.25000   0.00000  Uiso   1.00
Br217  Br    0.56190   0.38876   0.32106   0.00000  Uiso   1.00
Br218  Br    0.43624   0.61147   0.18085   0.00000  Uiso   1.00
Br219  Br    0.43810   0.38876   0.17894   0.00000  Uiso   1.00
Br220  Br    0.56376   0.61147   0.31915   0.00000  Uiso   1.00
Br221  Br    0.37780   0.40232   0.27899   0.00000  Uiso   1.00
Br222  Br    0.62255   0.59720   0.22005   0.00000  Uiso   1.00
Br223  Br    0.62220   0.40232   0.22101   0.00000  Uiso   1.00
Br224  Br    0.37745   0.59719   0.27995   0.00000  Uiso   1.00
C225   C     0.42025   0.49998   0.25480   0.00000  Uiso   1.00
C226   C     0.64597   0.54116   0.24300   0.00000  Uiso   1.00
C227   C     0.64592   0.45857   0.24314   0.00000  Uiso   1.00
C228   C     0.35403   0.54116   0.25700   0.00000  Uiso   1.00
C229   C     0.48631   0.53720   0.04628   0.00000  Uiso   1.00
C230   C     0.48632   0.46074   0.45208   0.00000  Uiso   1.00
C231   C     0.51369   0.53721   0.45372   0.00000  Uiso   1.00
C232   C     0.51376   0.46076   0.04793   0.00000  Uiso   1.00
C233   C     0.48702   0.53781   0.09218   0.00000  Uiso   1.00
C234   C     0.48642   0.46104   0.40611   0.00000  Uiso   1.00
C235   C     0.51297   0.53783   0.40782   0.00000  Uiso   1.00
C236   C     0.57976   0.49998   0.24520   0.00000  Uiso   1.00
C237   C     0.51364   0.46106   0.09390   0.00000  Uiso   1.00
C238   C     0.50034   0.49966   0.11605   0.00000  Uiso   1.00
C239   C     0.49967   0.49966   0.38395   0.00000  Uiso   1.00
C240   C     0.49994   0.49880   0.02406   0.00000  Uiso   1.00
C241   C     0.50010   0.49880   0.47594   0.00000  Uiso   1.00
C242   C     0.62431   0.49990   0.24073   0.00000  Uiso   1.00
C243   C     0.37569   0.49990   0.25927   0.00000  Uiso   1.00
C244   C     0.50009   0.49996   0.16396   0.00000  Uiso   1.00
C245   C     0.49991   0.49996   0.33604   0.00000  Uiso   1.00
C246   C     0.52573   0.35730   0.27908   0.00000  Uiso   1.00
C247   C     0.47399   0.64276   0.22122   0.00000  Uiso   1.00
C248   C     0.47427   0.35730   0.22092   0.00000  Uiso   1.00
C249   C     0.52601   0.64276   0.27878   0.00000  Uiso   1.00
C250   C     0.35408   0.45857   0.25686   0.00000  Uiso   1.00
H251   H     0.47491   0.56658   0.02817   0.00000  Uiso   1.00
H252   H     0.47509   0.43111   0.46892   0.00000  Uiso   1.00
H253   H     0.52507   0.56660   0.47182   0.00000  Uiso   1.00
H254   H     0.52501   0.43114   0.03110   0.00000  Uiso   1.00
H255   H     0.47666   0.56784   0.10878   0.00000  Uiso   1.00
H256   H     0.47564   0.43142   0.38795   0.00000  Uiso   1.00
H257   H     0.52329   0.56787   0.39121   0.00000  Uiso   1.00
H258   H     0.52444   0.43145   0.11206   0.00000  Uiso   1.00
N259   N     0.50000   0.61907   0.25000   0.00000  Uiso   1.00
N260   N     0.50000   0.38093   0.25000   0.00000  Uiso   1.00
O261   O     0.43892   0.53821   0.24999   0.00000  Uiso   1.00
O262   O     0.56108   0.46179   0.25000   0.00000  Uiso   1.00
O263   O     0.56108   0.53821   0.25000   0.00000  Uiso   1.00
O264   O     0.43892   0.46179   0.24999   0.00000  Uiso   1.00
O265   O     0.50000   0.53822   0.18453   0.00000  Uiso   1.00
O266   O     0.50000   0.46178   0.31547   0.00000  Uiso   1.00
O267   O     0.50000   0.53822   0.31547   0.00000  Uiso   1.00
O268   O     0.50000   0.46178   0.18453   0.00000  Uiso   1.00
Zn269  Zn    0.50000   0.55104   0.25000   0.00000  Uiso   1.00
Zn270  Zn    0.50000   0.44896   0.25000   0.00000  Uiso   1.00
Br271  Br    0.89524   0.38876   0.32106   0.00000  Uiso   1.00
Br272  Br    0.76958   0.61147   0.18085   0.00000  Uiso   1.00
Br273  Br    0.77143   0.38876   0.17894   0.00000  Uiso   1.00
Br274  Br    0.89709   0.61147   0.31915   0.00000  Uiso   1.00
Br275  Br    0.71113   0.40232   0.27899   0.00000  Uiso   1.00
Br276  Br    0.95589   0.59720   0.22005   0.00000  Uiso   1.00
Br277  Br    0.95553   0.40232   0.22101   0.00000  Uiso   1.00
Br278  Br    0.71078   0.59719   0.27995   0.00000  Uiso   1.00
C279   C     0.75358   0.49998   0.25480   0.00000  Uiso   1.00
C280   C     0.97930   0.54116   0.24300   0.00000  Uiso   1.00
C281   C     0.97925   0.45857   0.24314   0.00000  Uiso   1.00
C282   C     0.68737   0.54116   0.25700   0.00000  Uiso   1.00
C283   C     0.81964   0.53720   0.04628   0.00000  Uiso   1.00
C284   C     0.81965   0.46074   0.45208   0.00000  Uiso   1.00
C285   C     0.84703   0.53721   0.45372   0.00000  Uiso   1.00
C286   C     0.84709   0.46076   0.04793   0.00000  Uiso   1.00
C287   C     0.82035   0.53781   0.09218   0.00000  Uiso   1.00
C288   C     0.81975   0.46104   0.40611   0.00000  Uiso   1.00
C289   C     0.84630   0.53783   0.40782   0.00000  Uiso   1.00
C290   C     0.91309   0.49998   0.24520   0.00000  Uiso   1.00
C291   C     0.84698   0.46106   0.09390   0.00000  Uiso   1.00
C292   C     0.83367   0.49966   0.11605   0.00000  Uiso   1.00
C293   C     0.83301   0.49966   0.38395   0.00000  Uiso   1.00
C294   C     0.83328   0.49880   0.02406   0.00000  Uiso   1.00
C295   C     0.83343   0.49880   0.47594   0.00000  Uiso   1.00
C296   C     0.95765   0.49990   0.24073   0.00000  Uiso   1.00
C297   C     0.70902   0.49990   0.25927   0.00000  Uiso   1.00
C298   C     0.83343   0.49996   0.16396   0.00000  Uiso   1.00
C299   C     0.83324   0.49996   0.33604   0.00000  Uiso   1.00
C300   C     0.85906   0.35730   0.27908   0.00000  Uiso   1.00
C301   C     0.80732   0.64276   0.22122   0.00000  Uiso   1.00
C302   C     0.80761   0.35730   0.22092   0.00000  Uiso   1.00
C303   C     0.85934   0.64276   0.27878   0.00000  Uiso   1.00
C304   C     0.68741   0.45857   0.25686   0.00000  Uiso   1.00
H305   H     0.80824   0.56658   0.02817   0.00000  Uiso   1.00
H306   H     0.80843   0.43111   0.46892   0.00000  Uiso   1.00
H307   H     0.85840   0.56660   0.47182   0.00000  Uiso   1.00
H308   H     0.85835   0.43114   0.03110   0.00000  Uiso   1.00
H309   H     0.81000   0.56784   0.10878   0.00000  Uiso   1.00
H310   H     0.80897   0.43142   0.38795   0.00000  Uiso   1.00
H311   H     0.85662   0.56787   0.39121   0.00000  Uiso   1.00
H312   H     0.85778   0.43145   0.11206   0.00000  Uiso   1.00
N313   N     0.83333   0.61907   0.25000   0.00000  Uiso   1.00
N314   N     0.83333   0.38093   0.25000   0.00000  Uiso   1.00
O315   O     0.77226   0.53821   0.24999   0.00000  Uiso   1.00
O316   O     0.89441   0.46179   0.25000   0.00000  Uiso   1.00
O317   O     0.89441   0.53821   0.25000   0.00000  Uiso   1.00
O318   O     0.77226   0.46179   0.24999   0.00000  Uiso   1.00
O319   O     0.83333   0.53822   0.18453   0.00000  Uiso   1.00
O320   O     0.83334   0.46178   0.31547   0.00000  Uiso   1.00
O321   O     0.83334   0.53822   0.31547   0.00000  Uiso   1.00
O322   O     0.83333   0.46178   0.18453   0.00000  Uiso   1.00
Zn323  Zn    0.83333   0.55104   0.25000   0.00000  Uiso   1.00
Zn324  Zn    0.83333   0.44896   0.25000   0.00000  Uiso   1.00
Br325  Br    0.22857   0.72210   0.32106   0.00000  Uiso   1.00
Br326  Br    0.10291   0.94480   0.18085   0.00000  Uiso   1.00
Br327  Br    0.10476   0.72210   0.17894   0.00000  Uiso   1.00
Br328  Br    0.23042   0.94480   0.31915   0.00000  Uiso   1.00
Br329  Br    0.04447   0.73565   0.27899   0.00000  Uiso   1.00
Br330  Br    0.28922   0.93053   0.22005   0.00000  Uiso   1.00
Br331  Br    0.28886   0.73565   0.22101   0.00000  Uiso   1.00
Br332  Br    0.04411   0.93053   0.27995   0.00000  Uiso   1.00
C333   C     0.08691   0.83332   0.25480   0.00000  Uiso   1.00
C334   C     0.31264   0.87449   0.24300   0.00000  Uiso   1.00
C335   C     0.31259   0.79191   0.24314   0.00000  Uiso   1.00
C336   C     0.02070   0.87449   0.25700   0.00000  Uiso   1.00
C337   C     0.15298   0.87053   0.04628   0.00000  Uiso   1.00
C338   C     0.15298   0.79407   0.45208   0.00000  Uiso   1.00
C339   C     0.18036   0.87054   0.45372   0.00000  Uiso   1.00
C340   C     0.18042   0.79409   0.04793   0.00000  Uiso   1.00
C341   C     0.15368   0.87114   0.09218   0.00000  Uiso   1.00
C342   C     0.15308   0.79437   0.40611   0.00000  Uiso   1.00
C343   C     0.17964   0.87116   0.40782   0.00000  Uiso   1.00
C344   C     0.24642   0.83332   0.24520   0.00000  Uiso   1.00
C345   C     0.18031   0.79439   0.09390   0.00000  Uiso   1.00
C346   C     0.16701   0.83300   0.11605   0.00000  Uiso   1.00
C347   C     0.16634   0.83300   0.38395   0.00000  Uiso   1.00
C348   C     0.16661   0.83214   0.02406   0.00000  Uiso   1.00
C349   C     0.16677   0.83214   0.47594   0.00000  Uiso   1.00
C350   C     0.29098   0.83323   0.24073   0.00000  Uiso   1.00
C351   C     0.04235   0.83323   0.25927   0.00000  Uiso   1.00
C352   C     0.16676   0.83329   0.16396   0.00000  Uiso   1.00
C353   C     0.16658   0.83329   0.33604   0.00000  Uiso   1.00
C354   C     0.19239   0.69063   0.27908   0.00000  Uiso   1.00
C355   C     0.14066   0.97609   0.22122   0.00000  Uiso   1.00
C356   C     0.14094   0.69063   0.22092   0.00000  Uiso   1.00
C357   C     0.19268   0.97609   0.27878   0.00000  Uiso   1.00
C358   C     0.02075   0.79191   0.25686   0.00000  Uiso   1.00
H359   H     0.14158   0.89991   0.02817   0.00000  Uiso   1.00
H360   H     0.14176   0.76444   0.46892   0.00000  Uiso   1.00
H361   H     0.19173   0.89994   0.47182   0.00000  Uiso   1.00
H362   H     0.19168   0.76447   0.03110   0.00000  Uiso   1.00
H363   H     0.14333   0.90118   0.10878   0.00000  Uiso   1.00
H364   H     0.14230   0.76475   0.38795   0.00000  Uiso   1.00
H365   H     0.18995   0.90120   0.39121   0.00000  Uiso   1.00
H366   H     0.19111   0.76478   0.11206   0.00000  Uiso   1.00
N367   N     0.16667   0.95240   0.25000   0.00000  Uiso   1.00
N368   N     0.16667   0.71427   0.25000   0.00000  Uiso   1.00
O369   O     0.10559   0.87154   0.24999   0.00000  Uiso   1.00
O370   O     0.22774   0.79513   0.25000   0.00000  Uiso   1.00
O371   O     0.22774   0.87154   0.25000   0.00000  Uiso   1.00
O372   O     0.10559   0.79513   0.24999   0.00000  Uiso   1.00
O373   O     0.16666   0.87155   0.18453   0.00000  Uiso   1.00
O374   O     0.16667   0.79511   0.31547   0.00000  Uiso   1.00
O375   O     0.16667   0.87155   0.31547   0.00000  Uiso   1.00
O376   O     0.16666   0.79511   0.18453   0.00000  Uiso   1.00
Zn377  Zn    0.16667   0.88437   0.25000   0.00000  Uiso   1.00
Zn378  Zn    0.16667   0.78229   0.25000   0.00000  Uiso   1.00
Br379  Br    0.56190   0.72210   0.32106   0.00000  Uiso   1.00
Br380  Br    0.43624   0.94480   0.18085   0.00000  Uiso   1.00
Br381  Br    0.43810   0.72210   0.17894   0.00000  Uiso   1.00
Br382  Br    0.56376   0.94480   0.31915   0.00000  Uiso   1.00
Br383  Br    0.37780   0.73565   0.27899   0.00000  Uiso   1.00
Br384  Br    0.62255   0.93053   0.22005   0.00000  Uiso   1.00
Br385  Br    0.62220   0.73565   0.22101   0.00000  Uiso   1.00
Br386  Br    0.37745   0.93053   0.27995   0.00000  Uiso   1.00
C387   C     0.42025   0.83332   0.25480   0.00000  Uiso   1.00
C388   C     0.64597   0.87449   0.24300   0.00000  Uiso   1.00
C389   C     0.64592   0.79191   0.24314   0.00000  Uiso   1.00
C390   C     0.35403   0.87449   0.25700   0.00000  Uiso   1.00
C391   C     0.48631   0.87053   0.04628   0.00000  Uiso   1.00
C392   C     0.48632   0.79407   0.45208   0.00000  Uiso   1.00
C393   C     0.51369   0.87054   0.45372   0.00000  Uiso   1.00
C394   C     0.51376   0.79409   0.04793   0.00000  Uiso   1.00
C395   C     0.48702   0.87114   0.09218   0.00000  Uiso   1.00
C396   C     0.48642   0.79437   0.40611   0.00000  Uiso   1.00
C397   C     0.51297   0.87116   0.40782   0.00000  Uiso   1.00
C398   C     0.57976   0.83332   0.24520   0.00000  Uiso   1.00
C399   C     0.51364   0.79439   0.09390   0.00000  Uiso   1.00
C400   C     0.50034   0.83300   0.11605   0.00000  Uiso   1.00
C401   C     0.49967   0.83300   0.38395   0.00000  Uiso   1.00
C402   C     0.49994   0.83214   0.02406   0.00000  Uiso   1.00
C403   C     0.50010   0.83214   0.47594   0.00000  Uiso   1.00
C404   C     0.62431   0.83323   0.24073   0.00000  Uiso   1.00
C405   C     0.37569   0.83323   0.25927   0.00000  Uiso   1.00
C406   C     0.50009   0.83329   0.16396   0.00000  Uiso   1.00
C407   C     0.49991   0.83329   0.33604   0.00000  Uiso   1.00
C408   C     0.52573   0.69063   0.27908   0.00000  Uiso   1.00
C409   C     0.47399   0.97609   0.22122   0.00000  Uiso   1.00
C410   C     0.47427   0.69063   0.22092   0.00000  Uiso   1.00
C411   C     0.52601   0.97609   0.27878   0.00000  Uiso   1.00
C412   C     0.35408   0.79191   0.25686   0.00000  Uiso   1.00
H413   H     0.47491   0.89991   0.02817   0.00000  Uiso   1.00
H414   H     0.47509   0.76444   0.46892   0.00000  Uiso   1.00
H415   H     0.52507   0.89994   0.47182   0.00000  Uiso   1.00
H416   H     0.52501   0.76447   0.03110   0.00000  Uiso   1.00
H417   H     0.47666   0.90118   0.10878   0.00000  Uiso   1.00
H418   H     0.47564   0.76475   0.38795   0.00000  Uiso   1.00
H419   H     0.52329   0.90120   0.39121   0.00000  Uiso   1.00
H420   H     0.52444   0.76478   0.11206   0.00000  Uiso   1.00
N421   N     0.50000   0.95240   0.25000   0.00000  Uiso   1.00
N422   N     0.50000   0.71427   0.25000   0.00000  Uiso   1.00
O423   O     0.43892   0.87154   0.24999   0.00000  Uiso   1.00
O424   O     0.56108   0.79513   0.25000   0.00000  Uiso   1.00
O425   O     0.56108   0.87154   0.25000   0.00000  Uiso   1.00
O426   O     0.43892   0.79513   0.24999   0.00000  Uiso   1.00
O427   O     0.50000   0.87155   0.18453   0.00000  Uiso   1.00
O428   O     0.50000   0.79511   0.31547   0.00000  Uiso   1.00
O429   O     0.50000   0.87155   0.31547   0.00000  Uiso   1.00
O430   O     0.50000   0.79511   0.18453   0.00000  Uiso   1.00
Zn431  Zn    0.50000   0.88437   0.25000   0.00000  Uiso   1.00
Zn432  Zn    0.50000   0.78229   0.25000   0.00000  Uiso   1.00
Br433  Br    0.89524   0.72210   0.32106   0.00000  Uiso   1.00
Br434  Br    0.76958   0.94480   0.18085   0.00000  Uiso   1.00
Br435  Br    0.77143   0.72210   0.17894   0.00000  Uiso   1.00
Br436  Br    0.89709   0.94480   0.31915   0.00000  Uiso   1.00
Br437  Br    0.71113   0.73565   0.27899   0.00000  Uiso   1.00
Br438  Br    0.95589   0.93053   0.22005   0.00000  Uiso   1.00
Br439  Br    0.95553   0.73565   0.22101   0.00000  Uiso   1.00
Br440  Br    0.71078   0.93053   0.27995   0.00000  Uiso   1.00
C441   C     0.75358   0.83332   0.25480   0.00000  Uiso   1.00
C442   C     0.97930   0.87449   0.24300   0.00000  Uiso   1.00
C443   C     0.97925   0.79191   0.24314   0.00000  Uiso   1.00
C444   C     0.68737   0.87449   0.25700   0.00000  Uiso   1.00
C445   C     0.81964   0.87053   0.04628   0.00000  Uiso   1.00
C446   C     0.81965   0.79407   0.45208   0.00000  Uiso   1.00
C447   C     0.84703   0.87054   0.45372   0.00000  Uiso   1.00
C448   C     0.84709   0.79409   0.04793   0.00000  Uiso   1.00
C449   C     0.82035   0.87114   0.09218   0.00000  Uiso   1.00
C450   C     0.81975   0.79437   0.40611   0.00000  Uiso   1.00
C451   C     0.84630   0.87116   0.40782   0.00000  Uiso   1.00
C452   C     0.91309   0.83332   0.24520   0.00000  Uiso   1.00
C453   C     0.84698   0.79439   0.09390   0.00000  Uiso   1.00
C454   C     0.83367   0.83300   0.11605   0.00000  Uiso   1.00
C455   C     0.83301   0.83300   0.38395   0.00000  Uiso   1.00
C456   C     0.83328   0.83214   0.02406   0.00000  Uiso   1.00
C457   C     0.83343   0.83214   0.47594   0.00000  Uiso   1.00
C458   C     0.95765   0.83323   0.24073   0.00000  Uiso   1.00
C459   C     0.70902   0.83323   0.25927   0.00000  Uiso   1.00
C460   C     0.83343   0.83329   0.16396   0.00000  Uiso   1.00
C461   C     0.83324   0.83329   0.33604   0.00000  Uiso   1.00
C462   C     0.85906   0.69063   0.27908   0.00000  Uiso   1.00
C463   C     0.80732   0.97609   0.22122   0.00000  Uiso   1.00
C464   C     0.80761   0.69063   0.22092   0.00000  Uiso   1.00
C465   C     0.85934   0.97609   0.27878   0.00000  Uiso   1.00
C466   C     0.68741   0.79191   0.25686   0.00000  Uiso   1.00
H467   H     0.80824   0.89991   0.02817   0.00000  Uiso   1.00
H468   H     0.80843   0.76444   0.46892   0.00000  Uiso   1.00
H469   H     0.85840   0.89994   0.47182   0.00000  Uiso   1.00
H470   H     0.85835   0.76447   0.03110   0.00000  Uiso   1.00
H471   H     0.81000   0.90118   0.10878   0.00000  Uiso   1.00
H472   H     0.80897   0.76475   0.38795   0.00000  Uiso   1.00
H473   H     0.85662   0.90120   0.39121   0.00000  Uiso   1.00
H474   H     0.85778   0.76478   0.11206   0.00000  Uiso   1.00
N475   N     0.83333   0.95240   0.25000   0.00000  Uiso   1.00
N476   N     0.83333   0.71427   0.25000   0.00000  Uiso   1.00
O477   O     0.77226   0.87154   0.24999   0.00000  Uiso   1.00
O478   O     0.89441   0.79513   0.25000   0.00000  Uiso   1.00
O479   O     0.89441   0.87154   0.25000   0.00000  Uiso   1.00
O480   O     0.77226   0.79513   0.24999   0.00000  Uiso   1.00
O481   O     0.83333   0.87155   0.18453   0.00000  Uiso   1.00
O482   O     0.83334   0.79511   0.31547   0.00000  Uiso   1.00
O483   O     0.83334   0.87155   0.31547   0.00000  Uiso   1.00
O484   O     0.83333   0.79511   0.18453   0.00000  Uiso   1.00
Zn485  Zn    0.83333   0.88437   0.25000   0.00000  Uiso   1.00
Zn486  Zn    0.83333   0.78229   0.25000   0.00000  Uiso   1.00
Br487  Br    0.22857   0.05543   0.82106   0.00000  Uiso   1.00
Br488  Br    0.10291   0.27813   0.68085   0.00000  Uiso   1.00
Br489  Br    0.10476   0.05543   0.67894   0.00000  Uiso   1.00
Br490  Br    0.23042   0.27813   0.81915   0.00000  Uiso   1.00
Br491  Br    0.04447   0.06898   0.77899   0.00000  Uiso   1.00
Br492  Br    0.28922   0.26386   0.72005   0.00000  Uiso   1.00
Br493  Br    0.28886   0.06898   0.72101   0.00000  Uiso   1.00
Br494  Br    0.04411   0.26386   0.77995   0.00000  Uiso   1.00
C495   C     0.08691   0.16665   0.75480   0.00000  Uiso   1.00
C496   C     0.31264   0.20782   0.74300   0.00000  Uiso   1.00
C497   C     0.31259   0.12524   0.74314   0.00000  Uiso   1.00
C498   C     0.02070   0.20782   0.75700   0.00000  Uiso   1.00
C499   C     0.15298   0.20386   0.54628   0.00000  Uiso   1.00
C500   C     0.15298   0.12741   0.95208   0.00000  Uiso   1.00
C501   C     0.18036   0.20388   0.95372   0.00000  Uiso   1.00
C502   C     0.18042   0.12742   0.54793   0.00000  Uiso   1.00
C503   C     0.15368   0.20448   0.59218   0.00000  Uiso   1.00
C504   C     0.15308   0.12771   0.90611   0.00000  Uiso   1.00
C505   C     0.17964   0.20449   0.90782   0.00000  Uiso   1.00
C506   C     0.24642   0.16665   0.74520   0.00000  Uiso   1.00
C507   C     0.18031   0.12772   0.59390   0.00000  Uiso   1.00
C508   C     0.16701   0.16633   0.61605   0.00000  Uiso   1.00
C509   C     0.16634   0.16633   0.88395   0.00000  Uiso   1.00
C510   C     0.16661   0.16547   0.52406   0.00000  Uiso   1.00
C511   C     0.16677   0.16547   0.97594   0.00000  Uiso   1.00
C512   C     0.29098   0.16656   0.74073   0.00000  Uiso   1.00
C513   C     0.04235   0.16656   0.75927   0.00000  Uiso   1.00
C514   C     0.16676   0.16662   0.66396   0.00000  Uiso   1.00
C515   C     0.16658   0.16662   0.83604   0.00000  Uiso   1.00
C516   C     0.19239   0.02396   0.77908   0.00000  Uiso   1.00
C517   C     0.14066   0.30942   0.72122   0.00000  Uiso   1.00
C518   C     0.14094   0.02396   0.72092   0.00000  Uiso   1.00
C519   C     0.19268   0.30942   0.77878   0.00000  Uiso   1.00
C520   C     0.02075   0.12524   0.75686   0.00000  Uiso   1.00
H521   H     0.14158   0.23324   0.52817   0.00000  Uiso   1.00
H522   H     0.14176   0.09777   0.96892   0.00000  Uiso   1.00
H523   H     0.19173   0.23327   0.97182   0.00000  Uiso   1.00
H524   H     0.19168   0.09780   0.53110   0.00000  Uiso   1.00
H525   H     0.14333   0.23451   0.60878   0.00000  Uiso   1.00
H526   H     0.14230   0.09808   0.88795   0.00000  Uiso   1.00
H527   H     0.18995   0.23454   0.89121   0.00000  Uiso   1.00
H528   H     0.19111   0.09811   0.61206   0.00000  Uiso   1.00
N529   N     0.16667   0.28573   0.75000   0.00000  Uiso   1.00
N530   N     0.16667   0.04760   0.75000   0.00000  Uiso   1.00
O531   O     0.10559   0.20487   0.74999   0.00000  Uiso   1.00
O532   O     0.22774   0.12846   0.75000   0.00000  Uiso   1.00
O533   O     0.22774   0.20487   0.75000   0.00000  Uiso   1.00
O534   O     0.10559   0.12846   0.74999   0.00000  Uiso   1.00
O535   O     0.16666   0.20489   0.68453   0.00000  Uiso   1.00
O536   O     0.16667   0.12845   0.81547   0.00000  Uiso   1.00
O537   O     0.16667   0.20489   0.81547   0.00000  Uiso   1.00
O538   O     0.16666   0.12845   0.68453   0.00000  Uiso   1.00
Zn539  Zn    0.16667   0.21771   0.75000   0.00000  Uiso   1.00
Zn540  Zn    0.16667   0.11563   0.75000   0.00000  Uiso   1.00
Br541  Br    0.56190   0.05543   0.82106   0.00000  Uiso   1.00
Br542  Br    0.43624   0.27813   0.68085   0.00000  Uiso   1.00
Br543  Br    0.43810   0.05543   0.67894   0.00000  Uiso   1.00
Br544  Br    0.56376   0.27813   0.81915   0.00000  Uiso   1.00
Br545  Br    0.37780   0.06898   0.77899   0.00000  Uiso   1.00
Br546  Br    0.62255   0.26386   0.72005   0.00000  Uiso   1.00
Br547  Br    0.62220   0.06898   0.72101   0.00000  Uiso   1.00
Br548  Br    0.37745   0.26386   0.77995   0.00000  Uiso   1.00
C549   C     0.42025   0.16665   0.75480   0.00000  Uiso   1.00
C550   C     0.64597   0.20782   0.74300   0.00000  Uiso   1.00
C551   C     0.64592   0.12524   0.74314   0.00000  Uiso   1.00
C552   C     0.35403   0.20782   0.75700   0.00000  Uiso   1.00
C553   C     0.48631   0.20386   0.54628   0.00000  Uiso   1.00
C554   C     0.48632   0.12741   0.95208   0.00000  Uiso   1.00
C555   C     0.51369   0.20388   0.95372   0.00000  Uiso   1.00
C556   C     0.51376   0.12742   0.54793   0.00000  Uiso   1.00
C557   C     0.48702   0.20448   0.59218   0.00000  Uiso   1.00
C558   C     0.48642   0.12771   0.90611   0.00000  Uiso   1.00
C559   C     0.51297   0.20449   0.90782   0.00000  Uiso   1.00
C560   C     0.57976   0.16665   0.74520   0.00000  Uiso   1.00
C561   C     0.51364   0.12772   0.59390   0.00000  Uiso   1.00
C562   C     0.50034   0.16633   0.61605   0.00000  Uiso   1.00
C563   C     0.49967   0.16633   0.88395   0.00000  Uiso   1.00
C564   C     0.49994   0.16547   0.52406   0.00000  Uiso   1.00
C565   C     0.50010   0.16547   0.97594   0.00000  Uiso   1.00
C566   C     0.62431   0.16656   0.74073   0.00000  Uiso   1.00
C567   C     0.37569   0.16656   0.75927   0.00000  Uiso   1.00
C568   C     0.50009   0.16662   0.66396   0.00000  Uiso   1.00
C569   C     0.49991   0.16662   0.83604   0.00000  Uiso   1.00
C570   C     0.52573   0.02396   0.77908   0.00000  Uiso   1.00
C571   C     0.47399   0.30942   0.72122   0.00000  Uiso   1.00
C572   C     0.47427   0.02396   0.72092   0.00000  Uiso   1.00
C573   C     0.52601   0.30942   0.77878   0.00000  Uiso   1.00
C574   C     0.35408   0.12524   0.75686   0.00000  Uiso   1.00
H575   H     0.47491   0.23324   0.52817   0.00000  Uiso   1.00
H576   H     0.47509   0.09777   0.96892   0.00000  Uiso   1.00
H577   H     0.52507   0.23327   0.97182   0.00000  Uiso   1.00
H578   H     0.52501   0.09780   0.53110   0.00000  Uiso   1.00
H579   H     0.47666   0.23451   0.60878   0.00000  Uiso   1.00
H580   H     0.47564   0.09808   0.88795   0.00000  Uiso   1.00
H581   H     0.52329   0.23454   0.89121   0.00000  Uiso   1.00
H582   H     0.52444   0.09811   0.61206   0.00000  Uiso   1.00
N583   N     0.50000   0.28573   0.75000   0.00000  Uiso   1.00
N584   N     0.50000   0.04760   0.75000   0.00000  Uiso   1.00
O585   O     0.43892   0.20487   0.74999   0.00000  Uiso   1.00
O586   O     0.56108   0.12846   0.75000   0.00000  Uiso   1.00
O587   O     0.56108   0.20487   0.75000   0.00000  Uiso   1.00
O588   O     0.43892   0.12846   0.74999   0.00000  Uiso   1.00
O589   O     0.50000   0.20489   0.68453   0.00000  Uiso   1.00
O590   O     0.50000   0.12845   0.81547   0.00000  Uiso   1.00
O591   O     0.50000   0.20489   0.81547   0.00000  Uiso   1.00
O592   O     0.50000   0.12845   0.68453   0.00000  Uiso   1.00
Zn593  Zn    0.50000   0.21771   0.75000   0.00000  Uiso   1.00
Zn594  Zn    0.50000   0.11563   0.75000   0.00000  Uiso   1.00
Br595  Br    0.89524   0.05543   0.82106   0.00000  Uiso   1.00
Br596  Br    0.76958   0.27813   0.68085   0.00000  Uiso   1.00
Br597  Br    0.77143   0.05543   0.67894   0.00000  Uiso   1.00
Br598  Br    0.89709   0.27813   0.81915   0.00000  Uiso   1.00
Br599  Br    0.71113   0.06898   0.77899   0.00000  Uiso   1.00
Br600  Br    0.95589   0.26386   0.72005   0.00000  Uiso   1.00
Br601  Br    0.95553   0.06898   0.72101   0.00000  Uiso   1.00
Br602  Br    0.71078   0.26386   0.77995   0.00000  Uiso   1.00
C603   C     0.75358   0.16665   0.75480   0.00000  Uiso   1.00
C604   C     0.97930   0.20782   0.74300   0.00000  Uiso   1.00
C605   C     0.97925   0.12524   0.74314   0.00000  Uiso   1.00
C606   C     0.68737   0.20782   0.75700   0.00000  Uiso   1.00
C607   C     0.81964   0.20386   0.54628   0.00000  Uiso   1.00
C608   C     0.81965   0.12741   0.95208   0.00000  Uiso   1.00
C609   C     0.84703   0.20388   0.95372   0.00000  Uiso   1.00
C610   C     0.84709   0.12742   0.54793   0.00000  Uiso   1.00
C611   C     0.82035   0.20448   0.59218   0.00000  Uiso   1.00
C612   C     0.81975   0.12771   0.90611   0.00000  Uiso   1.00
C613   C     0.84630   0.20449   0.90782   0.00000  Uiso   1.00
C614   C     0.91309   0.16665   0.74520   0.00000  Uiso   1.00
C615   C     0.84698   0.12772   0.59390   0.00000  Uiso   1.00
C616   C     0.83367   0.16633   0.61605   0.00000  Uiso   1.00
C617   C     0.83301   0.16633   0.88395   0.00000  Uiso   1.00
C618   C     0.83328   0.16547   0.52406   0.00000  Uiso   1.00
C619   C     0.83343   0.16547   0.97594   0.00000  Uiso   1.00
C620   C     0.95765   0.16656   0.74073   0.00000  Uiso   1.00
C621   C     0.70902   0.16656   0.75927   0.00000  Uiso   1.00
C622   C     0.83343   0.16662   0.66396   0.00000  Uiso   1.00
C623   C     0.83324   0.16662   0.83604   0.00000  Uiso   1.00
C624   C     0.85906   0.02396   0.77908   0.00000  Uiso   1.00
C625   C     0.80732   0.30942   0.72122   0.00000  Uiso   1.00
C626   C     0.80761   0.02396   0.72092   0.00000  Uiso   1.00
C627   C     0.85934   0.30942   0.77878   0.00000  Uiso   1.00
C628   C     0.68741   0.12524   0.75686   0.00000  Uiso   1.00
H629   H     0.80824   0.23324   0.52817   0.00000  Uiso   1.00
H630   H     0.80843   0.09777   0.96892   0.00000  Uiso   1.00
H631   H     0.85840   0.23327   0.97182   0.00000  Uiso   1.00
H632   H     0.85835   0.09780   0.53110   0.00000  Uiso   1.00
H633   H     0.81000   0.23451   0.60878   0.00000  Uiso   1.00
H634   H     0.80897   0.09808   0.88795   0.00000  Uiso   1.00
H635   H     0.85662   0.23454   0.89121   0.00000  Uiso   1.00
H636   H     0.85778   0.09811   0.61206   0.00000  Uiso   1.00
N637   N     0.83333   0.28573   0.75000   0.00000  Uiso   1.00
N638   N     0.83333   0.04760   0.75000   0.00000  Uiso   1.00
O639   O     0.77226   0.20487   0.74999   0.00000  Uiso   1.00
O640   O     0.89441   0.12846   0.75000   0.00000  Uiso   1.00
O641   O     0.89441   0.20487   0.75000   0.00000  Uiso   1.00
O642   O     0.77226   0.12846   0.74999   0.00000  Uiso   1.00
O643   O     0.83333   0.20489   0.68453   0.00000  Uiso   1.00
O644   O     0.83334   0.12845   0.81547   0.00000  Uiso   1.00
O645   O     0.83334   0.20489   0.81547   0.00000  Uiso   1.00
O646   O     0.83333   0.12845   0.68453   0.00000  Uiso   1.00
Zn647  Zn    0.83333   0.21771   0.75000   0.00000  Uiso   1.00
Zn648  Zn    0.83333   0.11563   0.75000   0.00000  Uiso   1.00
Br649  Br    0.22857   0.38876   0.82106   0.00000  Uiso   1.00
Br650  Br    0.10291   0.61147   0.68085   0.00000  Uiso   1.00
Br651  Br    0.10476   0.38876   0.67894   0.00000  Uiso   1.00
Br652  Br    0.23042   0.61147   0.81915   0.00000  Uiso   1.00
Br653  Br    0.04447   0.40232   0.77899   0.00000  Uiso   1.00
Br654  Br    0.28922   0.59720   0.72005   0.00000  Uiso   1.00
Br655  Br    0.28886   0.40232   0.72101   0.00000  Uiso   1.00
Br656  Br    0.04411   0.59719   0.77995   0.00000  Uiso   1.00
C657   C     0.08691   0.49998   0.75480   0.00000  Uiso   1.00
C658   C     0.31264   0.54116   0.74300   0.00000  Uiso   1.00
C659   C     0.31259   0.45857   0.74314   0.00000  Uiso   1.00
C660   C     0.02070   0.54116   0.75700   0.00000  Uiso   1.00
C661   C     0.15298   0.53720   0.54628   0.00000  Uiso   1.00
C662   C     0.15298   0.46074   0.95208   0.00000  Uiso   1.00
C663   C     0.18036   0.53721   0.95372   0.00000  Uiso   1.00
C664   C     0.18042   0.46076   0.54793   0.00000  Uiso   1.00
C665   C     0.15368   0.53781   0.59218   0.00000  Uiso   1.00
C666   C     0.15308   0.46104   0.90611   0.00000  Uiso   1.00
C667   C     0.17964   0.53783   0.90782   0.00000  Uiso   1.00
C668   C     0.24642   0.49998   0.74520   0.00000  Uiso   1.00
C669   C     0.18031   0.46106   0.59390   0.00000  Uiso   1.00
C670   C     0.16701   0.49966   0.61605   0.00000  Uiso   1.00
C671   C     0.16634   0.49966   0.88395   0.00000  Uiso   1.00
C672   C     0.16661   0.49880   0.52406   0.00000  Uiso   1.00
C673   C     0.16677   0.49880   0.97594   0.00000  Uiso   1.00
C674   C     0.29098   0.49990   0.74073   0.00000  Uiso   1.00
C675   C     0.04235   0.49990   0.75927   0.00000  Uiso   1.00
C676   C     0.16676   0.49996   0.66396   0.00000  Uiso   1.00
C677   C     0.16658   0.49996   0.83604   0.00000  Uiso   1.00
C678   C     0.19239   0.35730   0.77908   0.00000  Uiso   1.00
C679   C     0.14066   0.64276   0.72122   0.00000  Uiso   1.00
C680   C     0.14094   0.35730   0.72092   0.00000  Uiso   1.00
C681   C     0.19268   0.64276   0.77878   0.00000  Uiso   1.00
C682   C     0.02075   0.45857   0.75686   0.00000  Uiso   1.00
H683   H     0.14158   0.56658   0.52817   0.00000  Uiso   1.00
H684   H     0.14176   0.43111   0.96892   0.00000  Uiso   1.00
H685   H     0.19173   0.56660   0.97182   0.00000  Uiso   1.00
H686   H     0.19168   0.43114   0.53110   0.00000  Uiso   1.00
H687   H     0.14333   0.56784   0.60878   0.00000  Uiso   1.00
H688   H     0.14230   0.43142   0.88795   0.00000  Uiso   1.00
H689   H     0.18995   0.56787   0.89121   0.00000  Uiso   1.00
H690   H     0.19111   0.43145   0.61206   0.00000  Uiso   1.00
N691   N     0.16667   0.61907   0.75000   0.00000  Uiso   1.00
N692   N     0.16667   0.38093   0.75000   0.00000  Uiso   1.00
O693   O     0.10559   0.53821   0.74999   0.00000  Uiso   1.00
O694   O     0.22774   0.46179   0.75000   0.00000  Uiso   1.00
O695   O     0.22774   0.53821   0.75000   0.00000  Uiso   1.00
O696   O     0.10559   0.46179   0.74999   0.00000  Uiso   1.00
O697   O     0.16666   0.53822   0.68453   0.00000  Uiso   1.00
O698   O     0.16667   0.46178   0.81547   0.00000  Uiso   1.00
O699   O     0.16667   0.53822   0.81547   0.00000  Uiso   1.00
O700   O     0.16666   0.46178   0.68453   0.00000  Uiso   1.00
Zn701  Zn    0.16667   0.55104   0.75000   0.00000  Uiso   1.00
Zn702  Zn    0.16667   0.44896   0.75000   0.00000  Uiso   1.00
Br703  Br    0.56190   0.38876   0.82106   0.00000  Uiso   1.00
Br704  Br    0.43624   0.61147   0.68085   0.00000  Uiso   1.00
Br705  Br    0.43810   0.38876   0.67894   0.00000  Uiso   1.00
Br706  Br    0.56376   0.61147   0.81915   0.00000  Uiso   1.00
Br707  Br    0.37780   0.40232   0.77899   0.00000  Uiso   1.00
Br708  Br    0.62255   0.59720   0.72005   0.00000  Uiso   1.00
Br709  Br    0.62220   0.40232   0.72101   0.00000  Uiso   1.00
Br710  Br    0.37745   0.59719   0.77995   0.00000  Uiso   1.00
C711   C     0.42025   0.49998   0.75480   0.00000  Uiso   1.00
C712   C     0.64597   0.54116   0.74300   0.00000  Uiso   1.00
C713   C     0.64592   0.45857   0.74314   0.00000  Uiso   1.00
C714   C     0.35403   0.54116   0.75700   0.00000  Uiso   1.00
C715   C     0.48631   0.53720   0.54628   0.00000  Uiso   1.00
C716   C     0.48632   0.46074   0.95208   0.00000  Uiso   1.00
C717   C     0.51369   0.53721   0.95372   0.00000  Uiso   1.00
C718   C     0.51376   0.46076   0.54793   0.00000  Uiso   1.00
C719   C     0.48702   0.53781   0.59218   0.00000  Uiso   1.00
C720   C     0.48642   0.46104   0.90611   0.00000  Uiso   1.00
C721   C     0.51297   0.53783   0.90782   0.00000  Uiso   1.00
C722   C     0.57976   0.49998   0.74520   0.00000  Uiso   1.00
C723   C     0.51364   0.46106   0.59390   0.00000  Uiso   1.00
C724   C     0.50034   0.49966   0.61605   0.00000  Uiso   1.00
C725   C     0.49967   0.49966   0.88395   0.00000  Uiso   1.00
C726   C     0.49994   0.49880   0.52406   0.00000  Uiso   1.00
C727   C     0.50010   0.49880   0.97594   0.00000  Uiso   1.00
C728   C     0.62431   0.49990   0.74073   0.00000  Uiso   1.00
C729   C     0.37569   0.49990   0.75927   0.00000  Uiso   1.00
C730   C     0.50009   0.49996   0.66396   0.00000  Uiso   1.00
C731   C     0.49991   0.49996   0.83604   0.00000  Uiso   1.00
C732   C     0.52573   0.35730   0.77908   0.00000  Uiso   1.00
C733   C     0.47399   0.64276   0.72122   0.00000  Uiso   1.00
C734   C     0.47427   0.35730   0.72092   0.00000  Uiso   1.00
C735   C     0.52601   0.64276   0.77878   0.00000  Uiso   1.00
C736   C     0.35408   0.45857   0.75686   0.00000  Uiso   1.00
H737   H     0.47491   0.56658   0.52817   0.00000  Uiso   1.00
H738   H     0.47509   0.43111   0.96892   0.00000  Uiso   1.00
H739   H     0.52507   0.56660   0.97182   0.00000  Uiso   1.00
H740   H     0.52501   0.43114   0.53110   0.00000  Uiso   1.00
H741   H     0.47666   0.56784   0.60878   0.00000  Uiso   1.00
H742   H     0.47564   0.43142   0.88795   0.00000  Uiso   1.00
H743   H     0.52329   0.56787   0.89121   0.00000  Uiso   1.00
H744   H     0.52444   0.43145   0.61206   0.00000  Uiso   1.00
N745   N     0.50000   0.61907   0.75000   0.00000  Uiso   1.00
N746   N     0.50000   0.38093   0.75000   0.00000  Uiso   1.00
O747   O     0.43892   0.53821   0.74999   0.00000  Uiso   1.00
O748   O     0.56108   0.46179   0.75000   0.00000  Uiso   1.00
O749   O     0.56108   0.53821   0.75000   0.00000  Uiso   1.00
O750   O     0.43892   0.46179   0.74999   0.00000  Uiso   1.00
O751   O     0.50000   0.53822   0.68453   0.00000  Uiso   1.00
O752   O     0.50000   0.46178   0.81547   0.00000  Uiso   1.00
O753   O     0.50000   0.53822   0.81547   0.00000  Uiso   1.00
O754   O     0.50000   0.46178   0.68453   0.00000  Uiso   1.00
Zn755  Zn    0.50000   0.55104   0.75000   0.00000  Uiso   1.00
Zn756  Zn    0.50000   0.44896   0.75000   0.00000  Uiso   1.00
Br757  Br    0.89524   0.38876   0.82106   0.00000  Uiso   1.00
Br758  Br    0.76958   0.61147   0.68085   0.00000  Uiso   1.00
Br759  Br    0.77143   0.38876   0.67894   0.00000  Uiso   1.00
Br760  Br    0.89709   0.61147   0.81915   0.00000  Uiso   1.00
Br761  Br    0.71113   0.40232   0.77899   0.00000  Uiso   1.00
Br762  Br    0.95589   0.59720   0.72005   0.00000  Uiso   1.00
Br763  Br    0.95553   0.40232   0.72101   0.00000  Uiso   1.00
Br764  Br    0.71078   0.59719   0.77995   0.00000  Uiso   1.00
C765   C     0.75358   0.49998   0.75480   0.00000  Uiso   1.00
C766   C     0.97930   0.54116   0.74300   0.00000  Uiso   1.00
C767   C     0.97925   0.45857   0.74314   0.00000  Uiso   1.00
C768   C     0.68737   0.54116   0.75700   0.00000  Uiso   1.00
C769   C     0.81964   0.53720   0.54628   0.00000  Uiso   1.00
C770   C     0.81965   0.46074   0.95208   0.00000  Uiso   1.00
C771   C     0.84703   0.53721   0.95372   0.00000  Uiso   1.00
C772   C     0.84709   0.46076   0.54793   0.00000  Uiso   1.00
C773   C     0.82035   0.53781   0.59218   0.00000  Uiso   1.00
C774   C     0.81975   0.46104   0.90611   0.00000  Uiso   1.00
C775   C     0.84630   0.53783   0.90782   0.00000  Uiso   1.00
C776   C     0.91309   0.49998   0.74520   0.00000  Uiso   1.00
C777   C     0.84698   0.46106   0.59390   0.00000  Uiso   1.00
C778   C     0.83367   0.49966   0.61605   0.00000  Uiso   1.00
C779   C     0.83301   0.49966   0.88395   0.00000  Uiso   1.00
C780   C     0.83328   0.49880   0.52406   0.00000  Uiso   1.00
C781   C     0.83343   0.49880   0.97594   0.00000  Uiso   1.00
C782   C     0.95765   0.49990   0.74073   0.00000  Uiso   1.00
C783   C     0.70902   0.49990   0.75927   0.00000  Uiso   1.00
C784   C     0.83343   0.49996   0.66396   0.00000  Uiso   1.00
C785   C     0.83324   0.49996   0.83604   0.00000  Uiso   1.00
C786   C     0.85906   0.35730   0.77908   0.00000  Uiso   1.00
C787   C     0.80732   0.64276   0.72122   0.00000  Uiso   1.00
C788   C     0.80761   0.35730   0.72092   0.00000  Uiso   1.00
C789   C     0.85934   0.64276   0.77878   0.00000  Uiso   1.00
C790   C     0.68741   0.45857   0.75686   0.00000  Uiso   1.00
H791   H     0.80824   0.56658   0.52817   0.00000  Uiso   1.00
H792   H     0.80843   0.43111   0.96892   0.00000  Uiso   1.00
H793   H     0.85840   0.56660   0.97182   0.00000  Uiso   1.00
H794   H     0.85835   0.43114   0.53110   0.00000  Uiso   1.00
H795   H     0.81000   0.56784   0.60878   0.00000  Uiso   1.00
H796   H     0.80897   0.43142   0.88795   0.00000  Uiso   1.00
H797   H     0.85662   0.56787   0.89121   0.00000  Uiso   1.00
H798   H     0.85778   0.43145   0.61206   0.00000  Uiso   1.00
N799   N     0.83333   0.61907   0.75000   0.00000  Uiso   1.00
N800   N     0.83333   0.38093   0.75000   0.00000  Uiso   1.00
O801   O     0.77226   0.53821   0.74999   0.00000  Uiso   1.00
O802   O     0.89441   0.46179   0.75000   0.00000  Uiso   1.00
O803   O     0.89441   0.53821   0.75000   0.00000  Uiso   1.00
O804   O     0.77226   0.46179   0.74999   0.00000  Uiso   1.00
O805   O     0.83333   0.53822   0.68453   0.00000  Uiso   1.00
O806   O     0.83334   0.46178   0.81547   0.00000  Uiso   1.00
O807   O     0.83334   0.53822   0.81547   0.00000  Uiso   1.00
O808   O     0.83333   0.46178   0.68453   0.00000  Uiso   1.00
Zn809  Zn    0.83333   0.55104   0.75000   0.00000  Uiso   1.00
Zn810  Zn    0.83333   0.44896   0.75000   0.00000  Uiso   1.00
Br811  Br    0.22857   0.72210   0.82106   0.00000  Uiso   1.00
Br812  Br    0.10291   0.94480   0.68085   0.00000  Uiso   1.00
Br813  Br    0.10476   0.72210   0.67894   0.00000  Uiso   1.00
Br814  Br    0.23042   0.94480   0.81915   0.00000  Uiso   1.00
Br815  Br    0.04447   0.73565   0.77899   0.00000  Uiso   1.00
Br816  Br    0.28922   0.93053   0.72005   0.00000  Uiso   1.00
Br817  Br    0.28886   0.73565   0.72101   0.00000  Uiso   1.00
Br818  Br    0.04411   0.93053   0.77995   0.00000  Uiso   1.00
C819   C     0.08691   0.83332   0.75480   0.00000  Uiso   1.00
C820   C     0.31264   0.87449   0.74300   0.00000  Uiso   1.00
C821   C     0.31259   0.79191   0.74314   0.00000  Uiso   1.00
C822   C     0.02070   0.87449   0.75700   0.00000  Uiso   1.00
C823   C     0.15298   0.87053   0.54628   0.00000  Uiso   1.00
C824   C     0.15298   0.79407   0.95208   0.00000  Uiso   1.00
C825   C     0.18036   0.87054   0.95372   0.00000  Uiso   1.00
C826   C     0.18042   0.79409   0.54793   0.00000  Uiso   1.00
C827   C     0.15368   0.87114   0.59218   0.00000  Uiso   1.00
C828   C     0.15308   0.79437   0.90611   0.00000  Uiso   1.00
C829   C     0.17964   0.87116   0.90782   0.00000  Uiso   1.00
C830   C     0.24642   0.83332   0.74520   0.00000  Uiso   1.00
C831   C     0.18031   0.79439   0.59390   0.00000  Uiso   1.00
C832   C     0.16701   0.83300   0.61605   0.00000  Uiso   1.00
C833   C     0.16634   0.83300   0.88395   0.00000  Uiso   1.00
C834   C     0.16661   0.83214   0.52406   0.00000  Uiso   1.00
C835   C     0.16677   0.83214   0.97594   0.00000  Uiso   1.00
C836   C     0.29098   0.83323   0.74073   0.00000  Uiso   1.00
C837   C     0.04235   0.83323   0.75927   0.00000  Uiso   1.00
C838   C     0.16676   0.83329   0.66396   0.00000  Uiso   1.00
C839   C     0.16658   0.83329   0.83604   0.00000  Uiso   1.00
C840   C     0.19239   0.69063   0.77908   0.00000  Uiso   1.00
C841   C     0.14066   0.97609   0.72122   0.00000  Uiso   1.00
C842   C     0.14094   0.69063   0.72092   0.00000  Uiso   1.00
C843   C     0.19268   0.97609   0.77878   0.00000  Uiso   1.00
C844   C     0.02075   0.79191   0.75686   0.00000  Uiso   1.00
H845   H     0.14158   0.89991   0.52817   0.00000  Uiso   1.00
H846   H     0.14176   0.76444   0.96892   0.00000  Uiso   1.00
H847   H     0.19173   0.89994   0.97182   0.00000  Uiso   1.00
H848   H     0.19168   0.76447   0.53110   0.00000  Uiso   1.00
H849   H     0.14333   0.90118   0.60878   0.00000  Uiso   1.00
H850   H     0.14230   0.76475   0.88795   0.00000  Uiso   1.00
H851   H     0.18995   0.90120   0.89121   0.00000  Uiso   1.00
H852   H     0.19111   0.76478   0.61206   0.00000  Uiso   1.00
N853   N     0.16667   0.95240   0.75000   0.00000  Uiso   1.00
N854   N     0.16667   0.71427   0.75000   0.00000  Uiso   1.00
O855   O     0.10559   0.87154   0.74999   0.00000  Uiso   1.00
O856   O     0.22774   0.79513   0.75000   0.00000  Uiso   1.00
O857   O     0.22774   0.87154   0.75000   0.00000  Uiso   1.00
O858   O     0.10559   0.79513   0.74999   0.00000  Uiso   1.00
O859   O     0.16666   0.87155   0.68453   0.00000  Uiso   1.00
O860   O     0.16667   0.79511   0.81547   0.00000  Uiso   1.00
O861   O     0.16667   0.87155   0.81547   0.00000  Uiso   1.00
O862   O     0.16666   0.79511   0.68453   0.00000  Uiso   1.00
Zn863  Zn    0.16667   0.88437   0.75000   0.00000  Uiso   1.00
Zn864  Zn    0.16667   0.78229   0.75000   0.00000  Uiso   1.00
Br865  Br    0.56190   0.72210   0.82106   0.00000  Uiso   1.00
Br866  Br    0.43624   0.94480   0.68085   0.00000  Uiso   1.00
Br867  Br    0.43810   0.72210   0.67894   0.00000  Uiso   1.00
Br868  Br    0.56376   0.94480   0.81915   0.00000  Uiso   1.00
Br869  Br    0.37780   0.73565   0.77899   0.00000  Uiso   1.00
Br870  Br    0.62255   0.93053   0.72005   0.00000  Uiso   1.00
Br871  Br    0.62220   0.73565   0.72101   0.00000  Uiso   1.00
Br872  Br    0.37745   0.93053   0.77995   0.00000  Uiso   1.00
C873   C     0.42025   0.83332   0.75480   0.00000  Uiso   1.00
C874   C     0.64597   0.87449   0.74300   0.00000  Uiso   1.00
C875   C     0.64592   0.79191   0.74314   0.00000  Uiso   1.00
C876   C     0.35403   0.87449   0.75700   0.00000  Uiso   1.00
C877   C     0.48631   0.87053   0.54628   0.00000  Uiso   1.00
C878   C     0.48632   0.79407   0.95208   0.00000  Uiso   1.00
C879   C     0.51369   0.87054   0.95372   0.00000  Uiso   1.00
C880   C     0.51376   0.79409   0.54793   0.00000  Uiso   1.00
C881   C     0.48702   0.87114   0.59218   0.00000  Uiso   1.00
C882   C     0.48642   0.79437   0.90611   0.00000  Uiso   1.00
C883   C     0.51297   0.87116   0.90782   0.00000  Uiso   1.00
C884   C     0.57976   0.83332   0.74520   0.00000  Uiso   1.00
C885   C     0.51364   0.79439   0.59390   0.00000  Uiso   1.00
C886   C     0.50034   0.83300   0.61605   0.00000  Uiso   1.00
C887   C     0.49967   0.83300   0.88395   0.00000  Uiso   1.00
C888   C     0.49994   0.83214   0.52406   0.00000  Uiso   1.00
C889   C     0.50010   0.83214   0.97594   0.00000  Uiso   1.00
C890   C     0.62431   0.83323   0.74073   0.00000  Uiso   1.00
C891   C     0.37569   0.83323   0.75927   0.00000  Uiso   1.00
C892   C     0.50009   0.83329   0.66396   0.00000  Uiso   1.00
C893   C     0.49991   0.83329   0.83604   0.00000  Uiso   1.00
C894   C     0.52573   0.69063   0.77908   0.00000  Uiso   1.00
C895   C     0.47399   0.97609   0.72122   0.00000  Uiso   1.00
C896   C     0.47427   0.69063   0.72092   0.00000  Uiso   1.00
C897   C     0.52601   0.97609   0.77878   0.00000  Uiso   1.00
C898   C     0.35408   0.79191   0.75686   0.00000  Uiso   1.00
H899   H     0.47491   0.89991   0.52817   0.00000  Uiso   1.00
H900   H     0.47509   0.76444   0.96892   0.00000  Uiso   1.00
H901   H     0.52507   0.89994   0.97182   0.00000  Uiso   1.00
H902   H     0.52501   0.76447   0.53110   0.00000  Uiso   1.00
H903   H     0.47666   0.90118   0.60878   0.00000  Uiso   1.00
H904   H     0.47564   0.76475   0.88795   0.00000  Uiso   1.00
H905   H     0.52329   0.90120   0.89121   0.00000  Uiso   1.00
H906   H     0.52444   0.76478   0.61206   0.00000  Uiso   1.00
N907   N     0.50000   0.95240   0.75000   0.00000  Uiso   1.00
N908   N     0.50000   0.71427   0.75000   0.00000  Uiso   1.00
O909   O     0.43892   0.87154   0.74999   0.00000  Uiso   1.00
O910   O     0.56108   0.79513   0.75000   0.00000  Uiso   1.00
O911   O     0.56108   0.87154   0.75000   0.00000  Uiso   1.00
O912   O     0.43892   0.79513   0.74999   0.00000  Uiso   1.00
O913   O     0.50000   0.87155   0.68453   0.00000  Uiso   1.00
O914   O     0.50000   0.79511   0.81547   0.00000  Uiso   1.00
O915   O     0.50000   0.87155   0.81547   0.00000  Uiso   1.00
O916   O     0.50000   0.79511   0.68453   0.00000  Uiso   1.00
Zn917  Zn    0.50000   0.88437   0.75000   0.00000  Uiso   1.00
Zn918  Zn    0.50000   0.78229   0.75000   0.00000  Uiso   1.00
Br919  Br    0.89524   0.72210   0.82106   0.00000  Uiso   1.00
Br920  Br    0.76958   0.94480   0.68085   0.00000  Uiso   1.00
Br921  Br    0.77143   0.72210   0.67894   0.00000  Uiso   1.00
Br922  Br    0.89709   0.94480   0.81915   0.00000  Uiso   1.00
Br923  Br    0.71113   0.73565   0.77899   0.00000  Uiso   1.00
Br924  Br    0.95589   0.93053   0.72005   0.00000  Uiso   1.00
Br925  Br    0.95553   0.73565   0.72101   0.00000  Uiso   1.00
Br926  Br    0.71078   0.93053   0.77995   0.00000  Uiso   1.00
C927   C     0.75358   0.83332   0.75480   0.00000  Uiso   1.00
C928   C     0.97930   0.87449   0.74300   0.00000  Uiso   1.00
C929   C     0.97925   0.79191   0.74314   0.00000  Uiso   1.00
C930   C     0.68737   0.87449   0.75700   0.00000  Uiso   1.00
C931   C     0.81964   0.87053   0.54628   0.00000  Uiso   1.00
C932   C     0.81965   0.79407   0.95208   0.00000  Uiso   1.00
C933   C     0.84703   0.87054   0.95372   0.00000  Uiso   1.00
C934   C     0.84709   0.79409   0.54793   0.00000  Uiso   1.00
C935   C     0.82035   0.87114   0.59218   0.00000  Uiso   1.00
C936   C     0.81975   0.79437   0.90611   0.00000  Uiso   1.00
C937   C     0.84630   0.87116   0.90782   0.00000  Uiso   1.00
C938   C     0.91309   0.83332   0.74520   0.00000  Uiso   1.00
C939   C     0.84698   0.79439   0.59390   0.00000  Uiso   1.00
C940   C     0.83367   0.83300   0.61605   0.00000  Uiso   1.00
C941   C     0.83301   0.83300   0.88395   0.00000  Uiso   1.00
C942   C     0.83328   0.83214   0.52406   0.00000  Uiso   1.00
C943   C     0.83343   0.83214   0.97594   0.00000  Uiso   1.00
C944   C     0.95765   0.83323   0.74073   0.00000  Uiso   1.00
C945   C     0.70902   0.83323   0.75927   0.00000  Uiso   1.00
C946   C     0.83343   0.83329   0.66396   0.00000  Uiso   1.00
C947   C     0.83324   0.83329   0.83604   0.00000  Uiso   1.00
C948   C     0.85906   0.69063   0.77908   0.00000  Uiso   1.00
C949   C     0.80732   0.97609   0.72122   0.00000  Uiso   1.00
C950   C     0.80761   0.69063   0.72092   0.00000  Uiso   1.00
C951   C     0.85934   0.97609   0.77878   0.00000  Uiso   1.00
C952   C     0.68741   0.79191   0.75686   0.00000  Uiso   1.00
H953   H     0.80824   0.89991   0.52817   0.00000  Uiso   1.00
H954   H     0.80843   0.76444   0.96892   0.00000  Uiso   1.00
H955   H     0.85840   0.89994   0.97182   0.00000  Uiso   1.00
H956   H     0.85835   0.76447   0.53110   0.00000  Uiso   1.00
H957   H     0.81000   0.90118   0.60878   0.00000  Uiso   1.00
H958   H     0.80897   0.76475   0.88795   0.00000  Uiso   1.00
H959   H     0.85662   0.90120   0.89121   0.00000  Uiso   1.00
H960   H     0.85778   0.76478   0.61206   0.00000  Uiso   1.00
N961   N     0.83333   0.95240   0.75000   0.00000  Uiso   1.00
N962   N     0.83333   0.71427   0.75000   0.00000  Uiso   1.00
O963   O     0.77226   0.87154   0.74999   0.00000  Uiso   1.00
O964   O     0.89441   0.79513   0.75000   0.00000  Uiso   1.00
O965   O     0.89441   0.87154   0.75000   0.00000  Uiso   1.00
O966   O     0.77226   0.79513   0.74999   0.00000  Uiso   1.00
O967   O     0.83333   0.87155   0.68453   0.00000  Uiso   1.00
O968   O     0.83334   0.79511   0.81547   0.00000  Uiso   1.00
O969   O     0.83334   0.87155   0.81547   0.00000  Uiso   1.00
O970   O     0.83333   0.79511   0.68453   0.00000  Uiso   1.00
Zn971  Zn    0.83333   0.88437   0.75000   0.00000  Uiso   1.00
Zn972  Zn    0.83333   0.78229   0.75000   0.00000  Uiso   1.00
loop_
_geom_bond_atom_site_label_1
_geom_bond_atom_site_label_2
_geom_bond_distance
_geom_bond_site_symmetry_2
_ccdc_geom_bond_type
Br1    C30     1.923   .     S
Br2    C31     1.920   .     S
Br3    C32     1.923   .     S
Br4    C33     1.920   .     S
Br5    C34     1.941   .     S
Br6    C10     1.940   .     S
Br7    C11     1.941   .     S
Br8    C12     1.940   .     S
C9     O45     1.294   .     A
C9     C27     1.444   .     S
C9     O48     1.293   .     A
C10    C26     1.408   .     A
C10    C66     1.379   .     S
C11    C26     1.409   .     A
C11    C88     1.380   .     S
C12    C27     1.408   .     A
C12    C118    1.379   1_455 S
C13    C17     1.379   .     A
C13    H35     1.083   .     S
C13    C24     1.399   .     A
C14    C18     1.382   .     A
C14    H36     1.083   .     S
C14    C25     1.400   .     A
C15    C25     1.399   .     A
C15    H37     1.083   .     S
C15    C19     1.379   .     A
C16    C21     1.382   .     A
C16    C24     1.400   .     A
C16    H38     1.083   .     S
C17    C22     1.398   .     A
C17    H39     1.080   .     S
C18    C23     1.400   .     A
C18    H40     1.084   .     S
C19    C23     1.398   .     A
C19    H41     1.080   .     S
C20    C26     1.444   .     S
C20    O47     1.294   .     A
C20    O46     1.293   .     A
C21    C22     1.400   .     A
C21    H42     1.084   .     S
C22    C28     1.440   .     S
C23    C29     1.440   .     S
C24    C511    1.447   1_554 S
C25    C510    1.447   .     S
C27    C34     1.409   .     A
C28    O49     1.292   .     A
C28    O52     1.290   .     A
C29    O50     1.290   .     A
C29    O51     1.292   .     A
C30    N44     1.371   .     A
C30    C357    1.420   1_545 S
C31    N43     1.372   .     A
C31    C194    1.420   .     S
C32    N44     1.371   .     A
C32    C355    1.420   1_545 S
C33    N43     1.372   .     A
C33    C192    1.420   .     S
C34    C119    1.380   1_455 S
N43    Zn53    2.017   .     S
N44    Zn54    2.017   .     S
O45    Zn53    2.000   .     S
O46    Zn54    2.000   .     S
O47    Zn53    2.000   .     S
O48    Zn54    2.000   .     S
O49    Zn53    2.004   .     S
O50    Zn54    2.004   .     S
O51    Zn53    2.004   .     S
O52    Zn54    2.004   .     S
Br55   C84     1.923   .     S
Br56   C85     1.920   .     S
Br57   C86     1.923   .     S
Br58   C87     1.920   .     S
Br59   C88     1.941   .     S
Br60   C64     1.940   .     S
Br61   C65     1.941   .     S
Br62   C66     1.940   .     S
C63    O99     1.294   .     A
C63    C81     1.444   .     S
C63    O102    1.293   .     A
C64    C80     1.408   .     A
C64    C120    1.379   .     S
C65    C80     1.409   .     A
C65    C142    1.380   .     S
C66    C81     1.408   .     A
C67    C71     1.379   .     A
C67    H89     1.083   .     S
C67    C78     1.399   .     A
C68    C72     1.382   .     A
C68    H90     1.083   .     S
C68    C79     1.400   .     A
C69    C79     1.399   .     A
C69    H91     1.083   .     S
C69    C73     1.379   .     A
C70    C75     1.382   .     A
C70    C78     1.400   .     A
C70    H92     1.083   .     S
C71    C76     1.398   .     A
C71    H93     1.080   .     S
C72    C77     1.400   .     A
C72    H94     1.084   .     S
C73    C77     1.398   .     A
C73    H95     1.080   .     S
C74    C80     1.444   .     S
C74    O101    1.294   .     A
C74    O100    1.293   .     A
C75    C76     1.400   .     A
C75    H96     1.084   .     S
C76    C82     1.440   .     S
C77    C83     1.440   .     S
C78    C565    1.447   1_554 S
C79    C564    1.447   .     S
C81    C88     1.409   .     A
C82    O103    1.292   .     A
C82    O106    1.290   .     A
C83    O104    1.290   .     A
C83    O105    1.292   .     A
C84    N98     1.371   .     A
C84    C411    1.420   1_545 S
C85    N97     1.372   .     A
C85    C248    1.420   .     S
C86    N98     1.371   .     A
C86    C409    1.420   1_545 S
C87    N97     1.372   .     A
C87    C246    1.420   .     S
N97    Zn107   2.017   .     S
N98    Zn108   2.017   .     S
O99    Zn107   2.000   .     S
O100   Zn108   2.000   .     S
O101   Zn107   2.000   .     S
O102   Zn108   2.000   .     S
O103   Zn107   2.004   .     S
O104   Zn108   2.004   .     S
O105   Zn107   2.004   .     S
O106   Zn108   2.004   .     S
Br109  C138    1.923   .     S
Br110  C139    1.920   .     S
Br111  C140    1.923   .     S
Br112  C141    1.920   .     S
Br113  C142    1.941   .     S
Br114  C118    1.940   .     S
Br115  C119    1.941   .     S
Br116  C120    1.940   .     S
C117   O153    1.294   .     A
C117   C135    1.444   .     S
C117   O156    1.293   .     A
C118   C134    1.408   .     A
C118   C12     1.379   1_655 S
C119   C134    1.409   .     A
C119   C34     1.380   1_655 S
C120   C135    1.408   .     A
C121   C125    1.379   .     A
C121   H143    1.083   .     S
C121   C132    1.399   .     A
C122   C126    1.382   .     A
C122   H144    1.083   .     S
C122   C133    1.400   .     A
C123   C133    1.399   .     A
C123   H145    1.083   .     S
C123   C127    1.379   .     A
C124   C129    1.382   .     A
C124   C132    1.400   .     A
C124   H146    1.083   .     S
C125   C130    1.398   .     A
C125   H147    1.080   .     S
C126   C131    1.400   .     A
C126   H148    1.084   .     S
C127   C131    1.398   .     A
C127   H149    1.080   .     S
C128   C134    1.444   .     S
C128   O155    1.294   .     A
C128   O154    1.293   .     A
C129   C130    1.400   .     A
C129   H150    1.084   .     S
C130   C136    1.440   .     S
C131   C137    1.440   .     S
C132   C619    1.447   1_554 S
C133   C618    1.447   .     S
C135   C142    1.409   .     A
C136   O157    1.292   .     A
C136   O160    1.290   .     A
C137   O158    1.290   .     A
C137   O159    1.292   .     A
C138   N152    1.371   .     A
C138   C465    1.420   1_545 S
C139   N151    1.372   .     A
C139   C302    1.420   .     S
C140   N152    1.371   .     A
C140   C463    1.420   1_545 S
C141   N151    1.372   .     A
C141   C300    1.420   .     S
N151   Zn161   2.017   .     S
N152   Zn162   2.017   .     S
O153   Zn161   2.000   .     S
O154   Zn162   2.000   .     S
O155   Zn161   2.000   .     S
O156   Zn162   2.000   .     S
O157   Zn161   2.004   .     S
O158   Zn162   2.004   .     S
O159   Zn161   2.004   .     S
O160   Zn162   2.004   .     S
Br163  C192    1.923   .     S
Br164  C193    1.920   .     S
Br165  C194    1.923   .     S
Br166  C195    1.920   .     S
Br167  C196    1.941   .     S
Br168  C172    1.940   .     S
Br169  C173    1.941   .     S
Br170  C174    1.940   .     S
C171   O207    1.294   .     A
C171   C189    1.444   .     S
C171   O210    1.293   .     A
C172   C188    1.408   .     A
C172   C228    1.379   .     S
C173   C188    1.409   .     A
C173   C250    1.380   .     S
C174   C189    1.408   .     A
C174   C280    1.379   1_455 S
C175   C179    1.379   .     A
C175   H197    1.083   .     S
C175   C186    1.399   .     A
C176   C180    1.382   .     A
C176   H198    1.083   .     S
C176   C187    1.400   .     A
C177   C187    1.399   .     A
C177   H199    1.083   .     S
C177   C181    1.379   .     A
C178   C183    1.382   .     A
C178   C186    1.400   .     A
C178   H200    1.083   .     S
C179   C184    1.398   .     A
C179   H201    1.080   .     S
C180   C185    1.400   .     A
C180   H202    1.084   .     S
C181   C185    1.398   .     A
C181   H203    1.080   .     S
C182   C188    1.444   .     S
C182   O209    1.294   .     A
C182   O208    1.293   .     A
C183   C184    1.400   .     A
C183   H204    1.084   .     S
C184   C190    1.440   .     S
C185   C191    1.440   .     S
C186   C673    1.447   1_554 S
C187   C672    1.447   .     S
C189   C196    1.409   .     A
C190   O211    1.292   .     A
C190   O214    1.290   .     A
C191   O212    1.290   .     A
C191   O213    1.292   .     A
C192   N206    1.371   .     A
C193   N205    1.372   .     A
C193   C356    1.420   .     S
C194   N206    1.371   .     A
C195   N205    1.372   .     A
C195   C354    1.420   .     S
C196   C281    1.380   1_455 S
N205   Zn215   2.017   .     S
N206   Zn216   2.017   .     S
O207   Zn215   2.000   .     S
O208   Zn216   2.000   .     S
O209   Zn215   2.000   .     S
O210   Zn216   2.000   .     S
O211   Zn215   2.004   .     S
O212   Zn216   2.004   .     S
O213   Zn215   2.004   .     S
O214   Zn216   2.004   .     S
Br217  C246    1.923   .     S
Br218  C247    1.920   .     S
Br219  C248    1.923   .     S
Br220  C249    1.920   .     S
Br221  C250    1.941   .     S
Br222  C226    1.940   .     S
Br223  C227    1.941   .     S
Br224  C228    1.940   .     S
C225   O261    1.294   .     A
C225   C243    1.444   .     S
C225   O264    1.293   .     A
C226   C242    1.408   .     A
C226   C282    1.379   .     S
C227   C242    1.409   .     A
C227   C304    1.380   .     S
C228   C243    1.408   .     A
C229   C233    1.379   .     A
C229   H251    1.083   .     S
C229   C240    1.399   .     A
C230   C234    1.382   .     A
C230   H252    1.083   .     S
C230   C241    1.400   .     A
C231   C241    1.399   .     A
C231   H253    1.083   .     S
C231   C235    1.379   .     A
C232   C237    1.382   .     A
C232   C240    1.400   .     A
C232   H254    1.083   .     S
C233   C238    1.398   .     A
C233   H255    1.080   .     S
C234   C239    1.400   .     A
C234   H256    1.084   .     S
C235   C239    1.398   .     A
C235   H257    1.080   .     S
C236   C242    1.444   .     S
C236   O263    1.294   .     A
C236   O262    1.293   .     A
C237   C238    1.400   .     A
C237   H258    1.084   .     S
C238   C244    1.440   .     S
C239   C245    1.440   .     S
C240   C727    1.447   1_554 S
C241   C726    1.447   .     S
C243   C250    1.409   .     A
C244   O265    1.292   .     A
C244   O268    1.290   .     A
C245   O266    1.290   .     A
C245   O267    1.292   .     A
C246   N260    1.371   .     A
C247   N259    1.372   .     A
C247   C410    1.420   .     S
C248   N260    1.371   .     A
C249   N259    1.372   .     A
C249   C408    1.420   .     S
N259   Zn269   2.017   .     S
N260   Zn270   2.017   .     S
O261   Zn269   2.000   .     S
O262   Zn270   2.000   .     S
O263   Zn269   2.000   .     S
O264   Zn270   2.000   .     S
O265   Zn269   2.004   .     S
O266   Zn270   2.004   .     S
O267   Zn269   2.004   .     S
O268   Zn270   2.004   .     S
Br271  C300    1.923   .     S
Br272  C301    1.920   .     S
Br273  C302    1.923   .     S
Br274  C303    1.920   .     S
Br275  C304    1.941   .     S
Br276  C280    1.940   .     S
Br277  C281    1.941   .     S
Br278  C282    1.940   .     S
C279   O315    1.294   .     A
C279   C297    1.444   .     S
C279   O318    1.293   .     A
C280   C296    1.408   .     A
C280   C174    1.379   1_655 S
C281   C296    1.409   .     A
C281   C196    1.380   1_655 S
C282   C297    1.408   .     A
C283   C287    1.379   .     A
C283   H305    1.083   .     S
C283   C294    1.399   .     A
C284   C288    1.382   .     A
C284   H306    1.083   .     S
C284   C295    1.400   .     A
C285   C295    1.399   .     A
C285   H307    1.083   .     S
C285   C289    1.379   .     A
C286   C291    1.382   .     A
C286   C294    1.400   .     A
C286   H308    1.083   .     S
C287   C292    1.398   .     A
C287   H309    1.080   .     S
C288   C293    1.400   .     A
C288   H310    1.084   .     S
C289   C293    1.398   .     A
C289   H311    1.080   .     S
C290   C296    1.444   .     S
C290   O317    1.294   .     A
C290   O316    1.293   .     A
C291   C292    1.400   .     A
C291   H312    1.084   .     S
C292   C298    1.440   .     S
C293   C299    1.440   .     S
C294   C781    1.447   1_554 S
C295   C780    1.447   .     S
C297   C304    1.409   .     A
C298   O319    1.292   .     A
C298   O322    1.290   .     A
C299   O320    1.290   .     A
C299   O321    1.292   .     A
C300   N314    1.371   .     A
C301   N313    1.372   .     A
C301   C464    1.420   .     S
C302   N314    1.371   .     A
C303   N313    1.372   .     A
C303   C462    1.420   .     S
N313   Zn323   2.017   .     S
N314   Zn324   2.017   .     S
O315   Zn323   2.000   .     S
O316   Zn324   2.000   .     S
O317   Zn323   2.000   .     S
O318   Zn324   2.000   .     S
O319   Zn323   2.004   .     S
O320   Zn324   2.004   .     S
O321   Zn323   2.004   .     S
O322   Zn324   2.004   .     S
Br325  C354    1.923   .     S
Br326  C355    1.920   .     S
Br327  C356    1.923   .     S
Br328  C357    1.920   .     S
Br329  C358    1.941   .     S
Br330  C334    1.940   .     S
Br331  C335    1.941   .     S
Br332  C336    1.940   .     S
C333   O369    1.294   .     A
C333   C351    1.444   .     S
C333   O372    1.293   .     A
C334   C350    1.408   .     A
C334   C390    1.379   .     S
C335   C350    1.409   .     A
C335   C412    1.380   .     S
C336   C351    1.408   .     A
C336   C442    1.379   1_455 S
C337   C341    1.379   .     A
C337   H359    1.083   .     S
C337   C348    1.399   .     A
C338   C342    1.382   .     A
C338   H360    1.083   .     S
C338   C349    1.400   .     A
C339   C349    1.399   .     A
C339   H361    1.083   .     S
C339   C343    1.379   .     A
C340   C345    1.382   .     A
C340   C348    1.400   .     A
C340   H362    1.083   .     S
C341   C346    1.398   .     A
C341   H363    1.080   .     S
C342   C347    1.400   .     A
C342   H364    1.084   .     S
C343   C347    1.398   .     A
C343   H365    1.080   .     S
C344   C350    1.444   .     S
C344   O371    1.294   .     A
C344   O370    1.293   .     A
C345   C346    1.400   .     A
C345   H366    1.084   .     S
C346   C352    1.440   .     S
C347   C353    1.440   .     S
C348   C835    1.447   1_554 S
C349   C834    1.447   .     S
C351   C358    1.409   .     A
C352   O373    1.292   .     A
C352   O376    1.290   .     A
C353   O374    1.290   .     A
C353   O375    1.292   .     A
C354   N368    1.371   .     A
C355   N367    1.372   .     A
C355   C32     1.420   1_565 S
C356   N368    1.371   .     A
C357   N367    1.372   .     A
C357   C30     1.420   1_565 S
C358   C443    1.380   1_455 S
N367   Zn377   2.017   .     S
N368   Zn378   2.017   .     S
O369   Zn377   2.000   .     S
O370   Zn378   2.000   .     S
O371   Zn377   2.000   .     S
O372   Zn378   2.000   .     S
O373   Zn377   2.004   .     S
O374   Zn378   2.004   .     S
O375   Zn377   2.004   .     S
O376   Zn378   2.004   .     S
Br379  C408    1.923   .     S
Br380  C409    1.920   .     S
Br381  C410    1.923   .     S
Br382  C411    1.920   .     S
Br383  C412    1.941   .     S
Br384  C388    1.940   .     S
Br385  C389    1.941   .     S
Br386  C390    1.940   .     S
C387   O423    1.294   .     A
C387   C405    1.444   .     S
C387   O426    1.293   .     A
C388   C404    1.408   .     A
C388   C444    1.379   .     S
C389   C404    1.409   .     A
C389   C466    1.380   .     S
C390   C405    1.408   .     A
C391   C395    1.379   .     A
C391   H413    1.083   .     S
C391   C402    1.399   .     A
C392   C396    1.382   .     A
C392   H414    1.083   .     S
C392   C403    1.400   .     A
C393   C403    1.399   .     A
C393   H415    1.083   .     S
C393   C397    1.379   .     A
C394   C399    1.382   .     A
C394   C402    1.400   .     A
C394   H416    1.083   .     S
C395   C400    1.398   .     A
C395   H417    1.080   .     S
C396   C401    1.400   .     A
C396   H418    1.084   .     S
C397   C401    1.398   .     A
C397   H419    1.080   .     S
C398   C404    1.444   .     S
C398   O425    1.294   .     A
C398   O424    1.293   .     A
C399   C400    1.400   .     A
C399   H420    1.084   .     S
C400   C406    1.440   .     S
C401   C407    1.440   .     S
C402   C889    1.447   1_554 S
C403   C888    1.447   .     S
C405   C412    1.409   .     A
C406   O427    1.292   .     A
C406   O430    1.290   .     A
C407   O428    1.290   .     A
C407   O429    1.292   .     A
C408   N422    1.371   .     A
C409   N421    1.372   .     A
C409   C86     1.420   1_565 S
C410   N422    1.371   .     A
C411   N421    1.372   .     A
C411   C84     1.420   1_565 S
N421   Zn431   2.017   .     S
N422   Zn432   2.017   .     S
O423   Zn431   2.000   .     S
O424   Zn432   2.000   .     S
O425   Zn431   2.000   .     S
O426   Zn432   2.000   .     S
O427   Zn431   2.004   .     S
O428   Zn432   2.004   .     S
O429   Zn431   2.004   .     S
O430   Zn432   2.004   .     S
Br433  C462    1.923   .     S
Br434  C463    1.920   .     S
Br435  C464    1.923   .     S
Br436  C465    1.920   .     S
Br437  C466    1.941   .     S
Br438  C442    1.940   .     S
Br439  C443    1.941   .     S
Br440  C444    1.940   .     S
C441   O477    1.294   .     A
C441   C459    1.444   .     S
C441   O480    1.293   .     A
C442   C458    1.408   .     A
C442   C336    1.379   1_655 S
C443   C458    1.409   .     A
C443   C358    1.380   1_655 S
C444   C459    1.408   .     A
C445   C449    1.379   .     A
C445   H467    1.083   .     S
C445   C456    1.399   .     A
C446   C450    1.382   .     A
C446   H468    1.083   .     S
C446   C457    1.400   .     A
C447   C457    1.399   .     A
C447   H469    1.083   .     S
C447   C451    1.379   .     A
C448   C453    1.382   .     A
C448   C456    1.400   .     A
C448   H470    1.083   .     S
C449   C454    1.398   .     A
C449   H471    1.080   .     S
C450   C455    1.400   .     A
C450   H472    1.084   .     S
C451   C455    1.398   .     A
C451   H473    1.080   .     S
C452   C458    1.444   .     S
C452   O479    1.294   .     A
C452   O478    1.293   .     A
C453   C454    1.400   .     A
C453   H474    1.084   .     S
C454   C460    1.440   .     S
C455   C461    1.440   .     S
C456   C943    1.447   1_554 S
C457   C942    1.447   .     S
C459   C466    1.409   .     A
C460   O481    1.292   .     A
C460   O484    1.290   .     A
C461   O482    1.290   .     A
C461   O483    1.292   .     A
C462   N476    1.371   .     A
C463   N475    1.372   .     A
C463   C140    1.420   1_565 S
C464   N476    1.371   .     A
C465   N475    1.372   .     A
C465   C138    1.420   1_565 S
N475   Zn485   2.017   .     S
N476   Zn486   2.017   .     S
O477   Zn485   2.000   .     S
O478   Zn486   2.000   .     S
O479   Zn485   2.000   .     S
O480   Zn486   2.000   .     S
O481   Zn485   2.004   .     S
O482   Zn486   2.004   .     S
O483   Zn485   2.004   .     S
O484   Zn486   2.004   .     S
Br487  C516    1.923   .     S
Br488  C517    1.920   .     S
Br489  C518    1.923   .     S
Br490  C519    1.920   .     S
Br491  C520    1.941   .     S
Br492  C496    1.940   .     S
Br493  C497    1.941   .     S
Br494  C498    1.940   .     S
C495   O531    1.294   .     A
C495   C513    1.444   .     S
C495   O534    1.293   .     A
C496   C512    1.408   .     A
C496   C552    1.379   .     S
C497   C512    1.409   .     A
C497   C574    1.380   .     S
C498   C513    1.408   .     A
C498   C604    1.379   1_455 S
C499   C503    1.379   .     A
C499   H521    1.083   .     S
C499   C510    1.399   .     A
C500   C504    1.382   .     A
C500   H522    1.083   .     S
C500   C511    1.400   .     A
C501   C511    1.399   .     A
C501   H523    1.083   .     S
C501   C505    1.379   .     A
C502   C507    1.382   .     A
C502   C510    1.400   .     A
C502   H524    1.083   .     S
C503   C508    1.398   .     A
C503   H525    1.080   .     S
C504   C509    1.400   .     A
C504   H526    1.084   .     S
C505   C509    1.398   .     A
C505   H527    1.080   .     S
C506   C512    1.444   .     S
C506   O533    1.294   .     A
C506   O532    1.293   .     A
C507   C508    1.400   .     A
C507   H528    1.084   .     S
C508   C514    1.440   .     S
C509   C515    1.440   .     S
C511   C24     1.447   1_556 S
C513   C520    1.409   .     A
C514   O535    1.292   .     A
C514   O538    1.290   .     A
C515   O536    1.290   .     A
C515   O537    1.292   .     A
C516   N530    1.371   .     A
C516   C843    1.420   1_545 S
C517   N529    1.372   .     A
C517   C680    1.420   .     S
C518   N530    1.371   .     A
C518   C841    1.420   1_545 S
C519   N529    1.372   .     A
C519   C678    1.420   .     S
C520   C605    1.380   1_455 S
N529   Zn539   2.017   .     S
N530   Zn540   2.017   .     S
O531   Zn539   2.000   .     S
O532   Zn540   2.000   .     S
O533   Zn539   2.000   .     S
O534   Zn540   2.000   .     S
O535   Zn539   2.004   .     S
O536   Zn540   2.004   .     S
O537   Zn539   2.004   .     S
O538   Zn540   2.004   .     S
Br541  C570    1.923   .     S
Br542  C571    1.920   .     S
Br543  C572    1.923   .     S
Br544  C573    1.920   .     S
Br545  C574    1.941   .     S
Br546  C550    1.940   .     S
Br547  C551    1.941   .     S
Br548  C552    1.940   .     S
C549   O585    1.294   .     A
C549   C567    1.444   .     S
C549   O588    1.293   .     A
C550   C566    1.408   .     A
C550   C606    1.379   .     S
C551   C566    1.409   .     A
C551   C628    1.380   .     S
C552   C567    1.408   .     A
C553   C557    1.379   .     A
C553   H575    1.083   .     S
C553   C564    1.399   .     A
C554   C558    1.382   .     A
C554   H576    1.083   .     S
C554   C565    1.400   .     A
C555   C565    1.399   .     A
C555   H577    1.083   .     S
C555   C559    1.379   .     A
C556   C561    1.382   .     A
C556   C564    1.400   .     A
C556   H578    1.083   .     S
C557   C562    1.398   .     A
C557   H579    1.080   .     S
C558   C563    1.400   .     A
C558   H580    1.084   .     S
C559   C563    1.398   .     A
C559   H581    1.080   .     S
C560   C566    1.444   .     S
C560   O587    1.294   .     A
C560   O586    1.293   .     A
C561   C562    1.400   .     A
C561   H582    1.084   .     S
C562   C568    1.440   .     S
C563   C569    1.440   .     S
C565   C78     1.447   1_556 S
C567   C574    1.409   .     A
C568   O589    1.292   .     A
C568   O592    1.290   .     A
C569   O590    1.290   .     A
C569   O591    1.292   .     A
C570   N584    1.371   .     A
C570   C897    1.420   1_545 S
C571   N583    1.372   .     A
C571   C734    1.420   .     S
C572   N584    1.371   .     A
C572   C895    1.420   1_545 S
C573   N583    1.372   .     A
C573   C732    1.420   .     S
N583   Zn593   2.017   .     S
N584   Zn594   2.017   .     S
O585   Zn593   2.000   .     S
O586   Zn594   2.000   .     S
O587   Zn593   2.000   .     S
O588   Zn594   2.000   .     S
O589   Zn593   2.004   .     S
O590   Zn594   2.004   .     S
O591   Zn593   2.004   .     S
O592   Zn594   2.004   .     S
Br595  C624    1.923   .     S
Br596  C625    1.920   .     S
Br597  C626    1.923   .     S
Br598  C627    1.920   .     S
Br599  C628    1.941   .     S
Br600  C604    1.940   .     S
Br601  C605    1.941   .     S
Br602  C606    1.940   .     S
C603   O639    1.294   .     A
C603   C621    1.444   .     S
C603   O642    1.293   .     A
C604   C620    1.408   .     A
C604   C498    1.379   1_655 S
C605   C620    1.409   .     A
C605   C520    1.380   1_655 S
C606   C621    1.408   .     A
C607   C611    1.379   .     A
C607   H629    1.083   .     S
C607   C618    1.399   .     A
C608   C612    1.382   .     A
C608   H630    1.083   .     S
C608   C619    1.400   .     A
C609   C619    1.399   .     A
C609   H631    1.083   .     S
C609   C613    1.379   .     A
C610   C615    1.382   .     A
C610   C618    1.400   .     A
C610   H632    1.083   .     S
C611   C616    1.398   .     A
C611   H633    1.080   .     S
C612   C617    1.400   .     A
C612   H634    1.084   .     S
C613   C617    1.398   .     A
C613   H635    1.080   .     S
C614   C620    1.444   .     S
C614   O641    1.294   .     A
C614   O640    1.293   .     A
C615   C616    1.400   .     A
C615   H636    1.084   .     S
C616   C622    1.440   .     S
C617   C623    1.440   .     S
C619   C132    1.447   1_556 S
C621   C628    1.409   .     A
C622   O643    1.292   .     A
C622   O646    1.290   .     A
C623   O644    1.290   .     A
C623   O645    1.292   .     A
C624   N638    1.371   .     A
C624   C951    1.420   1_545 S
C625   N637    1.372   .     A
C625   C788    1.420   .     S
C626   N638    1.371   .     A
C626   C949    1.420   1_545 S
C627   N637    1.372   .     A
C627   C786    1.420   .     S
N637   Zn647   2.017   .     S
N638   Zn648   2.017   .     S
O639   Zn647   2.000   .     S
O640   Zn648   2.000   .     S
O641   Zn647   2.000   .     S
O642   Zn648   2.000   .     S
O643   Zn647   2.004   .     S
O644   Zn648   2.004   .     S
O645   Zn647   2.004   .     S
O646   Zn648   2.004   .     S
Br649  C678    1.923   .     S
Br650  C679    1.920   .     S
Br651  C680    1.923   .     S
Br652  C681    1.920   .     S
Br653  C682    1.941   .     S
Br654  C658    1.940   .     S
Br655  C659    1.941   .     S
Br656  C660    1.940   .     S
C657   O693    1.294   .     A
C657   C675    1.444   .     S
C657   O696    1.293   .     A
C658   C674    1.408   .     A
C658   C714    1.379   .     S
C659   C674    1.409   .     A
C659   C736    1.380   .     S
C660   C675    1.408   .     A
C660   C766    1.379   1_455 S
C661   C665    1.379   .     A
C661   H683    1.083   .     S
C661   C672    1.399   .     A
C662   C666    1.382   .     A
C662   H684    1.083   .     S
C662   C673    1.400   .     A
C663   C673    1.399   .     A
C663   H685    1.083   .     S
C663   C667    1.379   .     A
C664   C669    1.382   .     A
C664   C672    1.400   .     A
C664   H686    1.083   .     S
C665   C670    1.398   .     A
C665   H687    1.080   .     S
C666   C671    1.400   .     A
C666   H688    1.084   .     S
C667   C671    1.398   .     A
C667   H689    1.080   .     S
C668   C674    1.444   .     S
C668   O695    1.294   .     A
C668   O694    1.293   .     A
C669   C670    1.400   .     A
C669   H690    1.084   .     S
C670   C676    1.440   .     S
C671   C677    1.440   .     S
C673   C186    1.447   1_556 S
C675   C682    1.409   .     A
C676   O697    1.292   .     A
C676   O700    1.290   .     A
C677   O698    1.290   .     A
C677   O699    1.292   .     A
C678   N692    1.371   .     A
C679   N691    1.372   .     A
C679   C842    1.420   .     S
C680   N692    1.371   .     A
C681   N691    1.372   .     A
C681   C840    1.420   .     S
C682   C767    1.380   1_455 S
N691   Zn701   2.017   .     S
N692   Zn702   2.017   .     S
O693   Zn701   2.000   .     S
O694   Zn702   2.000   .     S
O695   Zn701   2.000   .     S
O696   Zn702   2.000   .     S
O697   Zn701   2.004   .     S
O698   Zn702   2.004   .     S
O699   Zn701   2.004   .     S
O700   Zn702   2.004   .     S
Br703  C732    1.923   .     S
Br704  C733    1.920   .     S
Br705  C734    1.923   .     S
Br706  C735    1.920   .     S
Br707  C736    1.941   .     S
Br708  C712    1.940   .     S
Br709  C713    1.941   .     S
Br710  C714    1.940   .     S
C711   O747    1.294   .     A
C711   C729    1.444   .     S
C711   O750    1.293   .     A
C712   C728    1.408   .     A
C712   C768    1.379   .     S
C713   C728    1.409   .     A
C713   C790    1.380   .     S
C714   C729    1.408   .     A
C715   C719    1.379   .     A
C715   H737    1.083   .     S
C715   C726    1.399   .     A
C716   C720    1.382   .     A
C716   H738    1.083   .     S
C716   C727    1.400   .     A
C717   C727    1.399   .     A
C717   H739    1.083   .     S
C717   C721    1.379   .     A
C718   C723    1.382   .     A
C718   C726    1.400   .     A
C718   H740    1.083   .     S
C719   C724    1.398   .     A
C719   H741    1.080   .     S
C720   C725    1.400   .     A
C720   H742    1.084   .     S
C721   C725    1.398   .     A
C721   H743    1.080   .     S
C722   C728    1.444   .     S
C722   O749    1.294   .     A
C722   O748    1.293   .     A
C723   C724    1.400   .     A
C723   H744    1.084   .     S
C724   C730    1.440   .     S
C725   C731    1.440   .     S
C727   C240    1.447   1_556 S
C729   C736    1.409   .     A
C730   O751    1.292   .     A
C730   O754    1.290   .     A
C731   O752    1.290   .     A
C731   O753    1.292   .     A
C732   N746    1.371   .     A
C733   N745    1.372   .     A
C733   C896    1.420   .     S
C734   N746    1.371   .     A
C735   N745    1.372   .     A
C735   C894    1.420   .     S
N745   Zn755   2.017   .     S
N746   Zn756   2.017   .     S
O747   Zn755   2.000   .     S
O748   Zn756   2.000   .     S
O749   Zn755   2.000   .     S
O750   Zn756   2.000   .     S
O751   Zn755   2.004   .     S
O752   Zn756   2.004   .     S
O753   Zn755   2.004   .     S
O754   Zn756   2.004   .     S
Br757  C786    1.923   .     S
Br758  C787    1.920   .     S
Br759  C788    1.923   .     S
Br760  C789    1.920   .     S
Br761  C790    1.941   .     S
Br762  C766    1.940   .     S
Br763  C767    1.941   .     S
Br764  C768    1.940   .     S
C765   O801    1.294   .     A
C765   C783    1.444   .     S
C765   O804    1.293   .     A
C766   C782    1.408   .     A
C766   C660    1.379   1_655 S
C767   C782    1.409   .     A
C767   C682    1.380   1_655 S
C768   C783    1.408   .     A
C769   C773    1.379   .     A
C769   H791    1.083   .     S
C769   C780    1.399   .     A
C770   C774    1.382   .     A
C770   H792    1.083   .     S
C770   C781    1.400   .     A
C771   C781    1.399   .     A
C771   H793    1.083   .     S
C771   C775    1.379   .     A
C772   C777    1.382   .     A
C772   C780    1.400   .     A
C772   H794    1.083   .     S
C773   C778    1.398   .     A
C773   H795    1.080   .     S
C774   C779    1.400   .     A
C774   H796    1.084   .     S
C775   C779    1.398   .     A
C775   H797    1.080   .     S
C776   C782    1.444   .     S
C776   O803    1.294   .     A
C776   O802    1.293   .     A
C777   C778    1.400   .     A
C777   H798    1.084   .     S
C778   C784    1.440   .     S
C779   C785    1.440   .     S
C781   C294    1.447   1_556 S
C783   C790    1.409   .     A
C784   O805    1.292   .     A
C784   O808    1.290   .     A
C785   O806    1.290   .     A
C785   O807    1.292   .     A
C786   N800    1.371   .     A
C787   N799    1.372   .     A
C787   C950    1.420   .     S
C788   N800    1.371   .     A
C789   N799    1.372   .     A
C789   C948    1.420   .     S
N799   Zn809   2.017   .     S
N800   Zn810   2.017   .     S
O801   Zn809   2.000   .     S
O802   Zn810   2.000   .     S
O803   Zn809   2.000   .     S
O804   Zn810   2.000   .     S
O805   Zn809   2.004   .     S
O806   Zn810   2.004   .     S
O807   Zn809   2.004   .     S
O808   Zn810   2.004   .     S
Br811  C840    1.923   .     S
Br812  C841    1.920   .     S
Br813  C842    1.923   .     S
Br814  C843    1.920   .     S
Br815  C844    1.941   .     S
Br816  C820    1.940   .     S
Br817  C821    1.941   .     S
Br818  C822    1.940   .     S
C819   O855    1.294   .     A
C819   C837    1.444   .     S
C819   O858    1.293   .     A
C820   C836    1.408   .     A
C820   C876    1.379   .     S
C821   C836    1.409   .     A
C821   C898    1.380   .     S
C822   C837    1.408   .     A
C822   C928    1.379   1_455 S
C823   C827    1.379   .     A
C823   H845    1.083   .     S
C823   C834    1.399   .     A
C824   C828    1.382   .     A
C824   H846    1.083   .     S
C824   C835    1.400   .     A
C825   C835    1.399   .     A
C825   H847    1.083   .     S
C825   C829    1.379   .     A
C826   C831    1.382   .     A
C826   C834    1.400   .     A
C826   H848    1.083   .     S
C827   C832    1.398   .     A
C827   H849    1.080   .     S
C828   C833    1.400   .     A
C828   H850    1.084   .     S
C829   C833    1.398   .     A
C829   H851    1.080   .     S
C830   C836    1.444   .     S
C830   O857    1.294   .     A
C830   O856    1.293   .     A
C831   C832    1.400   .     A
C831   H852    1.084   .     S
C832   C838    1.440   .     S
C833   C839    1.440   .     S
C835   C348    1.447   1_556 S
C837   C844    1.409   .     A
C838   O859    1.292   .     A
C838   O862    1.290   .     A
C839   O860    1.290   .     A
C839   O861    1.292   .     A
C840   N854    1.371   .     A
C841   N853    1.372   .     A
C841   C518    1.420   1_565 S
C842   N854    1.371   .     A
C843   N853    1.372   .     A
C843   C516    1.420   1_565 S
C844   C929    1.380   1_455 S
N853   Zn863   2.017   .     S
N854   Zn864   2.017   .     S
O855   Zn863   2.000   .     S
O856   Zn864   2.000   .     S
O857   Zn863   2.000   .     S
O858   Zn864   2.000   .     S
O859   Zn863   2.004   .     S
O860   Zn864   2.004   .     S
O861   Zn863   2.004   .     S
O862   Zn864   2.004   .     S
Br865  C894    1.923   .     S
Br866  C895    1.920   .     S
Br867  C896    1.923   .     S
Br868  C897    1.920   .     S
Br869  C898    1.941   .     S
Br870  C874    1.940   .     S
Br871  C875    1.941   .     S
Br872  C876    1.940   .     S
C873   O909    1.294   .     A
C873   C891    1.444   .     S
C873   O912    1.293   .     A
C874   C890    1.408   .     A
C874   C930    1.379   .     S
C875   C890    1.409   .     A
C875   C952    1.380   .     S
C876   C891    1.408   .     A
C877   C881    1.379   .     A
C877   H899    1.083   .     S
C877   C888    1.399   .     A
C878   C882    1.382   .     A
C878   H900    1.083   .     S
C878   C889    1.400   .     A
C879   C889    1.399   .     A
C879   H901    1.083   .     S
C879   C883    1.379   .     A
C880   C885    1.382   .     A
C880   C888    1.400   .     A
C880   H902    1.083   .     S
C881   C886    1.398   .     A
C881   H903    1.080   .     S
C882   C887    1.400   .     A
C882   H904    1.084   .     S
C883   C887    1.398   .     A
C883   H905    1.080   .     S
C884   C890    1.444   .     S
C884   O911    1.294   .     A
C884   O910    1.293   .     A
C885   C886    1.400   .     A
C885   H906    1.084   .     S
C886   C892    1.440   .     S
C887   C893    1.440   .     S
C889   C402    1.447   1_556 S
C891   C898    1.409   .     A
C892   O913    1.292   .     A
C892   O916    1.290   .     A
C893   O914    1.290   .     A
C893   O915    1.292   .     A
C894   N908    1.371   .     A
C895   N907    1.372   .     A
C895   C572    1.420   1_565 S
C896   N908    1.371   .     A
C897   N907    1.372   .     A
C897   C570    1.420   1_565 S
N907   Zn917   2.017   .     S
N908   Zn918   2.017   .     S
O909   Zn917   2.000   .     S
O910   Zn918   2.000   .     S
O911   Zn917   2.000   .     S
O912   Zn918   2.000   .     S
O913   Zn917   2.004   .     S
O914   Zn918   2.004   .     S
O915   Zn917   2.004   .     S
O916   Zn918   2.004   .     S
Br919  C948    1.923   .     S
Br920  C949    1.920   .     S
Br921  C950    1.923   .     S
Br922  C951    1.920   .     S
Br923  C952    1.941   .     S
Br924  C928    1.940   .     S
Br925  C929    1.941   .     S
Br926  C930    1.940   .     S
C927   O963    1.294   .     A
C927   C945    1.444   .     S
C927   O966    1.293   .     A
C928   C944    1.408   .     A
C928   C822    1.379   1_655 S
C929   C944    1.409   .     A
C929   C844    1.380   1_655 S
C930   C945    1.408   .     A
C931   C935    1.379   .     A
C931   H953    1.083   .     S
C931   C942    1.399   .     A
C932   C936    1.382   .     A
C932   H954    1.083   .     S
C932   C943    1.400   .     A
C933   C943    1.399   .     A
C933   H955    1.083   .     S
C933   C937    1.379   .     A
C934   C939    1.382   .     A
C934   C942    1.400   .     A
C934   H956    1.083   .     S
C935   C940    1.398   .     A
C935   H957    1.080   .     S
C936   C941    1.400   .     A
C936   H958    1.084   .     S
C937   C941    1.398   .     A
C937   H959    1.080   .     S
C938   C944    1.444   .     S
C938   O965    1.294   .     A
C938   O964    1.293   .     A
C939   C940    1.400   .     A
C939   H960    1.084   .     S
C940   C946    1.440   .     S
C941   C947    1.440   .     S
C943   C456    1.447   1_556 S
C945   C952    1.409   .     A
C946   O967    1.292   .     A
C946   O970    1.290   .     A
C947   O968    1.290   .     A
C947   O969    1.292   .     A
C948   N962    1.371   .     A
C949   N961    1.372   .     A
C949   C626    1.420   1_565 S
C950   N962    1.371   .     A
C951   N961    1.372   .     A
C951   C624    1.420   1_565 S
N961   Zn971   2.017   .     S
N962   Zn972   2.017   .     S
O963   Zn971   2.000   .     S
O964   Zn972   2.000   .     S
O965   Zn971   2.000   .     S
O966   Zn972   2.000   .     S
O967   Zn971   2.004   .     S
O968   Zn972   2.004   .     S
O969   Zn971   2.004   .     S
O970   Zn972   2.004   .     S
