data_str_m3_o10_o18_pcu_sym.16
_audit_creation_date              2020-01-03
_audit_creation_method            'Materials Studio'
_symmetry_space_group_name_H-M    'P1'
_symmetry_Int_Tables_number       1
_symmetry_cell_setting            triclinic
loop_
_symmetry_equiv_pos_as_xyz
  x,y,z
_cell_length_a                    23.5806
_cell_length_b                    25.7315
_cell_length_c                    27.4864
_cell_angle_alpha                 93.9412
_cell_angle_beta                  93.1328
_cell_angle_gamma                 93.5833
loop_
_atom_site_label
_atom_site_type_symbol
_atom_site_fract_x
_atom_site_fract_y
_atom_site_fract_z
_atom_site_U_iso_or_equiv
_atom_site_adp_type
_atom_site_occupancy
C1     C     0.01474   0.26478   0.24967   0.00000  Uiso   1.00
C2     C     0.31215   0.16202   0.15897   0.00000  Uiso   1.00
C3     C     0.03057   0.17228   0.39379   0.00000  Uiso   1.00
C4     C     0.30002   0.15076   0.10696   0.00000  Uiso   1.00
C5     C     0.01107   0.20666   0.47456   0.00000  Uiso   1.00
C6     C     0.30694   0.09437   0.03395   0.00000  Uiso   1.00
C7     C     0.32840   0.19840   0.42501   0.00000  Uiso   1.00
C8     C     0.32896   0.11361   0.08024   0.00000  Uiso   1.00
C9     C     0.07892   0.15066   0.41247   0.00000  Uiso   1.00
C10    C     0.25091   0.16973   0.08702   0.00000  Uiso   1.00
C11    C     0.09578   0.15808   0.46198   0.00000  Uiso   1.00
C12    C     0.31859   0.06856   0.25030   0.00000  Uiso   1.00
C13    C     0.22443   0.14649   0.04371   0.00000  Uiso   1.00
C14    C     0.06236   0.18855   0.49283   0.00000  Uiso   1.00
C15    C     0.25427   0.10989   0.01584   0.00000  Uiso   1.00
C16    C     0.14742   0.13967   0.48050   0.00000  Uiso   1.00
C17    C     0.16900   0.15849   0.02787   0.00000  Uiso   1.00
C18    C     0.06496   0.00657   0.29859   0.00000  Uiso   1.00
C19    C     0.26844   0.32680   0.20130   0.00000  Uiso   1.00
C20    C     0.13385   0.18735   0.05841   0.00000  Uiso   1.00
C21    C     0.17819   0.10327   0.45327   0.00000  Uiso   1.00
C22    C     0.08121   0.20167   0.04112   0.00000  Uiso   1.00
C23    C     0.23054   0.08842   0.47098   0.00000  Uiso   1.00
C24    C     0.02128   0.31936   0.25897   0.00000  Uiso   1.00
C25    C     0.31207   0.01398   0.24096   0.00000  Uiso   1.00
C26    C     0.02095   0.17023   0.34108   0.00000  Uiso   1.00
F27    F     0.16626   0.11599   0.20647   0.00000  Uiso   1.00
F28    F     0.16707   0.21739   0.29347   0.00000  Uiso   1.00
H29    H     0.05572   0.22415   0.06541   0.00000  Uiso   1.00
H30    H     0.16182   0.08383   0.41891   0.00000  Uiso   1.00
H31    H     0.05977   0.04270   0.32019   0.00000  Uiso   1.00
H32    H     0.27349   0.29055   0.17985   0.00000  Uiso   1.00
H33    H     0.25251   0.05998   0.44944   0.00000  Uiso   1.00
H34    H     0.23281   0.20128   0.10747   0.00000  Uiso   1.00
H35    H     0.10504   0.13126   0.38689   0.00000  Uiso   1.00
H36    H     0.03387   0.09834   0.09569   0.00000  Uiso   1.00
H37    H     0.29014   0.21469   0.41081   0.00000  Uiso   1.00
H38    H     0.31792   0.22882   0.49818   0.00000  Uiso   1.00
H39    H     0.32975   0.06590   0.01327   0.00000  Uiso   1.00
H40    H     0.14508   0.19820   0.09646   0.00000  Uiso   1.00
N41    N     0.14695   0.15216   0.23739   0.00000  Uiso   1.00
N42    N     0.18638   0.18117   0.26260   0.00000  Uiso   1.00
O43    O     0.29719   0.24631   0.25309   0.00000  Uiso   1.00
O44    O     0.22683   0.01760   0.19148   0.00000  Uiso   1.00
O45    O     0.03614   0.08702   0.24691   0.00000  Uiso   1.00
O46    O     0.05822   0.23702   0.24501   0.00000  Uiso   1.00
O47    O     0.27512   0.09632   0.25498   0.00000  Uiso   1.00
O48    O     0.30328   0.17397   0.32247   0.00000  Uiso   1.00
O49    O     0.03005   0.15937   0.17753   0.00000  Uiso   1.00
O50    O     0.06431   0.16467   0.31439   0.00000  Uiso   1.00
O51    O     0.26902   0.16866   0.18561   0.00000  Uiso   1.00
O52    O     0.10678   0.31597   0.30815   0.00000  Uiso   1.00
Zn53   Zn    0.27033   0.17287   0.25539   0.00000  Uiso   1.00
Zn54   Zn    0.06300   0.16046   0.24460   0.00000  Uiso   1.00
C55    C     0.34807   0.26478   0.24967   0.00000  Uiso   1.00
C56    C     0.64548   0.16202   0.15897   0.00000  Uiso   1.00
C57    C     0.36390   0.17228   0.39379   0.00000  Uiso   1.00
C58    C     0.63335   0.15076   0.10696   0.00000  Uiso   1.00
C59    C     0.34441   0.20666   0.47456   0.00000  Uiso   1.00
C60    C     0.64027   0.09437   0.03395   0.00000  Uiso   1.00
C61    C     0.66173   0.19840   0.42501   0.00000  Uiso   1.00
C62    C     0.66230   0.11361   0.08024   0.00000  Uiso   1.00
C63    C     0.41226   0.15066   0.41247   0.00000  Uiso   1.00
C64    C     0.58424   0.16973   0.08702   0.00000  Uiso   1.00
C65    C     0.42911   0.15808   0.46198   0.00000  Uiso   1.00
C66    C     0.65193   0.06856   0.25030   0.00000  Uiso   1.00
C67    C     0.55777   0.14649   0.04371   0.00000  Uiso   1.00
C68    C     0.39569   0.18855   0.49283   0.00000  Uiso   1.00
C69    C     0.58760   0.10989   0.01584   0.00000  Uiso   1.00
C70    C     0.48076   0.13967   0.48050   0.00000  Uiso   1.00
C71    C     0.50234   0.15849   0.02787   0.00000  Uiso   1.00
C72    C     0.39829   0.00657   0.29859   0.00000  Uiso   1.00
C73    C     0.60177   0.32680   0.20130   0.00000  Uiso   1.00
C74    C     0.46718   0.18735   0.05841   0.00000  Uiso   1.00
C75    C     0.51152   0.10327   0.45327   0.00000  Uiso   1.00
C76    C     0.41454   0.20167   0.04112   0.00000  Uiso   1.00
C77    C     0.56388   0.08842   0.47098   0.00000  Uiso   1.00
C78    C     0.35461   0.31936   0.25897   0.00000  Uiso   1.00
C79    C     0.64540   0.01398   0.24096   0.00000  Uiso   1.00
C80    C     0.35429   0.17023   0.34108   0.00000  Uiso   1.00
F81    F     0.49959   0.11599   0.20647   0.00000  Uiso   1.00
F82    F     0.50041   0.21739   0.29347   0.00000  Uiso   1.00
H83    H     0.38905   0.22415   0.06541   0.00000  Uiso   1.00
H84    H     0.49515   0.08383   0.41891   0.00000  Uiso   1.00
H85    H     0.39310   0.04270   0.32019   0.00000  Uiso   1.00
H86    H     0.60682   0.29055   0.17985   0.00000  Uiso   1.00
H87    H     0.58584   0.05998   0.44944   0.00000  Uiso   1.00
H88    H     0.56614   0.20128   0.10747   0.00000  Uiso   1.00
H89    H     0.43837   0.13126   0.38689   0.00000  Uiso   1.00
H90    H     0.36720   0.09834   0.09569   0.00000  Uiso   1.00
H91    H     0.62347   0.21469   0.41081   0.00000  Uiso   1.00
H92    H     0.65126   0.22882   0.49818   0.00000  Uiso   1.00
H93    H     0.66308   0.06590   0.01327   0.00000  Uiso   1.00
H94    H     0.47841   0.19820   0.09646   0.00000  Uiso   1.00
N95    N     0.48029   0.15216   0.23739   0.00000  Uiso   1.00
N96    N     0.51971   0.18117   0.26260   0.00000  Uiso   1.00
O97    O     0.63052   0.24631   0.25309   0.00000  Uiso   1.00
O98    O     0.56016   0.01760   0.19148   0.00000  Uiso   1.00
O99    O     0.36948   0.08702   0.24691   0.00000  Uiso   1.00
O100   O     0.39155   0.23702   0.24501   0.00000  Uiso   1.00
O101   O     0.60845   0.09632   0.25498   0.00000  Uiso   1.00
O102   O     0.63662   0.17397   0.32247   0.00000  Uiso   1.00
O103   O     0.36338   0.15937   0.17753   0.00000  Uiso   1.00
O104   O     0.39764   0.16467   0.31439   0.00000  Uiso   1.00
O105   O     0.60236   0.16866   0.18561   0.00000  Uiso   1.00
O106   O     0.44012   0.31597   0.30815   0.00000  Uiso   1.00
Zn107  Zn    0.60366   0.17287   0.25539   0.00000  Uiso   1.00
Zn108  Zn    0.39634   0.16046   0.24460   0.00000  Uiso   1.00
C109   C     0.68141   0.26478   0.24967   0.00000  Uiso   1.00
C110   C     0.97882   0.16202   0.15897   0.00000  Uiso   1.00
C111   C     0.69723   0.17228   0.39379   0.00000  Uiso   1.00
C112   C     0.96668   0.15076   0.10696   0.00000  Uiso   1.00
C113   C     0.67774   0.20666   0.47456   0.00000  Uiso   1.00
C114   C     0.97361   0.09437   0.03395   0.00000  Uiso   1.00
C115   C     0.99506   0.19840   0.42501   0.00000  Uiso   1.00
C116   C     0.99563   0.11361   0.08024   0.00000  Uiso   1.00
C117   C     0.74559   0.15066   0.41247   0.00000  Uiso   1.00
C118   C     0.91757   0.16973   0.08702   0.00000  Uiso   1.00
C119   C     0.76245   0.15808   0.46198   0.00000  Uiso   1.00
C120   C     0.98526   0.06856   0.25030   0.00000  Uiso   1.00
C121   C     0.89110   0.14649   0.04371   0.00000  Uiso   1.00
C122   C     0.72903   0.18855   0.49283   0.00000  Uiso   1.00
C123   C     0.92093   0.10989   0.01584   0.00000  Uiso   1.00
C124   C     0.81409   0.13967   0.48050   0.00000  Uiso   1.00
C125   C     0.83567   0.15849   0.02787   0.00000  Uiso   1.00
C126   C     0.73162   0.00657   0.29859   0.00000  Uiso   1.00
C127   C     0.93510   0.32680   0.20130   0.00000  Uiso   1.00
C128   C     0.80052   0.18735   0.05841   0.00000  Uiso   1.00
C129   C     0.84486   0.10327   0.45327   0.00000  Uiso   1.00
C130   C     0.74787   0.20167   0.04112   0.00000  Uiso   1.00
C131   C     0.89721   0.08842   0.47098   0.00000  Uiso   1.00
C132   C     0.68795   0.31936   0.25897   0.00000  Uiso   1.00
C133   C     0.97873   0.01398   0.24096   0.00000  Uiso   1.00
C134   C     0.68762   0.17023   0.34108   0.00000  Uiso   1.00
F135   F     0.83292   0.11599   0.20647   0.00000  Uiso   1.00
F136   F     0.83374   0.21739   0.29347   0.00000  Uiso   1.00
H137   H     0.72238   0.22415   0.06541   0.00000  Uiso   1.00
H138   H     0.82848   0.08383   0.41891   0.00000  Uiso   1.00
H139   H     0.72643   0.04270   0.32019   0.00000  Uiso   1.00
H140   H     0.94015   0.29055   0.17985   0.00000  Uiso   1.00
H141   H     0.91918   0.05998   0.44944   0.00000  Uiso   1.00
H142   H     0.89947   0.20128   0.10747   0.00000  Uiso   1.00
H143   H     0.77171   0.13126   0.38689   0.00000  Uiso   1.00
H144   H     0.70053   0.09834   0.09569   0.00000  Uiso   1.00
H145   H     0.95681   0.21469   0.41081   0.00000  Uiso   1.00
H146   H     0.98459   0.22882   0.49818   0.00000  Uiso   1.00
H147   H     0.99641   0.06590   0.01327   0.00000  Uiso   1.00
H148   H     0.81174   0.19820   0.09646   0.00000  Uiso   1.00
N149   N     0.81362   0.15216   0.23739   0.00000  Uiso   1.00
N150   N     0.85305   0.18117   0.26260   0.00000  Uiso   1.00
O151   O     0.96386   0.24631   0.25309   0.00000  Uiso   1.00
O152   O     0.89350   0.01760   0.19148   0.00000  Uiso   1.00
O153   O     0.70281   0.08702   0.24691   0.00000  Uiso   1.00
O154   O     0.72488   0.23702   0.24501   0.00000  Uiso   1.00
O155   O     0.94178   0.09632   0.25498   0.00000  Uiso   1.00
O156   O     0.96995   0.17397   0.32247   0.00000  Uiso   1.00
O157   O     0.69672   0.15937   0.17753   0.00000  Uiso   1.00
O158   O     0.73098   0.16467   0.31439   0.00000  Uiso   1.00
O159   O     0.93569   0.16866   0.18561   0.00000  Uiso   1.00
O160   O     0.77345   0.31597   0.30815   0.00000  Uiso   1.00
Zn161  Zn    0.93700   0.17287   0.25539   0.00000  Uiso   1.00
Zn162  Zn    0.72967   0.16046   0.24460   0.00000  Uiso   1.00
C163   C     0.01474   0.59811   0.24967   0.00000  Uiso   1.00
C164   C     0.31215   0.49535   0.15897   0.00000  Uiso   1.00
C165   C     0.03057   0.50562   0.39379   0.00000  Uiso   1.00
C166   C     0.30002   0.48409   0.10696   0.00000  Uiso   1.00
C167   C     0.01107   0.53999   0.47456   0.00000  Uiso   1.00
C168   C     0.30694   0.42771   0.03395   0.00000  Uiso   1.00
C169   C     0.32840   0.53173   0.42501   0.00000  Uiso   1.00
C170   C     0.32896   0.44694   0.08024   0.00000  Uiso   1.00
C171   C     0.07892   0.48399   0.41247   0.00000  Uiso   1.00
C172   C     0.25091   0.50306   0.08702   0.00000  Uiso   1.00
C173   C     0.09578   0.49141   0.46198   0.00000  Uiso   1.00
C174   C     0.31859   0.40189   0.25030   0.00000  Uiso   1.00
C175   C     0.22443   0.47982   0.04371   0.00000  Uiso   1.00
C176   C     0.06236   0.52189   0.49283   0.00000  Uiso   1.00
C177   C     0.25427   0.44322   0.01584   0.00000  Uiso   1.00
C178   C     0.14742   0.47300   0.48050   0.00000  Uiso   1.00
C179   C     0.16900   0.49182   0.02787   0.00000  Uiso   1.00
C180   C     0.06496   0.33991   0.29859   0.00000  Uiso   1.00
C181   C     0.26844   0.66013   0.20130   0.00000  Uiso   1.00
C182   C     0.13385   0.52069   0.05841   0.00000  Uiso   1.00
C183   C     0.17819   0.43660   0.45327   0.00000  Uiso   1.00
C184   C     0.08121   0.53501   0.04112   0.00000  Uiso   1.00
C185   C     0.23054   0.42175   0.47098   0.00000  Uiso   1.00
C186   C     0.02128   0.65270   0.25897   0.00000  Uiso   1.00
C187   C     0.31207   0.34731   0.24096   0.00000  Uiso   1.00
C188   C     0.02095   0.50356   0.34108   0.00000  Uiso   1.00
F189   F     0.16626   0.44933   0.20647   0.00000  Uiso   1.00
F190   F     0.16707   0.55072   0.29347   0.00000  Uiso   1.00
H191   H     0.05572   0.55748   0.06541   0.00000  Uiso   1.00
H192   H     0.16182   0.41717   0.41891   0.00000  Uiso   1.00
H193   H     0.05977   0.37603   0.32019   0.00000  Uiso   1.00
H194   H     0.27349   0.62388   0.17985   0.00000  Uiso   1.00
H195   H     0.25251   0.39332   0.44944   0.00000  Uiso   1.00
H196   H     0.23281   0.53461   0.10747   0.00000  Uiso   1.00
H197   H     0.10504   0.46459   0.38689   0.00000  Uiso   1.00
H198   H     0.03387   0.43168   0.09569   0.00000  Uiso   1.00
H199   H     0.29014   0.54802   0.41081   0.00000  Uiso   1.00
H200   H     0.31792   0.56215   0.49818   0.00000  Uiso   1.00
H201   H     0.32975   0.39924   0.01327   0.00000  Uiso   1.00
H202   H     0.14508   0.53153   0.09646   0.00000  Uiso   1.00
N203   N     0.14695   0.48550   0.23739   0.00000  Uiso   1.00
N204   N     0.18638   0.51450   0.26260   0.00000  Uiso   1.00
O205   O     0.29719   0.57964   0.25309   0.00000  Uiso   1.00
O206   O     0.22683   0.35093   0.19148   0.00000  Uiso   1.00
O207   O     0.03614   0.42036   0.24691   0.00000  Uiso   1.00
O208   O     0.05822   0.57035   0.24501   0.00000  Uiso   1.00
O209   O     0.27512   0.42965   0.25498   0.00000  Uiso   1.00
O210   O     0.30328   0.50730   0.32247   0.00000  Uiso   1.00
O211   O     0.03005   0.49270   0.17753   0.00000  Uiso   1.00
O212   O     0.06431   0.49801   0.31439   0.00000  Uiso   1.00
O213   O     0.26902   0.50199   0.18561   0.00000  Uiso   1.00
O214   O     0.10678   0.64930   0.30815   0.00000  Uiso   1.00
Zn215  Zn    0.27033   0.50621   0.25539   0.00000  Uiso   1.00
Zn216  Zn    0.06300   0.49379   0.24460   0.00000  Uiso   1.00
C217   C     0.34807   0.59811   0.24967   0.00000  Uiso   1.00
C218   C     0.64548   0.49535   0.15897   0.00000  Uiso   1.00
C219   C     0.36390   0.50562   0.39379   0.00000  Uiso   1.00
C220   C     0.63335   0.48409   0.10696   0.00000  Uiso   1.00
C221   C     0.34441   0.53999   0.47456   0.00000  Uiso   1.00
C222   C     0.64027   0.42771   0.03395   0.00000  Uiso   1.00
C223   C     0.66173   0.53173   0.42501   0.00000  Uiso   1.00
C224   C     0.66230   0.44694   0.08024   0.00000  Uiso   1.00
C225   C     0.41226   0.48399   0.41247   0.00000  Uiso   1.00
C226   C     0.58424   0.50306   0.08702   0.00000  Uiso   1.00
C227   C     0.42911   0.49141   0.46198   0.00000  Uiso   1.00
C228   C     0.65193   0.40189   0.25030   0.00000  Uiso   1.00
C229   C     0.55777   0.47982   0.04371   0.00000  Uiso   1.00
C230   C     0.39569   0.52189   0.49283   0.00000  Uiso   1.00
C231   C     0.58760   0.44322   0.01584   0.00000  Uiso   1.00
C232   C     0.48076   0.47300   0.48050   0.00000  Uiso   1.00
C233   C     0.50234   0.49182   0.02787   0.00000  Uiso   1.00
C234   C     0.39829   0.33991   0.29859   0.00000  Uiso   1.00
C235   C     0.60177   0.66013   0.20130   0.00000  Uiso   1.00
C236   C     0.46718   0.52069   0.05841   0.00000  Uiso   1.00
C237   C     0.51152   0.43660   0.45327   0.00000  Uiso   1.00
C238   C     0.41454   0.53501   0.04112   0.00000  Uiso   1.00
C239   C     0.56388   0.42175   0.47098   0.00000  Uiso   1.00
C240   C     0.35461   0.65270   0.25897   0.00000  Uiso   1.00
C241   C     0.64540   0.34731   0.24096   0.00000  Uiso   1.00
C242   C     0.35429   0.50356   0.34108   0.00000  Uiso   1.00
F243   F     0.49959   0.44933   0.20647   0.00000  Uiso   1.00
F244   F     0.50041   0.55072   0.29347   0.00000  Uiso   1.00
H245   H     0.38905   0.55748   0.06541   0.00000  Uiso   1.00
H246   H     0.49515   0.41717   0.41891   0.00000  Uiso   1.00
H247   H     0.39310   0.37603   0.32019   0.00000  Uiso   1.00
H248   H     0.60682   0.62388   0.17985   0.00000  Uiso   1.00
H249   H     0.58584   0.39332   0.44944   0.00000  Uiso   1.00
H250   H     0.56614   0.53461   0.10747   0.00000  Uiso   1.00
H251   H     0.43837   0.46459   0.38689   0.00000  Uiso   1.00
H252   H     0.36720   0.43168   0.09569   0.00000  Uiso   1.00
H253   H     0.62347   0.54802   0.41081   0.00000  Uiso   1.00
H254   H     0.65126   0.56215   0.49818   0.00000  Uiso   1.00
H255   H     0.66308   0.39924   0.01327   0.00000  Uiso   1.00
H256   H     0.47841   0.53153   0.09646   0.00000  Uiso   1.00
N257   N     0.48029   0.48550   0.23739   0.00000  Uiso   1.00
N258   N     0.51971   0.51450   0.26260   0.00000  Uiso   1.00
O259   O     0.63052   0.57964   0.25309   0.00000  Uiso   1.00
O260   O     0.56016   0.35093   0.19148   0.00000  Uiso   1.00
O261   O     0.36948   0.42036   0.24691   0.00000  Uiso   1.00
O262   O     0.39155   0.57035   0.24501   0.00000  Uiso   1.00
O263   O     0.60845   0.42965   0.25498   0.00000  Uiso   1.00
O264   O     0.63662   0.50730   0.32247   0.00000  Uiso   1.00
O265   O     0.36338   0.49270   0.17753   0.00000  Uiso   1.00
O266   O     0.39764   0.49801   0.31439   0.00000  Uiso   1.00
O267   O     0.60236   0.50199   0.18561   0.00000  Uiso   1.00
O268   O     0.44012   0.64930   0.30815   0.00000  Uiso   1.00
Zn269  Zn    0.60366   0.50621   0.25539   0.00000  Uiso   1.00
Zn270  Zn    0.39634   0.49379   0.24460   0.00000  Uiso   1.00
C271   C     0.68141   0.59811   0.24967   0.00000  Uiso   1.00
C272   C     0.97882   0.49535   0.15897   0.00000  Uiso   1.00
C273   C     0.69723   0.50562   0.39379   0.00000  Uiso   1.00
C274   C     0.96668   0.48409   0.10696   0.00000  Uiso   1.00
C275   C     0.67774   0.53999   0.47456   0.00000  Uiso   1.00
C276   C     0.97361   0.42771   0.03395   0.00000  Uiso   1.00
C277   C     0.99506   0.53173   0.42501   0.00000  Uiso   1.00
C278   C     0.99563   0.44694   0.08024   0.00000  Uiso   1.00
C279   C     0.74559   0.48399   0.41247   0.00000  Uiso   1.00
C280   C     0.91757   0.50306   0.08702   0.00000  Uiso   1.00
C281   C     0.76245   0.49141   0.46198   0.00000  Uiso   1.00
C282   C     0.98526   0.40189   0.25030   0.00000  Uiso   1.00
C283   C     0.89110   0.47982   0.04371   0.00000  Uiso   1.00
C284   C     0.72903   0.52189   0.49283   0.00000  Uiso   1.00
C285   C     0.92093   0.44322   0.01584   0.00000  Uiso   1.00
C286   C     0.81409   0.47300   0.48050   0.00000  Uiso   1.00
C287   C     0.83567   0.49182   0.02787   0.00000  Uiso   1.00
C288   C     0.73162   0.33991   0.29859   0.00000  Uiso   1.00
C289   C     0.93510   0.66013   0.20130   0.00000  Uiso   1.00
C290   C     0.80052   0.52069   0.05841   0.00000  Uiso   1.00
C291   C     0.84486   0.43660   0.45327   0.00000  Uiso   1.00
C292   C     0.74787   0.53501   0.04112   0.00000  Uiso   1.00
C293   C     0.89721   0.42175   0.47098   0.00000  Uiso   1.00
C294   C     0.68795   0.65270   0.25897   0.00000  Uiso   1.00
C295   C     0.97873   0.34731   0.24096   0.00000  Uiso   1.00
C296   C     0.68762   0.50356   0.34108   0.00000  Uiso   1.00
F297   F     0.83292   0.44933   0.20647   0.00000  Uiso   1.00
F298   F     0.83374   0.55072   0.29347   0.00000  Uiso   1.00
H299   H     0.72238   0.55748   0.06541   0.00000  Uiso   1.00
H300   H     0.82848   0.41717   0.41891   0.00000  Uiso   1.00
H301   H     0.72643   0.37603   0.32019   0.00000  Uiso   1.00
H302   H     0.94015   0.62388   0.17985   0.00000  Uiso   1.00
H303   H     0.91918   0.39332   0.44944   0.00000  Uiso   1.00
H304   H     0.89947   0.53461   0.10747   0.00000  Uiso   1.00
H305   H     0.77171   0.46459   0.38689   0.00000  Uiso   1.00
H306   H     0.70053   0.43168   0.09569   0.00000  Uiso   1.00
H307   H     0.95681   0.54802   0.41081   0.00000  Uiso   1.00
H308   H     0.98459   0.56215   0.49818   0.00000  Uiso   1.00
H309   H     0.99641   0.39924   0.01327   0.00000  Uiso   1.00
H310   H     0.81174   0.53153   0.09646   0.00000  Uiso   1.00
N311   N     0.81362   0.48550   0.23739   0.00000  Uiso   1.00
N312   N     0.85305   0.51450   0.26260   0.00000  Uiso   1.00
O313   O     0.96386   0.57964   0.25309   0.00000  Uiso   1.00
O314   O     0.89350   0.35093   0.19148   0.00000  Uiso   1.00
O315   O     0.70281   0.42036   0.24691   0.00000  Uiso   1.00
O316   O     0.72488   0.57035   0.24501   0.00000  Uiso   1.00
O317   O     0.94178   0.42965   0.25498   0.00000  Uiso   1.00
O318   O     0.96995   0.50730   0.32247   0.00000  Uiso   1.00
O319   O     0.69672   0.49270   0.17753   0.00000  Uiso   1.00
O320   O     0.73098   0.49801   0.31439   0.00000  Uiso   1.00
O321   O     0.93569   0.50199   0.18561   0.00000  Uiso   1.00
O322   O     0.77345   0.64930   0.30815   0.00000  Uiso   1.00
Zn323  Zn    0.93700   0.50621   0.25539   0.00000  Uiso   1.00
Zn324  Zn    0.72967   0.49379   0.24460   0.00000  Uiso   1.00
C325   C     0.01474   0.93145   0.24967   0.00000  Uiso   1.00
C326   C     0.31215   0.82868   0.15897   0.00000  Uiso   1.00
C327   C     0.03057   0.83895   0.39379   0.00000  Uiso   1.00
C328   C     0.30002   0.81743   0.10696   0.00000  Uiso   1.00
C329   C     0.01107   0.87332   0.47456   0.00000  Uiso   1.00
C330   C     0.30694   0.76104   0.03395   0.00000  Uiso   1.00
C331   C     0.32840   0.86506   0.42501   0.00000  Uiso   1.00
C332   C     0.32896   0.78028   0.08024   0.00000  Uiso   1.00
C333   C     0.07892   0.81733   0.41247   0.00000  Uiso   1.00
C334   C     0.25091   0.83640   0.08702   0.00000  Uiso   1.00
C335   C     0.09578   0.82475   0.46198   0.00000  Uiso   1.00
C336   C     0.31859   0.73522   0.25030   0.00000  Uiso   1.00
C337   C     0.22443   0.81316   0.04371   0.00000  Uiso   1.00
C338   C     0.06236   0.85522   0.49283   0.00000  Uiso   1.00
C339   C     0.25427   0.77655   0.01584   0.00000  Uiso   1.00
C340   C     0.14742   0.80634   0.48050   0.00000  Uiso   1.00
C341   C     0.16900   0.82515   0.02787   0.00000  Uiso   1.00
C342   C     0.06496   0.67324   0.29859   0.00000  Uiso   1.00
C343   C     0.26844   0.99346   0.20130   0.00000  Uiso   1.00
C344   C     0.13385   0.85402   0.05841   0.00000  Uiso   1.00
C345   C     0.17819   0.76993   0.45327   0.00000  Uiso   1.00
C346   C     0.08121   0.86834   0.04112   0.00000  Uiso   1.00
C347   C     0.23054   0.75508   0.47098   0.00000  Uiso   1.00
C348   C     0.02128   0.98603   0.25897   0.00000  Uiso   1.00
C349   C     0.31207   0.68064   0.24096   0.00000  Uiso   1.00
C350   C     0.02095   0.83690   0.34108   0.00000  Uiso   1.00
F351   F     0.16626   0.78266   0.20647   0.00000  Uiso   1.00
F352   F     0.16707   0.88406   0.29347   0.00000  Uiso   1.00
H353   H     0.05572   0.89082   0.06541   0.00000  Uiso   1.00
H354   H     0.16182   0.75050   0.41891   0.00000  Uiso   1.00
H355   H     0.05977   0.70936   0.32019   0.00000  Uiso   1.00
H356   H     0.27349   0.95721   0.17985   0.00000  Uiso   1.00
H357   H     0.25251   0.72665   0.44944   0.00000  Uiso   1.00
H358   H     0.23281   0.86795   0.10747   0.00000  Uiso   1.00
H359   H     0.10504   0.79792   0.38689   0.00000  Uiso   1.00
H360   H     0.03387   0.76501   0.09569   0.00000  Uiso   1.00
H361   H     0.29014   0.88136   0.41081   0.00000  Uiso   1.00
H362   H     0.31792   0.89549   0.49818   0.00000  Uiso   1.00
H363   H     0.32975   0.73257   0.01327   0.00000  Uiso   1.00
H364   H     0.14508   0.86486   0.09646   0.00000  Uiso   1.00
N365   N     0.14695   0.81883   0.23739   0.00000  Uiso   1.00
N366   N     0.18638   0.84784   0.26260   0.00000  Uiso   1.00
O367   O     0.29719   0.91298   0.25309   0.00000  Uiso   1.00
O368   O     0.22683   0.68426   0.19148   0.00000  Uiso   1.00
O369   O     0.03614   0.75369   0.24691   0.00000  Uiso   1.00
O370   O     0.05822   0.90368   0.24501   0.00000  Uiso   1.00
O371   O     0.27512   0.76298   0.25498   0.00000  Uiso   1.00
O372   O     0.30328   0.84063   0.32247   0.00000  Uiso   1.00
O373   O     0.03005   0.82603   0.17753   0.00000  Uiso   1.00
O374   O     0.06431   0.83134   0.31439   0.00000  Uiso   1.00
O375   O     0.26902   0.83533   0.18561   0.00000  Uiso   1.00
O376   O     0.10678   0.98263   0.30815   0.00000  Uiso   1.00
Zn377  Zn    0.27033   0.83954   0.25539   0.00000  Uiso   1.00
Zn378  Zn    0.06300   0.82713   0.24460   0.00000  Uiso   1.00
C379   C     0.34807   0.93145   0.24967   0.00000  Uiso   1.00
C380   C     0.64548   0.82868   0.15897   0.00000  Uiso   1.00
C381   C     0.36390   0.83895   0.39379   0.00000  Uiso   1.00
C382   C     0.63335   0.81743   0.10696   0.00000  Uiso   1.00
C383   C     0.34441   0.87332   0.47456   0.00000  Uiso   1.00
C384   C     0.64027   0.76104   0.03395   0.00000  Uiso   1.00
C385   C     0.66173   0.86506   0.42501   0.00000  Uiso   1.00
C386   C     0.66230   0.78028   0.08024   0.00000  Uiso   1.00
C387   C     0.41226   0.81733   0.41247   0.00000  Uiso   1.00
C388   C     0.58424   0.83640   0.08702   0.00000  Uiso   1.00
C389   C     0.42911   0.82475   0.46198   0.00000  Uiso   1.00
C390   C     0.65193   0.73522   0.25030   0.00000  Uiso   1.00
C391   C     0.55777   0.81316   0.04371   0.00000  Uiso   1.00
C392   C     0.39569   0.85522   0.49283   0.00000  Uiso   1.00
C393   C     0.58760   0.77655   0.01584   0.00000  Uiso   1.00
C394   C     0.48076   0.80634   0.48050   0.00000  Uiso   1.00
C395   C     0.50234   0.82515   0.02787   0.00000  Uiso   1.00
C396   C     0.39829   0.67324   0.29859   0.00000  Uiso   1.00
C397   C     0.60177   0.99346   0.20130   0.00000  Uiso   1.00
C398   C     0.46718   0.85402   0.05841   0.00000  Uiso   1.00
C399   C     0.51152   0.76993   0.45327   0.00000  Uiso   1.00
C400   C     0.41454   0.86834   0.04112   0.00000  Uiso   1.00
C401   C     0.56388   0.75508   0.47098   0.00000  Uiso   1.00
C402   C     0.35461   0.98603   0.25897   0.00000  Uiso   1.00
C403   C     0.64540   0.68064   0.24096   0.00000  Uiso   1.00
C404   C     0.35429   0.83690   0.34108   0.00000  Uiso   1.00
F405   F     0.49959   0.78266   0.20647   0.00000  Uiso   1.00
F406   F     0.50041   0.88406   0.29347   0.00000  Uiso   1.00
H407   H     0.38905   0.89082   0.06541   0.00000  Uiso   1.00
H408   H     0.49515   0.75050   0.41891   0.00000  Uiso   1.00
H409   H     0.39310   0.70936   0.32019   0.00000  Uiso   1.00
H410   H     0.60682   0.95721   0.17985   0.00000  Uiso   1.00
H411   H     0.58584   0.72665   0.44944   0.00000  Uiso   1.00
H412   H     0.56614   0.86795   0.10747   0.00000  Uiso   1.00
H413   H     0.43837   0.79792   0.38689   0.00000  Uiso   1.00
H414   H     0.36720   0.76501   0.09569   0.00000  Uiso   1.00
H415   H     0.62347   0.88136   0.41081   0.00000  Uiso   1.00
H416   H     0.65126   0.89549   0.49818   0.00000  Uiso   1.00
H417   H     0.66308   0.73257   0.01327   0.00000  Uiso   1.00
H418   H     0.47841   0.86486   0.09646   0.00000  Uiso   1.00
N419   N     0.48029   0.81883   0.23739   0.00000  Uiso   1.00
N420   N     0.51971   0.84784   0.26260   0.00000  Uiso   1.00
O421   O     0.63052   0.91298   0.25309   0.00000  Uiso   1.00
O422   O     0.56016   0.68426   0.19148   0.00000  Uiso   1.00
O423   O     0.36948   0.75369   0.24691   0.00000  Uiso   1.00
O424   O     0.39155   0.90368   0.24501   0.00000  Uiso   1.00
O425   O     0.60845   0.76298   0.25498   0.00000  Uiso   1.00
O426   O     0.63662   0.84063   0.32247   0.00000  Uiso   1.00
O427   O     0.36338   0.82603   0.17753   0.00000  Uiso   1.00
O428   O     0.39764   0.83134   0.31439   0.00000  Uiso   1.00
O429   O     0.60236   0.83533   0.18561   0.00000  Uiso   1.00
O430   O     0.44012   0.98263   0.30815   0.00000  Uiso   1.00
Zn431  Zn    0.60366   0.83954   0.25539   0.00000  Uiso   1.00
Zn432  Zn    0.39634   0.82713   0.24460   0.00000  Uiso   1.00
C433   C     0.68141   0.93145   0.24967   0.00000  Uiso   1.00
C434   C     0.97882   0.82868   0.15897   0.00000  Uiso   1.00
C435   C     0.69723   0.83895   0.39379   0.00000  Uiso   1.00
C436   C     0.96668   0.81743   0.10696   0.00000  Uiso   1.00
C437   C     0.67774   0.87332   0.47456   0.00000  Uiso   1.00
C438   C     0.97361   0.76104   0.03395   0.00000  Uiso   1.00
C439   C     0.99506   0.86506   0.42501   0.00000  Uiso   1.00
C440   C     0.99563   0.78028   0.08024   0.00000  Uiso   1.00
C441   C     0.74559   0.81733   0.41247   0.00000  Uiso   1.00
C442   C     0.91757   0.83640   0.08702   0.00000  Uiso   1.00
C443   C     0.76245   0.82475   0.46198   0.00000  Uiso   1.00
C444   C     0.98526   0.73522   0.25030   0.00000  Uiso   1.00
C445   C     0.89110   0.81316   0.04371   0.00000  Uiso   1.00
C446   C     0.72903   0.85522   0.49283   0.00000  Uiso   1.00
C447   C     0.92093   0.77655   0.01584   0.00000  Uiso   1.00
C448   C     0.81409   0.80634   0.48050   0.00000  Uiso   1.00
C449   C     0.83567   0.82515   0.02787   0.00000  Uiso   1.00
C450   C     0.73162   0.67324   0.29859   0.00000  Uiso   1.00
C451   C     0.93510   0.99346   0.20130   0.00000  Uiso   1.00
C452   C     0.80052   0.85402   0.05841   0.00000  Uiso   1.00
C453   C     0.84486   0.76993   0.45327   0.00000  Uiso   1.00
C454   C     0.74787   0.86834   0.04112   0.00000  Uiso   1.00
C455   C     0.89721   0.75508   0.47098   0.00000  Uiso   1.00
C456   C     0.68795   0.98603   0.25897   0.00000  Uiso   1.00
C457   C     0.97873   0.68064   0.24096   0.00000  Uiso   1.00
C458   C     0.68762   0.83690   0.34108   0.00000  Uiso   1.00
F459   F     0.83292   0.78266   0.20647   0.00000  Uiso   1.00
F460   F     0.83374   0.88406   0.29347   0.00000  Uiso   1.00
H461   H     0.72238   0.89082   0.06541   0.00000  Uiso   1.00
H462   H     0.82848   0.75050   0.41891   0.00000  Uiso   1.00
H463   H     0.72643   0.70936   0.32019   0.00000  Uiso   1.00
H464   H     0.94015   0.95721   0.17985   0.00000  Uiso   1.00
H465   H     0.91918   0.72665   0.44944   0.00000  Uiso   1.00
H466   H     0.89947   0.86795   0.10747   0.00000  Uiso   1.00
H467   H     0.77171   0.79792   0.38689   0.00000  Uiso   1.00
H468   H     0.70053   0.76501   0.09569   0.00000  Uiso   1.00
H469   H     0.95681   0.88136   0.41081   0.00000  Uiso   1.00
H470   H     0.98459   0.89549   0.49818   0.00000  Uiso   1.00
H471   H     0.99641   0.73257   0.01327   0.00000  Uiso   1.00
H472   H     0.81174   0.86486   0.09646   0.00000  Uiso   1.00
N473   N     0.81362   0.81883   0.23739   0.00000  Uiso   1.00
N474   N     0.85305   0.84784   0.26260   0.00000  Uiso   1.00
O475   O     0.96386   0.91298   0.25309   0.00000  Uiso   1.00
O476   O     0.89350   0.68426   0.19148   0.00000  Uiso   1.00
O477   O     0.70281   0.75369   0.24691   0.00000  Uiso   1.00
O478   O     0.72488   0.90368   0.24501   0.00000  Uiso   1.00
O479   O     0.94178   0.76298   0.25498   0.00000  Uiso   1.00
O480   O     0.96995   0.84063   0.32247   0.00000  Uiso   1.00
O481   O     0.69672   0.82603   0.17753   0.00000  Uiso   1.00
O482   O     0.73098   0.83134   0.31439   0.00000  Uiso   1.00
O483   O     0.93569   0.83533   0.18561   0.00000  Uiso   1.00
O484   O     0.77345   0.98263   0.30815   0.00000  Uiso   1.00
Zn485  Zn    0.93700   0.83954   0.25539   0.00000  Uiso   1.00
Zn486  Zn    0.72967   0.82713   0.24460   0.00000  Uiso   1.00
C487   C     0.01474   0.26478   0.74967   0.00000  Uiso   1.00
C488   C     0.31215   0.16202   0.65897   0.00000  Uiso   1.00
C489   C     0.03057   0.17228   0.89379   0.00000  Uiso   1.00
C490   C     0.30002   0.15076   0.60696   0.00000  Uiso   1.00
C491   C     0.01107   0.20666   0.97456   0.00000  Uiso   1.00
C492   C     0.30694   0.09437   0.53395   0.00000  Uiso   1.00
C493   C     0.32840   0.19840   0.92501   0.00000  Uiso   1.00
C494   C     0.32896   0.11361   0.58024   0.00000  Uiso   1.00
C495   C     0.07892   0.15066   0.91247   0.00000  Uiso   1.00
C496   C     0.25091   0.16973   0.58702   0.00000  Uiso   1.00
C497   C     0.09578   0.15808   0.96198   0.00000  Uiso   1.00
C498   C     0.31859   0.06856   0.75030   0.00000  Uiso   1.00
C499   C     0.22443   0.14649   0.54371   0.00000  Uiso   1.00
C500   C     0.06236   0.18855   0.99283   0.00000  Uiso   1.00
C501   C     0.25427   0.10989   0.51584   0.00000  Uiso   1.00
C502   C     0.14742   0.13967   0.98050   0.00000  Uiso   1.00
C503   C     0.16900   0.15849   0.52787   0.00000  Uiso   1.00
C504   C     0.06496   0.00657   0.79859   0.00000  Uiso   1.00
C505   C     0.26844   0.32680   0.70130   0.00000  Uiso   1.00
C506   C     0.13385   0.18735   0.55841   0.00000  Uiso   1.00
C507   C     0.17819   0.10327   0.95327   0.00000  Uiso   1.00
C508   C     0.08121   0.20167   0.54112   0.00000  Uiso   1.00
C509   C     0.23054   0.08842   0.97098   0.00000  Uiso   1.00
C510   C     0.02128   0.31936   0.75897   0.00000  Uiso   1.00
C511   C     0.31207   0.01398   0.74096   0.00000  Uiso   1.00
C512   C     0.02095   0.17023   0.84108   0.00000  Uiso   1.00
F513   F     0.16626   0.11599   0.70647   0.00000  Uiso   1.00
F514   F     0.16707   0.21739   0.79347   0.00000  Uiso   1.00
H515   H     0.05572   0.22415   0.56541   0.00000  Uiso   1.00
H516   H     0.16182   0.08383   0.91891   0.00000  Uiso   1.00
H517   H     0.05977   0.04270   0.82019   0.00000  Uiso   1.00
H518   H     0.27349   0.29055   0.67985   0.00000  Uiso   1.00
H519   H     0.25251   0.05998   0.94944   0.00000  Uiso   1.00
H520   H     0.23281   0.20128   0.60747   0.00000  Uiso   1.00
H521   H     0.10504   0.13126   0.88689   0.00000  Uiso   1.00
H522   H     0.03387   0.09834   0.59569   0.00000  Uiso   1.00
H523   H     0.29014   0.21469   0.91081   0.00000  Uiso   1.00
H524   H     0.31792   0.22882   0.99818   0.00000  Uiso   1.00
H525   H     0.32975   0.06590   0.51327   0.00000  Uiso   1.00
H526   H     0.14508   0.19820   0.59646   0.00000  Uiso   1.00
N527   N     0.14695   0.15216   0.73739   0.00000  Uiso   1.00
N528   N     0.18638   0.18117   0.76260   0.00000  Uiso   1.00
O529   O     0.29719   0.24631   0.75309   0.00000  Uiso   1.00
O530   O     0.22683   0.01760   0.69148   0.00000  Uiso   1.00
O531   O     0.03614   0.08702   0.74691   0.00000  Uiso   1.00
O532   O     0.05822   0.23702   0.74501   0.00000  Uiso   1.00
O533   O     0.27512   0.09632   0.75498   0.00000  Uiso   1.00
O534   O     0.30328   0.17397   0.82247   0.00000  Uiso   1.00
O535   O     0.03005   0.15937   0.67753   0.00000  Uiso   1.00
O536   O     0.06431   0.16467   0.81439   0.00000  Uiso   1.00
O537   O     0.26902   0.16866   0.68561   0.00000  Uiso   1.00
O538   O     0.10678   0.31597   0.80815   0.00000  Uiso   1.00
Zn539  Zn    0.27033   0.17287   0.75539   0.00000  Uiso   1.00
Zn540  Zn    0.06300   0.16046   0.74460   0.00000  Uiso   1.00
C541   C     0.34807   0.26478   0.74967   0.00000  Uiso   1.00
C542   C     0.64548   0.16202   0.65897   0.00000  Uiso   1.00
C543   C     0.36390   0.17228   0.89379   0.00000  Uiso   1.00
C544   C     0.63335   0.15076   0.60696   0.00000  Uiso   1.00
C545   C     0.34441   0.20666   0.97456   0.00000  Uiso   1.00
C546   C     0.64027   0.09437   0.53395   0.00000  Uiso   1.00
C547   C     0.66173   0.19840   0.92501   0.00000  Uiso   1.00
C548   C     0.66230   0.11361   0.58024   0.00000  Uiso   1.00
C549   C     0.41226   0.15066   0.91247   0.00000  Uiso   1.00
C550   C     0.58424   0.16973   0.58702   0.00000  Uiso   1.00
C551   C     0.42911   0.15808   0.96198   0.00000  Uiso   1.00
C552   C     0.65193   0.06856   0.75030   0.00000  Uiso   1.00
C553   C     0.55777   0.14649   0.54371   0.00000  Uiso   1.00
C554   C     0.39569   0.18855   0.99283   0.00000  Uiso   1.00
C555   C     0.58760   0.10989   0.51584   0.00000  Uiso   1.00
C556   C     0.48076   0.13967   0.98050   0.00000  Uiso   1.00
C557   C     0.50234   0.15849   0.52787   0.00000  Uiso   1.00
C558   C     0.39829   0.00657   0.79859   0.00000  Uiso   1.00
C559   C     0.60177   0.32680   0.70130   0.00000  Uiso   1.00
C560   C     0.46718   0.18735   0.55841   0.00000  Uiso   1.00
C561   C     0.51152   0.10327   0.95327   0.00000  Uiso   1.00
C562   C     0.41454   0.20167   0.54112   0.00000  Uiso   1.00
C563   C     0.56388   0.08842   0.97098   0.00000  Uiso   1.00
C564   C     0.35461   0.31936   0.75897   0.00000  Uiso   1.00
C565   C     0.64540   0.01398   0.74096   0.00000  Uiso   1.00
C566   C     0.35429   0.17023   0.84108   0.00000  Uiso   1.00
F567   F     0.49959   0.11599   0.70647   0.00000  Uiso   1.00
F568   F     0.50041   0.21739   0.79347   0.00000  Uiso   1.00
H569   H     0.38905   0.22415   0.56541   0.00000  Uiso   1.00
H570   H     0.49515   0.08383   0.91891   0.00000  Uiso   1.00
H571   H     0.39310   0.04270   0.82019   0.00000  Uiso   1.00
H572   H     0.60682   0.29055   0.67985   0.00000  Uiso   1.00
H573   H     0.58584   0.05998   0.94944   0.00000  Uiso   1.00
H574   H     0.56614   0.20128   0.60747   0.00000  Uiso   1.00
H575   H     0.43837   0.13126   0.88689   0.00000  Uiso   1.00
H576   H     0.36720   0.09834   0.59569   0.00000  Uiso   1.00
H577   H     0.62347   0.21469   0.91081   0.00000  Uiso   1.00
H578   H     0.65126   0.22882   0.99818   0.00000  Uiso   1.00
H579   H     0.66308   0.06590   0.51327   0.00000  Uiso   1.00
H580   H     0.47841   0.19820   0.59646   0.00000  Uiso   1.00
N581   N     0.48029   0.15216   0.73739   0.00000  Uiso   1.00
N582   N     0.51971   0.18117   0.76260   0.00000  Uiso   1.00
O583   O     0.63052   0.24631   0.75309   0.00000  Uiso   1.00
O584   O     0.56016   0.01760   0.69148   0.00000  Uiso   1.00
O585   O     0.36948   0.08702   0.74691   0.00000  Uiso   1.00
O586   O     0.39155   0.23702   0.74501   0.00000  Uiso   1.00
O587   O     0.60845   0.09632   0.75498   0.00000  Uiso   1.00
O588   O     0.63662   0.17397   0.82247   0.00000  Uiso   1.00
O589   O     0.36338   0.15937   0.67753   0.00000  Uiso   1.00
O590   O     0.39764   0.16467   0.81439   0.00000  Uiso   1.00
O591   O     0.60236   0.16866   0.68561   0.00000  Uiso   1.00
O592   O     0.44012   0.31597   0.80815   0.00000  Uiso   1.00
Zn593  Zn    0.60366   0.17287   0.75539   0.00000  Uiso   1.00
Zn594  Zn    0.39634   0.16046   0.74460   0.00000  Uiso   1.00
C595   C     0.68141   0.26478   0.74967   0.00000  Uiso   1.00
C596   C     0.97882   0.16202   0.65897   0.00000  Uiso   1.00
C597   C     0.69723   0.17228   0.89379   0.00000  Uiso   1.00
C598   C     0.96668   0.15076   0.60696   0.00000  Uiso   1.00
C599   C     0.67774   0.20666   0.97456   0.00000  Uiso   1.00
C600   C     0.97361   0.09437   0.53395   0.00000  Uiso   1.00
C601   C     0.99506   0.19840   0.92501   0.00000  Uiso   1.00
C602   C     0.99563   0.11361   0.58024   0.00000  Uiso   1.00
C603   C     0.74559   0.15066   0.91247   0.00000  Uiso   1.00
C604   C     0.91757   0.16973   0.58702   0.00000  Uiso   1.00
C605   C     0.76245   0.15808   0.96198   0.00000  Uiso   1.00
C606   C     0.98526   0.06856   0.75030   0.00000  Uiso   1.00
C607   C     0.89110   0.14649   0.54371   0.00000  Uiso   1.00
C608   C     0.72903   0.18855   0.99283   0.00000  Uiso   1.00
C609   C     0.92093   0.10989   0.51584   0.00000  Uiso   1.00
C610   C     0.81409   0.13967   0.98050   0.00000  Uiso   1.00
C611   C     0.83567   0.15849   0.52787   0.00000  Uiso   1.00
C612   C     0.73162   0.00657   0.79859   0.00000  Uiso   1.00
C613   C     0.93510   0.32680   0.70130   0.00000  Uiso   1.00
C614   C     0.80052   0.18735   0.55841   0.00000  Uiso   1.00
C615   C     0.84486   0.10327   0.95327   0.00000  Uiso   1.00
C616   C     0.74787   0.20167   0.54112   0.00000  Uiso   1.00
C617   C     0.89721   0.08842   0.97098   0.00000  Uiso   1.00
C618   C     0.68795   0.31936   0.75897   0.00000  Uiso   1.00
C619   C     0.97873   0.01398   0.74096   0.00000  Uiso   1.00
C620   C     0.68762   0.17023   0.84108   0.00000  Uiso   1.00
F621   F     0.83292   0.11599   0.70647   0.00000  Uiso   1.00
F622   F     0.83374   0.21739   0.79347   0.00000  Uiso   1.00
H623   H     0.72238   0.22415   0.56541   0.00000  Uiso   1.00
H624   H     0.82848   0.08383   0.91891   0.00000  Uiso   1.00
H625   H     0.72643   0.04270   0.82019   0.00000  Uiso   1.00
H626   H     0.94015   0.29055   0.67985   0.00000  Uiso   1.00
H627   H     0.91918   0.05998   0.94944   0.00000  Uiso   1.00
H628   H     0.89947   0.20128   0.60747   0.00000  Uiso   1.00
H629   H     0.77171   0.13126   0.88689   0.00000  Uiso   1.00
H630   H     0.70053   0.09834   0.59569   0.00000  Uiso   1.00
H631   H     0.95681   0.21469   0.91081   0.00000  Uiso   1.00
H632   H     0.98459   0.22882   0.99818   0.00000  Uiso   1.00
H633   H     0.99641   0.06590   0.51327   0.00000  Uiso   1.00
H634   H     0.81174   0.19820   0.59646   0.00000  Uiso   1.00
N635   N     0.81362   0.15216   0.73739   0.00000  Uiso   1.00
N636   N     0.85305   0.18117   0.76260   0.00000  Uiso   1.00
O637   O     0.96386   0.24631   0.75309   0.00000  Uiso   1.00
O638   O     0.89350   0.01760   0.69148   0.00000  Uiso   1.00
O639   O     0.70281   0.08702   0.74691   0.00000  Uiso   1.00
O640   O     0.72488   0.23702   0.74501   0.00000  Uiso   1.00
O641   O     0.94178   0.09632   0.75498   0.00000  Uiso   1.00
O642   O     0.96995   0.17397   0.82247   0.00000  Uiso   1.00
O643   O     0.69672   0.15937   0.67753   0.00000  Uiso   1.00
O644   O     0.73098   0.16467   0.81439   0.00000  Uiso   1.00
O645   O     0.93569   0.16866   0.68561   0.00000  Uiso   1.00
O646   O     0.77345   0.31597   0.80815   0.00000  Uiso   1.00
Zn647  Zn    0.93700   0.17287   0.75539   0.00000  Uiso   1.00
Zn648  Zn    0.72967   0.16046   0.74460   0.00000  Uiso   1.00
C649   C     0.01474   0.59811   0.74967   0.00000  Uiso   1.00
C650   C     0.31215   0.49535   0.65897   0.00000  Uiso   1.00
C651   C     0.03057   0.50562   0.89379   0.00000  Uiso   1.00
C652   C     0.30002   0.48409   0.60696   0.00000  Uiso   1.00
C653   C     0.01107   0.53999   0.97456   0.00000  Uiso   1.00
C654   C     0.30694   0.42771   0.53395   0.00000  Uiso   1.00
C655   C     0.32840   0.53173   0.92501   0.00000  Uiso   1.00
C656   C     0.32896   0.44694   0.58024   0.00000  Uiso   1.00
C657   C     0.07892   0.48399   0.91247   0.00000  Uiso   1.00
C658   C     0.25091   0.50306   0.58702   0.00000  Uiso   1.00
C659   C     0.09578   0.49141   0.96198   0.00000  Uiso   1.00
C660   C     0.31859   0.40189   0.75030   0.00000  Uiso   1.00
C661   C     0.22443   0.47982   0.54371   0.00000  Uiso   1.00
C662   C     0.06236   0.52189   0.99283   0.00000  Uiso   1.00
C663   C     0.25427   0.44322   0.51584   0.00000  Uiso   1.00
C664   C     0.14742   0.47300   0.98050   0.00000  Uiso   1.00
C665   C     0.16900   0.49182   0.52787   0.00000  Uiso   1.00
C666   C     0.06496   0.33991   0.79859   0.00000  Uiso   1.00
C667   C     0.26844   0.66013   0.70130   0.00000  Uiso   1.00
C668   C     0.13385   0.52069   0.55841   0.00000  Uiso   1.00
C669   C     0.17819   0.43660   0.95327   0.00000  Uiso   1.00
C670   C     0.08121   0.53501   0.54112   0.00000  Uiso   1.00
C671   C     0.23054   0.42175   0.97098   0.00000  Uiso   1.00
C672   C     0.02128   0.65270   0.75897   0.00000  Uiso   1.00
C673   C     0.31207   0.34731   0.74096   0.00000  Uiso   1.00
C674   C     0.02095   0.50356   0.84108   0.00000  Uiso   1.00
F675   F     0.16626   0.44933   0.70647   0.00000  Uiso   1.00
F676   F     0.16707   0.55072   0.79347   0.00000  Uiso   1.00
H677   H     0.05572   0.55748   0.56541   0.00000  Uiso   1.00
H678   H     0.16182   0.41717   0.91891   0.00000  Uiso   1.00
H679   H     0.05977   0.37603   0.82019   0.00000  Uiso   1.00
H680   H     0.27349   0.62388   0.67985   0.00000  Uiso   1.00
H681   H     0.25251   0.39332   0.94944   0.00000  Uiso   1.00
H682   H     0.23281   0.53461   0.60747   0.00000  Uiso   1.00
H683   H     0.10504   0.46459   0.88689   0.00000  Uiso   1.00
H684   H     0.03387   0.43168   0.59569   0.00000  Uiso   1.00
H685   H     0.29014   0.54802   0.91081   0.00000  Uiso   1.00
H686   H     0.31792   0.56215   0.99818   0.00000  Uiso   1.00
H687   H     0.32975   0.39924   0.51327   0.00000  Uiso   1.00
H688   H     0.14508   0.53153   0.59646   0.00000  Uiso   1.00
N689   N     0.14695   0.48550   0.73739   0.00000  Uiso   1.00
N690   N     0.18638   0.51450   0.76260   0.00000  Uiso   1.00
O691   O     0.29719   0.57964   0.75309   0.00000  Uiso   1.00
O692   O     0.22683   0.35093   0.69148   0.00000  Uiso   1.00
O693   O     0.03614   0.42036   0.74691   0.00000  Uiso   1.00
O694   O     0.05822   0.57035   0.74501   0.00000  Uiso   1.00
O695   O     0.27512   0.42965   0.75498   0.00000  Uiso   1.00
O696   O     0.30328   0.50730   0.82247   0.00000  Uiso   1.00
O697   O     0.03005   0.49270   0.67753   0.00000  Uiso   1.00
O698   O     0.06431   0.49801   0.81439   0.00000  Uiso   1.00
O699   O     0.26902   0.50199   0.68561   0.00000  Uiso   1.00
O700   O     0.10678   0.64930   0.80815   0.00000  Uiso   1.00
Zn701  Zn    0.27033   0.50621   0.75539   0.00000  Uiso   1.00
Zn702  Zn    0.06300   0.49379   0.74460   0.00000  Uiso   1.00
C703   C     0.34807   0.59811   0.74967   0.00000  Uiso   1.00
C704   C     0.64548   0.49535   0.65897   0.00000  Uiso   1.00
C705   C     0.36390   0.50562   0.89379   0.00000  Uiso   1.00
C706   C     0.63335   0.48409   0.60696   0.00000  Uiso   1.00
C707   C     0.34441   0.53999   0.97456   0.00000  Uiso   1.00
C708   C     0.64027   0.42771   0.53395   0.00000  Uiso   1.00
C709   C     0.66173   0.53173   0.92501   0.00000  Uiso   1.00
C710   C     0.66230   0.44694   0.58024   0.00000  Uiso   1.00
C711   C     0.41226   0.48399   0.91247   0.00000  Uiso   1.00
C712   C     0.58424   0.50306   0.58702   0.00000  Uiso   1.00
C713   C     0.42911   0.49141   0.96198   0.00000  Uiso   1.00
C714   C     0.65193   0.40189   0.75030   0.00000  Uiso   1.00
C715   C     0.55777   0.47982   0.54371   0.00000  Uiso   1.00
C716   C     0.39569   0.52189   0.99283   0.00000  Uiso   1.00
C717   C     0.58760   0.44322   0.51584   0.00000  Uiso   1.00
C718   C     0.48076   0.47300   0.98050   0.00000  Uiso   1.00
C719   C     0.50234   0.49182   0.52787   0.00000  Uiso   1.00
C720   C     0.39829   0.33991   0.79859   0.00000  Uiso   1.00
C721   C     0.60177   0.66013   0.70130   0.00000  Uiso   1.00
C722   C     0.46718   0.52069   0.55841   0.00000  Uiso   1.00
C723   C     0.51152   0.43660   0.95327   0.00000  Uiso   1.00
C724   C     0.41454   0.53501   0.54112   0.00000  Uiso   1.00
C725   C     0.56388   0.42175   0.97098   0.00000  Uiso   1.00
C726   C     0.35461   0.65270   0.75897   0.00000  Uiso   1.00
C727   C     0.64540   0.34731   0.74096   0.00000  Uiso   1.00
C728   C     0.35429   0.50356   0.84108   0.00000  Uiso   1.00
F729   F     0.49959   0.44933   0.70647   0.00000  Uiso   1.00
F730   F     0.50041   0.55072   0.79347   0.00000  Uiso   1.00
H731   H     0.38905   0.55748   0.56541   0.00000  Uiso   1.00
H732   H     0.49515   0.41717   0.91891   0.00000  Uiso   1.00
H733   H     0.39310   0.37603   0.82019   0.00000  Uiso   1.00
H734   H     0.60682   0.62388   0.67985   0.00000  Uiso   1.00
H735   H     0.58584   0.39332   0.94944   0.00000  Uiso   1.00
H736   H     0.56614   0.53461   0.60747   0.00000  Uiso   1.00
H737   H     0.43837   0.46459   0.88689   0.00000  Uiso   1.00
H738   H     0.36720   0.43168   0.59569   0.00000  Uiso   1.00
H739   H     0.62347   0.54802   0.91081   0.00000  Uiso   1.00
H740   H     0.65126   0.56215   0.99818   0.00000  Uiso   1.00
H741   H     0.66308   0.39924   0.51327   0.00000  Uiso   1.00
H742   H     0.47841   0.53153   0.59646   0.00000  Uiso   1.00
N743   N     0.48029   0.48550   0.73739   0.00000  Uiso   1.00
N744   N     0.51971   0.51450   0.76260   0.00000  Uiso   1.00
O745   O     0.63052   0.57964   0.75309   0.00000  Uiso   1.00
O746   O     0.56016   0.35093   0.69148   0.00000  Uiso   1.00
O747   O     0.36948   0.42036   0.74691   0.00000  Uiso   1.00
O748   O     0.39155   0.57035   0.74501   0.00000  Uiso   1.00
O749   O     0.60845   0.42965   0.75498   0.00000  Uiso   1.00
O750   O     0.63662   0.50730   0.82247   0.00000  Uiso   1.00
O751   O     0.36338   0.49270   0.67753   0.00000  Uiso   1.00
O752   O     0.39764   0.49801   0.81439   0.00000  Uiso   1.00
O753   O     0.60236   0.50199   0.68561   0.00000  Uiso   1.00
O754   O     0.44012   0.64930   0.80815   0.00000  Uiso   1.00
Zn755  Zn    0.60366   0.50621   0.75539   0.00000  Uiso   1.00
Zn756  Zn    0.39634   0.49379   0.74460   0.00000  Uiso   1.00
C757   C     0.68141   0.59811   0.74967   0.00000  Uiso   1.00
C758   C     0.97882   0.49535   0.65897   0.00000  Uiso   1.00
C759   C     0.69723   0.50562   0.89379   0.00000  Uiso   1.00
C760   C     0.96668   0.48409   0.60696   0.00000  Uiso   1.00
C761   C     0.67774   0.53999   0.97456   0.00000  Uiso   1.00
C762   C     0.97361   0.42771   0.53395   0.00000  Uiso   1.00
C763   C     0.99506   0.53173   0.92501   0.00000  Uiso   1.00
C764   C     0.99563   0.44694   0.58024   0.00000  Uiso   1.00
C765   C     0.74559   0.48399   0.91247   0.00000  Uiso   1.00
C766   C     0.91757   0.50306   0.58702   0.00000  Uiso   1.00
C767   C     0.76245   0.49141   0.96198   0.00000  Uiso   1.00
C768   C     0.98526   0.40189   0.75030   0.00000  Uiso   1.00
C769   C     0.89110   0.47982   0.54371   0.00000  Uiso   1.00
C770   C     0.72903   0.52189   0.99283   0.00000  Uiso   1.00
C771   C     0.92093   0.44322   0.51584   0.00000  Uiso   1.00
C772   C     0.81409   0.47300   0.98050   0.00000  Uiso   1.00
C773   C     0.83567   0.49182   0.52787   0.00000  Uiso   1.00
C774   C     0.73162   0.33991   0.79859   0.00000  Uiso   1.00
C775   C     0.93510   0.66013   0.70130   0.00000  Uiso   1.00
C776   C     0.80052   0.52069   0.55841   0.00000  Uiso   1.00
C777   C     0.84486   0.43660   0.95327   0.00000  Uiso   1.00
C778   C     0.74787   0.53501   0.54112   0.00000  Uiso   1.00
C779   C     0.89721   0.42175   0.97098   0.00000  Uiso   1.00
C780   C     0.68795   0.65270   0.75897   0.00000  Uiso   1.00
C781   C     0.97873   0.34731   0.74096   0.00000  Uiso   1.00
C782   C     0.68762   0.50356   0.84108   0.00000  Uiso   1.00
F783   F     0.83292   0.44933   0.70647   0.00000  Uiso   1.00
F784   F     0.83374   0.55072   0.79347   0.00000  Uiso   1.00
H785   H     0.72238   0.55748   0.56541   0.00000  Uiso   1.00
H786   H     0.82848   0.41717   0.91891   0.00000  Uiso   1.00
H787   H     0.72643   0.37603   0.82019   0.00000  Uiso   1.00
H788   H     0.94015   0.62388   0.67985   0.00000  Uiso   1.00
H789   H     0.91918   0.39332   0.94944   0.00000  Uiso   1.00
H790   H     0.89947   0.53461   0.60747   0.00000  Uiso   1.00
H791   H     0.77171   0.46459   0.88689   0.00000  Uiso   1.00
H792   H     0.70053   0.43168   0.59569   0.00000  Uiso   1.00
H793   H     0.95681   0.54802   0.91081   0.00000  Uiso   1.00
H794   H     0.98459   0.56215   0.99818   0.00000  Uiso   1.00
H795   H     0.99641   0.39924   0.51327   0.00000  Uiso   1.00
H796   H     0.81174   0.53153   0.59646   0.00000  Uiso   1.00
N797   N     0.81362   0.48550   0.73739   0.00000  Uiso   1.00
N798   N     0.85305   0.51450   0.76260   0.00000  Uiso   1.00
O799   O     0.96386   0.57964   0.75309   0.00000  Uiso   1.00
O800   O     0.89350   0.35093   0.69148   0.00000  Uiso   1.00
O801   O     0.70281   0.42036   0.74691   0.00000  Uiso   1.00
O802   O     0.72488   0.57035   0.74501   0.00000  Uiso   1.00
O803   O     0.94178   0.42965   0.75498   0.00000  Uiso   1.00
O804   O     0.96995   0.50730   0.82247   0.00000  Uiso   1.00
O805   O     0.69672   0.49270   0.67753   0.00000  Uiso   1.00
O806   O     0.73098   0.49801   0.81439   0.00000  Uiso   1.00
O807   O     0.93569   0.50199   0.68561   0.00000  Uiso   1.00
O808   O     0.77345   0.64930   0.80815   0.00000  Uiso   1.00
Zn809  Zn    0.93700   0.50621   0.75539   0.00000  Uiso   1.00
Zn810  Zn    0.72967   0.49379   0.74460   0.00000  Uiso   1.00
C811   C     0.01474   0.93145   0.74967   0.00000  Uiso   1.00
C812   C     0.31215   0.82868   0.65897   0.00000  Uiso   1.00
C813   C     0.03057   0.83895   0.89379   0.00000  Uiso   1.00
C814   C     0.30002   0.81743   0.60696   0.00000  Uiso   1.00
C815   C     0.01107   0.87332   0.97456   0.00000  Uiso   1.00
C816   C     0.30694   0.76104   0.53395   0.00000  Uiso   1.00
C817   C     0.32840   0.86506   0.92501   0.00000  Uiso   1.00
C818   C     0.32896   0.78028   0.58024   0.00000  Uiso   1.00
C819   C     0.07892   0.81733   0.91247   0.00000  Uiso   1.00
C820   C     0.25091   0.83640   0.58702   0.00000  Uiso   1.00
C821   C     0.09578   0.82475   0.96198   0.00000  Uiso   1.00
C822   C     0.31859   0.73522   0.75030   0.00000  Uiso   1.00
C823   C     0.22443   0.81316   0.54371   0.00000  Uiso   1.00
C824   C     0.06236   0.85522   0.99283   0.00000  Uiso   1.00
C825   C     0.25427   0.77655   0.51584   0.00000  Uiso   1.00
C826   C     0.14742   0.80634   0.98050   0.00000  Uiso   1.00
C827   C     0.16900   0.82515   0.52787   0.00000  Uiso   1.00
C828   C     0.06496   0.67324   0.79859   0.00000  Uiso   1.00
C829   C     0.26844   0.99346   0.70130   0.00000  Uiso   1.00
C830   C     0.13385   0.85402   0.55841   0.00000  Uiso   1.00
C831   C     0.17819   0.76993   0.95327   0.00000  Uiso   1.00
C832   C     0.08121   0.86834   0.54112   0.00000  Uiso   1.00
C833   C     0.23054   0.75508   0.97098   0.00000  Uiso   1.00
C834   C     0.02128   0.98603   0.75897   0.00000  Uiso   1.00
C835   C     0.31207   0.68064   0.74096   0.00000  Uiso   1.00
C836   C     0.02095   0.83690   0.84108   0.00000  Uiso   1.00
F837   F     0.16626   0.78266   0.70647   0.00000  Uiso   1.00
F838   F     0.16707   0.88406   0.79347   0.00000  Uiso   1.00
H839   H     0.05572   0.89082   0.56541   0.00000  Uiso   1.00
H840   H     0.16182   0.75050   0.91891   0.00000  Uiso   1.00
H841   H     0.05977   0.70936   0.82019   0.00000  Uiso   1.00
H842   H     0.27349   0.95721   0.67985   0.00000  Uiso   1.00
H843   H     0.25251   0.72665   0.94944   0.00000  Uiso   1.00
H844   H     0.23281   0.86795   0.60747   0.00000  Uiso   1.00
H845   H     0.10504   0.79792   0.88689   0.00000  Uiso   1.00
H846   H     0.03387   0.76501   0.59569   0.00000  Uiso   1.00
H847   H     0.29014   0.88136   0.91081   0.00000  Uiso   1.00
H848   H     0.31792   0.89549   0.99818   0.00000  Uiso   1.00
H849   H     0.32975   0.73257   0.51327   0.00000  Uiso   1.00
H850   H     0.14508   0.86486   0.59646   0.00000  Uiso   1.00
N851   N     0.14695   0.81883   0.73739   0.00000  Uiso   1.00
N852   N     0.18638   0.84784   0.76260   0.00000  Uiso   1.00
O853   O     0.29719   0.91298   0.75309   0.00000  Uiso   1.00
O854   O     0.22683   0.68426   0.69148   0.00000  Uiso   1.00
O855   O     0.03614   0.75369   0.74691   0.00000  Uiso   1.00
O856   O     0.05822   0.90368   0.74501   0.00000  Uiso   1.00
O857   O     0.27512   0.76298   0.75498   0.00000  Uiso   1.00
O858   O     0.30328   0.84063   0.82247   0.00000  Uiso   1.00
O859   O     0.03005   0.82603   0.67753   0.00000  Uiso   1.00
O860   O     0.06431   0.83134   0.81439   0.00000  Uiso   1.00
O861   O     0.26902   0.83533   0.68561   0.00000  Uiso   1.00
O862   O     0.10678   0.98263   0.80815   0.00000  Uiso   1.00
Zn863  Zn    0.27033   0.83954   0.75539   0.00000  Uiso   1.00
Zn864  Zn    0.06300   0.82713   0.74460   0.00000  Uiso   1.00
C865   C     0.34807   0.93145   0.74967   0.00000  Uiso   1.00
C866   C     0.64548   0.82868   0.65897   0.00000  Uiso   1.00
C867   C     0.36390   0.83895   0.89379   0.00000  Uiso   1.00
C868   C     0.63335   0.81743   0.60696   0.00000  Uiso   1.00
C869   C     0.34441   0.87332   0.97456   0.00000  Uiso   1.00
C870   C     0.64027   0.76104   0.53395   0.00000  Uiso   1.00
C871   C     0.66173   0.86506   0.92501   0.00000  Uiso   1.00
C872   C     0.66230   0.78028   0.58024   0.00000  Uiso   1.00
C873   C     0.41226   0.81733   0.91247   0.00000  Uiso   1.00
C874   C     0.58424   0.83640   0.58702   0.00000  Uiso   1.00
C875   C     0.42911   0.82475   0.96198   0.00000  Uiso   1.00
C876   C     0.65193   0.73522   0.75030   0.00000  Uiso   1.00
C877   C     0.55777   0.81316   0.54371   0.00000  Uiso   1.00
C878   C     0.39569   0.85522   0.99283   0.00000  Uiso   1.00
C879   C     0.58760   0.77655   0.51584   0.00000  Uiso   1.00
C880   C     0.48076   0.80634   0.98050   0.00000  Uiso   1.00
C881   C     0.50234   0.82515   0.52787   0.00000  Uiso   1.00
C882   C     0.39829   0.67324   0.79859   0.00000  Uiso   1.00
C883   C     0.60177   0.99346   0.70130   0.00000  Uiso   1.00
C884   C     0.46718   0.85402   0.55841   0.00000  Uiso   1.00
C885   C     0.51152   0.76993   0.95327   0.00000  Uiso   1.00
C886   C     0.41454   0.86834   0.54112   0.00000  Uiso   1.00
C887   C     0.56388   0.75508   0.97098   0.00000  Uiso   1.00
C888   C     0.35461   0.98603   0.75897   0.00000  Uiso   1.00
C889   C     0.64540   0.68064   0.74096   0.00000  Uiso   1.00
C890   C     0.35429   0.83690   0.84108   0.00000  Uiso   1.00
F891   F     0.49959   0.78266   0.70647   0.00000  Uiso   1.00
F892   F     0.50041   0.88406   0.79347   0.00000  Uiso   1.00
H893   H     0.38905   0.89082   0.56541   0.00000  Uiso   1.00
H894   H     0.49515   0.75050   0.91891   0.00000  Uiso   1.00
H895   H     0.39310   0.70936   0.82019   0.00000  Uiso   1.00
H896   H     0.60682   0.95721   0.67985   0.00000  Uiso   1.00
H897   H     0.58584   0.72665   0.94944   0.00000  Uiso   1.00
H898   H     0.56614   0.86795   0.60747   0.00000  Uiso   1.00
H899   H     0.43837   0.79792   0.88689   0.00000  Uiso   1.00
H900   H     0.36720   0.76501   0.59569   0.00000  Uiso   1.00
H901   H     0.62347   0.88136   0.91081   0.00000  Uiso   1.00
H902   H     0.65126   0.89549   0.99818   0.00000  Uiso   1.00
H903   H     0.66308   0.73257   0.51327   0.00000  Uiso   1.00
H904   H     0.47841   0.86486   0.59646   0.00000  Uiso   1.00
N905   N     0.48029   0.81883   0.73739   0.00000  Uiso   1.00
N906   N     0.51971   0.84784   0.76260   0.00000  Uiso   1.00
O907   O     0.63052   0.91298   0.75309   0.00000  Uiso   1.00
O908   O     0.56016   0.68426   0.69148   0.00000  Uiso   1.00
O909   O     0.36948   0.75369   0.74691   0.00000  Uiso   1.00
O910   O     0.39155   0.90368   0.74501   0.00000  Uiso   1.00
O911   O     0.60845   0.76298   0.75498   0.00000  Uiso   1.00
O912   O     0.63662   0.84063   0.82247   0.00000  Uiso   1.00
O913   O     0.36338   0.82603   0.67753   0.00000  Uiso   1.00
O914   O     0.39764   0.83134   0.81439   0.00000  Uiso   1.00
O915   O     0.60236   0.83533   0.68561   0.00000  Uiso   1.00
O916   O     0.44012   0.98263   0.80815   0.00000  Uiso   1.00
Zn917  Zn    0.60366   0.83954   0.75539   0.00000  Uiso   1.00
Zn918  Zn    0.39634   0.82713   0.74460   0.00000  Uiso   1.00
C919   C     0.68141   0.93145   0.74967   0.00000  Uiso   1.00
C920   C     0.97882   0.82868   0.65897   0.00000  Uiso   1.00
C921   C     0.69723   0.83895   0.89379   0.00000  Uiso   1.00
C922   C     0.96668   0.81743   0.60696   0.00000  Uiso   1.00
C923   C     0.67774   0.87332   0.97456   0.00000  Uiso   1.00
C924   C     0.97361   0.76104   0.53395   0.00000  Uiso   1.00
C925   C     0.99506   0.86506   0.92501   0.00000  Uiso   1.00
C926   C     0.99563   0.78028   0.58024   0.00000  Uiso   1.00
C927   C     0.74559   0.81733   0.91247   0.00000  Uiso   1.00
C928   C     0.91757   0.83640   0.58702   0.00000  Uiso   1.00
C929   C     0.76245   0.82475   0.96198   0.00000  Uiso   1.00
C930   C     0.98526   0.73522   0.75030   0.00000  Uiso   1.00
C931   C     0.89110   0.81316   0.54371   0.00000  Uiso   1.00
C932   C     0.72903   0.85522   0.99283   0.00000  Uiso   1.00
C933   C     0.92093   0.77655   0.51584   0.00000  Uiso   1.00
C934   C     0.81409   0.80634   0.98050   0.00000  Uiso   1.00
C935   C     0.83567   0.82515   0.52787   0.00000  Uiso   1.00
C936   C     0.73162   0.67324   0.79859   0.00000  Uiso   1.00
C937   C     0.93510   0.99346   0.70130   0.00000  Uiso   1.00
C938   C     0.80052   0.85402   0.55841   0.00000  Uiso   1.00
C939   C     0.84486   0.76993   0.95327   0.00000  Uiso   1.00
C940   C     0.74787   0.86834   0.54112   0.00000  Uiso   1.00
C941   C     0.89721   0.75508   0.97098   0.00000  Uiso   1.00
C942   C     0.68795   0.98603   0.75897   0.00000  Uiso   1.00
C943   C     0.97873   0.68064   0.74096   0.00000  Uiso   1.00
C944   C     0.68762   0.83690   0.84108   0.00000  Uiso   1.00
F945   F     0.83292   0.78266   0.70647   0.00000  Uiso   1.00
F946   F     0.83374   0.88406   0.79347   0.00000  Uiso   1.00
H947   H     0.72238   0.89082   0.56541   0.00000  Uiso   1.00
H948   H     0.82848   0.75050   0.91891   0.00000  Uiso   1.00
H949   H     0.72643   0.70936   0.82019   0.00000  Uiso   1.00
H950   H     0.94015   0.95721   0.67985   0.00000  Uiso   1.00
H951   H     0.91918   0.72665   0.94944   0.00000  Uiso   1.00
H952   H     0.89947   0.86795   0.60747   0.00000  Uiso   1.00
H953   H     0.77171   0.79792   0.88689   0.00000  Uiso   1.00
H954   H     0.70053   0.76501   0.59569   0.00000  Uiso   1.00
H955   H     0.95681   0.88136   0.91081   0.00000  Uiso   1.00
H956   H     0.98459   0.89549   0.99818   0.00000  Uiso   1.00
H957   H     0.99641   0.73257   0.51327   0.00000  Uiso   1.00
H958   H     0.81174   0.86486   0.59646   0.00000  Uiso   1.00
N959   N     0.81362   0.81883   0.73739   0.00000  Uiso   1.00
N960   N     0.85305   0.84784   0.76260   0.00000  Uiso   1.00
O961   O     0.96386   0.91298   0.75309   0.00000  Uiso   1.00
O962   O     0.89350   0.68426   0.69148   0.00000  Uiso   1.00
O963   O     0.70281   0.75369   0.74691   0.00000  Uiso   1.00
O964   O     0.72488   0.90368   0.74501   0.00000  Uiso   1.00
O965   O     0.94178   0.76298   0.75498   0.00000  Uiso   1.00
O966   O     0.96995   0.84063   0.82247   0.00000  Uiso   1.00
O967   O     0.69672   0.82603   0.67753   0.00000  Uiso   1.00
O968   O     0.73098   0.83134   0.81439   0.00000  Uiso   1.00
O969   O     0.93569   0.83533   0.68561   0.00000  Uiso   1.00
O970   O     0.77345   0.98263   0.80815   0.00000  Uiso   1.00
Zn971  Zn    0.93700   0.83954   0.75539   0.00000  Uiso   1.00
Zn972  Zn    0.72967   0.82713   0.74460   0.00000  Uiso   1.00
loop_
_geom_bond_atom_site_label_1
_geom_bond_atom_site_label_2
_geom_bond_distance
_geom_bond_site_symmetry_2
_ccdc_geom_bond_type
C1     C24     1.408   .     S
C1     O46     1.293   .     A
C1     O151    1.273   1_455 S
C2     C4      1.448   .     S
C2     O51     1.298   .     A
C2     O103    1.293   .     S
C3     C9      1.389   .     A
C3     C26     1.451   .     S
C3     C115    1.399   1_455 S
C4     C8      1.400   .     A
C4     C10     1.385   .     A
C5     C14     1.403   .     A
C5     C115    1.392   1_455 S
C5     H146    1.084   1_455 S
C6     H39     1.084   .     S
C6     C8      1.394   .     A
C6     C15     1.404   .     A
C7     H37     1.083   .     S
C7     C57     1.399   .     S
C7     C59     1.392   .     S
C8     H90     1.083   .     S
C9     C11     1.393   .     A
C9     H35     1.077   .     S
C10    H34     1.079   .     S
C10    C13     1.392   .     A
C11    C14     1.419   .     A
C11    C16     1.416   .     A
C12    C25     1.407   .     S
C12    O47     1.293   .     A
C12    O99     1.273   .     S
C13    C17     1.414   .     A
C13    C15     1.418   .     A
C14    C508    1.389   .     S
C15    C509    1.390   1_554 S
C16    C21     1.418   .     A
C16    C503    1.414   .     S
C17    C20     1.418   .     A
C17    C502    1.414   1_554 S
C18    H31     1.085   .     S
C18    C348    1.502   1_545 S
C18    O376    1.221   1_545 S
C19    H32     1.085   .     S
C19    C187    1.502   .     S
C19    O206    1.221   .     S
C20    H40     1.078   .     S
C20    C22     1.385   .     A
C21    H30     1.078   .     S
C21    C23     1.388   .     A
C22    H29     1.084   .     S
C22    C500    1.389   1_554 S
C23    H33     1.084   .     S
C23    C501    1.390   .     S
C24    C180    1.502   .     S
C24    C295    1.362   1_455 S
C25    C402    1.362   1_545 S
C25    C343    1.502   1_545 S
C26    O50     1.300   .     A
C26    O156    1.293   1_455 S
F27    N41     1.335   .     S
F28    N42     1.335   .     S
H36    C116    1.083   1_455 S
H38    C59     1.084   .     S
N41    N42     1.294   .     D
N41    Zn54    2.023   .     S
N42    Zn53    2.023   .     S
O43    Zn53    1.961   .     S
O43    C55     1.273   .     S
O44    C343    1.221   1_545 S
O45    Zn54    1.961   .     S
O45    C120    1.273   1_455 S
O46    Zn54    1.979   .     S
O47    Zn53    1.979   .     S
O48    Zn53    1.959   .     S
O48    C80     1.293   .     S
O49    Zn54    1.959   .     S
O49    C110    1.293   1_455 S
O50    Zn54    1.912   .     S
O51    Zn53    1.912   .     S
O52    C180    1.221   .     S
C55    C78     1.408   .     S
C55    O100    1.293   .     A
C56    C58     1.448   .     S
C56    O105    1.298   .     A
C56    O157    1.293   .     S
C57    C63     1.389   .     A
C57    C80     1.451   .     S
C58    C62     1.400   .     A
C58    C64     1.385   .     A
C59    C68     1.403   .     A
C60    H93     1.084   .     S
C60    C62     1.394   .     A
C60    C69     1.404   .     A
C61    H91     1.083   .     S
C61    C111    1.399   .     S
C61    C113    1.392   .     S
C62    H144    1.083   .     S
C63    C65     1.393   .     A
C63    H89     1.077   .     S
C64    H88     1.079   .     S
C64    C67     1.392   .     A
C65    C68     1.419   .     A
C65    C70     1.416   .     A
C66    C79     1.407   .     S
C66    O101    1.293   .     A
C66    O153    1.273   .     S
C67    C71     1.414   .     A
C67    C69     1.418   .     A
C68    C562    1.389   .     S
C69    C563    1.390   1_554 S
C70    C75     1.418   .     A
C70    C557    1.414   .     S
C71    C74     1.418   .     A
C71    C556    1.414   1_554 S
C72    H85     1.085   .     S
C72    C402    1.502   1_545 S
C72    O430    1.221   1_545 S
C73    H86     1.085   .     S
C73    C241    1.502   .     S
C73    O260    1.221   .     S
C74    H94     1.078   .     S
C74    C76     1.385   .     A
C75    H84     1.078   .     S
C75    C77     1.388   .     A
C76    H83     1.084   .     S
C76    C554    1.389   1_554 S
C77    H87     1.084   .     S
C77    C555    1.390   .     S
C78    C234    1.502   .     S
C78    C187    1.362   .     S
C79    C456    1.362   1_545 S
C79    C397    1.502   1_545 S
C80    O104    1.300   .     A
F81    N95     1.335   .     S
F82    N96     1.335   .     S
H92    C113    1.084   .     S
N95    N96     1.294   .     D
N95    Zn108   2.023   .     S
N96    Zn107   2.023   .     S
O97    Zn107   1.961   .     S
O97    C109    1.273   .     S
O98    C397    1.221   1_545 S
O99    Zn108   1.961   .     S
O100   Zn108   1.979   .     S
O101   Zn107   1.979   .     S
O102   Zn107   1.959   .     S
O102   C134    1.293   .     S
O103   Zn108   1.959   .     S
O104   Zn108   1.912   .     S
O105   Zn107   1.912   .     S
O106   C234    1.221   .     S
C109   C132    1.408   .     S
C109   O154    1.293   .     A
C110   C112    1.448   .     S
C110   O159    1.298   .     A
C110   O49     1.293   1_655 S
C111   C117    1.389   .     A
C111   C134    1.451   .     S
C112   C116    1.400   .     A
C112   C118    1.385   .     A
C113   C122    1.403   .     A
C114   H147    1.084   .     S
C114   C116    1.394   .     A
C114   C123    1.404   .     A
C115   H145    1.083   .     S
C115   C3      1.399   1_655 S
C115   C5      1.392   1_655 S
C116   H36     1.083   1_655 S
C117   C119    1.393   .     A
C117   H143    1.077   .     S
C118   H142    1.079   .     S
C118   C121    1.392   .     A
C119   C122    1.419   .     A
C119   C124    1.416   .     A
C120   C133    1.407   .     S
C120   O155    1.293   .     A
C120   O45     1.273   1_655 S
C121   C125    1.414   .     A
C121   C123    1.418   .     A
C122   C616    1.389   .     S
C123   C617    1.390   1_554 S
C124   C129    1.418   .     A
C124   C611    1.414   .     S
C125   C128    1.418   .     A
C125   C610    1.414   1_554 S
C126   H139    1.085   .     S
C126   C456    1.502   1_545 S
C126   O484    1.221   1_545 S
C127   H140    1.085   .     S
C127   C295    1.502   .     S
C127   O314    1.221   .     S
C128   H148    1.078   .     S
C128   C130    1.385   .     A
C129   H138    1.078   .     S
C129   C131    1.388   .     A
C130   H137    1.084   .     S
C130   C608    1.389   1_554 S
C131   H141    1.084   .     S
C131   C609    1.390   .     S
C132   C288    1.502   .     S
C132   C241    1.362   .     S
C133   C348    1.362   1_645 S
C133   C451    1.502   1_545 S
C134   O158    1.300   .     A
F135   N149    1.335   .     S
F136   N150    1.335   .     S
H146   C5      1.084   1_655 S
N149   N150    1.294   .     D
N149   Zn162   2.023   .     S
N150   Zn161   2.023   .     S
O151   Zn161   1.961   .     S
O151   C1      1.273   1_655 S
O152   C451    1.221   1_545 S
O153   Zn162   1.961   .     S
O154   Zn162   1.979   .     S
O155   Zn161   1.979   .     S
O156   Zn161   1.959   .     S
O156   C26     1.293   1_655 S
O157   Zn162   1.959   .     S
O158   Zn162   1.912   .     S
O159   Zn161   1.912   .     S
O160   C288    1.221   .     S
C163   C186    1.408   .     S
C163   O208    1.293   .     A
C163   O313    1.273   1_455 S
C164   C166    1.448   .     S
C164   O213    1.298   .     A
C164   O265    1.293   .     S
C165   C171    1.389   .     A
C165   C188    1.451   .     S
C165   C277    1.399   1_455 S
C166   C170    1.400   .     A
C166   C172    1.385   .     A
C167   C176    1.403   .     A
C167   C277    1.392   1_455 S
C167   H308    1.084   1_455 S
C168   H201    1.084   .     S
C168   C170    1.394   .     A
C168   C177    1.404   .     A
C169   H199    1.083   .     S
C169   C219    1.399   .     S
C169   C221    1.392   .     S
C170   H252    1.083   .     S
C171   C173    1.393   .     A
C171   H197    1.077   .     S
C172   H196    1.079   .     S
C172   C175    1.392   .     A
C173   C176    1.419   .     A
C173   C178    1.416   .     A
C174   C187    1.407   .     S
C174   O209    1.293   .     A
C174   O261    1.273   .     S
C175   C179    1.414   .     A
C175   C177    1.418   .     A
C176   C670    1.389   .     S
C177   C671    1.390   1_554 S
C178   C183    1.418   .     A
C178   C665    1.414   .     S
C179   C182    1.418   .     A
C179   C664    1.414   1_554 S
C180   H193    1.085   .     S
C181   H194    1.085   .     S
C181   C349    1.502   .     S
C181   O368    1.221   .     S
C182   H202    1.078   .     S
C182   C184    1.385   .     A
C183   H192    1.078   .     S
C183   C185    1.388   .     A
C184   H191    1.084   .     S
C184   C662    1.389   1_554 S
C185   H195    1.084   .     S
C185   C663    1.390   .     S
C186   C342    1.502   .     S
C186   C457    1.362   1_455 S
C188   O212    1.300   .     A
C188   O318    1.293   1_455 S
F189   N203    1.335   .     S
F190   N204    1.335   .     S
H198   C278    1.083   1_455 S
H200   C221    1.084   .     S
N203   N204    1.294   .     D
N203   Zn216   2.023   .     S
N204   Zn215   2.023   .     S
O205   Zn215   1.961   .     S
O205   C217    1.273   .     S
O207   Zn216   1.961   .     S
O207   C282    1.273   1_455 S
O208   Zn216   1.979   .     S
O209   Zn215   1.979   .     S
O210   Zn215   1.959   .     S
O210   C242    1.293   .     S
O211   Zn216   1.959   .     S
O211   C272    1.293   1_455 S
O212   Zn216   1.912   .     S
O213   Zn215   1.912   .     S
O214   C342    1.221   .     S
C217   C240    1.408   .     S
C217   O262    1.293   .     A
C218   C220    1.448   .     S
C218   O267    1.298   .     A
C218   O319    1.293   .     S
C219   C225    1.389   .     A
C219   C242    1.451   .     S
C220   C224    1.400   .     A
C220   C226    1.385   .     A
C221   C230    1.403   .     A
C222   H255    1.084   .     S
C222   C224    1.394   .     A
C222   C231    1.404   .     A
C223   H253    1.083   .     S
C223   C273    1.399   .     S
C223   C275    1.392   .     S
C224   H306    1.083   .     S
C225   C227    1.393   .     A
C225   H251    1.077   .     S
C226   H250    1.079   .     S
C226   C229    1.392   .     A
C227   C230    1.419   .     A
C227   C232    1.416   .     A
C228   C241    1.407   .     S
C228   O263    1.293   .     A
C228   O315    1.273   .     S
C229   C233    1.414   .     A
C229   C231    1.418   .     A
C230   C724    1.389   .     S
C231   C725    1.390   1_554 S
C232   C237    1.418   .     A
C232   C719    1.414   .     S
C233   C236    1.418   .     A
C233   C718    1.414   1_554 S
C234   H247    1.085   .     S
C235   H248    1.085   .     S
C235   C403    1.502   .     S
C235   O422    1.221   .     S
C236   H256    1.078   .     S
C236   C238    1.385   .     A
C237   H246    1.078   .     S
C237   C239    1.388   .     A
C238   H245    1.084   .     S
C238   C716    1.389   1_554 S
C239   H249    1.084   .     S
C239   C717    1.390   .     S
C240   C396    1.502   .     S
C240   C349    1.362   .     S
C242   O266    1.300   .     A
F243   N257    1.335   .     S
F244   N258    1.335   .     S
H254   C275    1.084   .     S
N257   N258    1.294   .     D
N257   Zn270   2.023   .     S
N258   Zn269   2.023   .     S
O259   Zn269   1.961   .     S
O259   C271    1.273   .     S
O261   Zn270   1.961   .     S
O262   Zn270   1.979   .     S
O263   Zn269   1.979   .     S
O264   Zn269   1.959   .     S
O264   C296    1.293   .     S
O265   Zn270   1.959   .     S
O266   Zn270   1.912   .     S
O267   Zn269   1.912   .     S
O268   C396    1.221   .     S
C271   C294    1.408   .     S
C271   O316    1.293   .     A
C272   C274    1.448   .     S
C272   O321    1.298   .     A
C272   O211    1.293   1_655 S
C273   C279    1.389   .     A
C273   C296    1.451   .     S
C274   C278    1.400   .     A
C274   C280    1.385   .     A
C275   C284    1.403   .     A
C276   H309    1.084   .     S
C276   C278    1.394   .     A
C276   C285    1.404   .     A
C277   H307    1.083   .     S
C277   C165    1.399   1_655 S
C277   C167    1.392   1_655 S
C278   H198    1.083   1_655 S
C279   C281    1.393   .     A
C279   H305    1.077   .     S
C280   H304    1.079   .     S
C280   C283    1.392   .     A
C281   C284    1.419   .     A
C281   C286    1.416   .     A
C282   C295    1.407   .     S
C282   O317    1.293   .     A
C282   O207    1.273   1_655 S
C283   C287    1.414   .     A
C283   C285    1.418   .     A
C284   C778    1.389   .     S
C285   C779    1.390   1_554 S
C286   C291    1.418   .     A
C286   C773    1.414   .     S
C287   C290    1.418   .     A
C287   C772    1.414   1_554 S
C288   H301    1.085   .     S
C289   H302    1.085   .     S
C289   C457    1.502   .     S
C289   O476    1.221   .     S
C290   H310    1.078   .     S
C290   C292    1.385   .     A
C291   H300    1.078   .     S
C291   C293    1.388   .     A
C292   H299    1.084   .     S
C292   C770    1.389   1_554 S
C293   H303    1.084   .     S
C293   C771    1.390   .     S
C294   C450    1.502   .     S
C294   C403    1.362   .     S
C295   C24     1.362   1_655 S
C296   O320    1.300   .     A
F297   N311    1.335   .     S
F298   N312    1.335   .     S
H308   C167    1.084   1_655 S
N311   N312    1.294   .     D
N311   Zn324   2.023   .     S
N312   Zn323   2.023   .     S
O313   Zn323   1.961   .     S
O313   C163    1.273   1_655 S
O315   Zn324   1.961   .     S
O316   Zn324   1.979   .     S
O317   Zn323   1.979   .     S
O318   Zn323   1.959   .     S
O318   C188    1.293   1_655 S
O319   Zn324   1.959   .     S
O320   Zn324   1.912   .     S
O321   Zn323   1.912   .     S
O322   C450    1.221   .     S
C325   C348    1.408   .     S
C325   O370    1.293   .     A
C325   O475    1.273   1_455 S
C326   C328    1.448   .     S
C326   O375    1.298   .     A
C326   O427    1.293   .     S
C327   C333    1.389   .     A
C327   C350    1.451   .     S
C327   C439    1.399   1_455 S
C328   C332    1.400   .     A
C328   C334    1.385   .     A
C329   C338    1.403   .     A
C329   C439    1.392   1_455 S
C329   H470    1.084   1_455 S
C330   H363    1.084   .     S
C330   C332    1.394   .     A
C330   C339    1.404   .     A
C331   H361    1.083   .     S
C331   C381    1.399   .     S
C331   C383    1.392   .     S
C332   H414    1.083   .     S
C333   C335    1.393   .     A
C333   H359    1.077   .     S
C334   H358    1.079   .     S
C334   C337    1.392   .     A
C335   C338    1.419   .     A
C335   C340    1.416   .     A
C336   C349    1.407   .     S
C336   O371    1.293   .     A
C336   O423    1.273   .     S
C337   C341    1.414   .     A
C337   C339    1.418   .     A
C338   C832    1.389   .     S
C339   C833    1.390   1_554 S
C340   C345    1.418   .     A
C340   C827    1.414   .     S
C341   C344    1.418   .     A
C341   C826    1.414   1_554 S
C342   H355    1.085   .     S
C343   H356    1.085   .     S
C343   C25     1.502   1_565 S
C343   O44     1.221   1_565 S
C344   H364    1.078   .     S
C344   C346    1.385   .     A
C345   H354    1.078   .     S
C345   C347    1.388   .     A
C346   H353    1.084   .     S
C346   C824    1.389   1_554 S
C347   H357    1.084   .     S
C347   C825    1.390   .     S
C348   C18     1.502   1_565 S
C348   C133    1.362   1_465 S
C350   O374    1.300   .     A
C350   O480    1.293   1_455 S
F351   N365    1.335   .     S
F352   N366    1.335   .     S
H360   C440    1.083   1_455 S
H362   C383    1.084   .     S
N365   N366    1.294   .     D
N365   Zn378   2.023   .     S
N366   Zn377   2.023   .     S
O367   Zn377   1.961   .     S
O367   C379    1.273   .     S
O369   Zn378   1.961   .     S
O369   C444    1.273   1_455 S
O370   Zn378   1.979   .     S
O371   Zn377   1.979   .     S
O372   Zn377   1.959   .     S
O372   C404    1.293   .     S
O373   Zn378   1.959   .     S
O373   C434    1.293   1_455 S
O374   Zn378   1.912   .     S
O375   Zn377   1.912   .     S
O376   C18     1.221   1_565 S
C379   C402    1.408   .     S
C379   O424    1.293   .     A
C380   C382    1.448   .     S
C380   O429    1.298   .     A
C380   O481    1.293   .     S
C381   C387    1.389   .     A
C381   C404    1.451   .     S
C382   C386    1.400   .     A
C382   C388    1.385   .     A
C383   C392    1.403   .     A
C384   H417    1.084   .     S
C384   C386    1.394   .     A
C384   C393    1.404   .     A
C385   H415    1.083   .     S
C385   C435    1.399   .     S
C385   C437    1.392   .     S
C386   H468    1.083   .     S
C387   C389    1.393   .     A
C387   H413    1.077   .     S
C388   H412    1.079   .     S
C388   C391    1.392   .     A
C389   C392    1.419   .     A
C389   C394    1.416   .     A
C390   C403    1.407   .     S
C390   O425    1.293   .     A
C390   O477    1.273   .     S
C391   C395    1.414   .     A
C391   C393    1.418   .     A
C392   C886    1.389   .     S
C393   C887    1.390   1_554 S
C394   C399    1.418   .     A
C394   C881    1.414   .     S
C395   C398    1.418   .     A
C395   C880    1.414   1_554 S
C396   H409    1.085   .     S
C397   H410    1.085   .     S
C397   C79     1.502   1_565 S
C397   O98     1.221   1_565 S
C398   H418    1.078   .     S
C398   C400    1.385   .     A
C399   H408    1.078   .     S
C399   C401    1.388   .     A
C400   H407    1.084   .     S
C400   C878    1.389   1_554 S
C401   H411    1.084   .     S
C401   C879    1.390   .     S
C402   C72     1.502   1_565 S
C402   C25     1.362   1_565 S
C404   O428    1.300   .     A
F405   N419    1.335   .     S
F406   N420    1.335   .     S
H416   C437    1.084   .     S
N419   N420    1.294   .     D
N419   Zn432   2.023   .     S
N420   Zn431   2.023   .     S
O421   Zn431   1.961   .     S
O421   C433    1.273   .     S
O423   Zn432   1.961   .     S
O424   Zn432   1.979   .     S
O425   Zn431   1.979   .     S
O426   Zn431   1.959   .     S
O426   C458    1.293   .     S
O427   Zn432   1.959   .     S
O428   Zn432   1.912   .     S
O429   Zn431   1.912   .     S
O430   C72     1.221   1_565 S
C433   C456    1.408   .     S
C433   O478    1.293   .     A
C434   C436    1.448   .     S
C434   O483    1.298   .     A
C434   O373    1.293   1_655 S
C435   C441    1.389   .     A
C435   C458    1.451   .     S
C436   C440    1.400   .     A
C436   C442    1.385   .     A
C437   C446    1.403   .     A
C438   H471    1.084   .     S
C438   C440    1.394   .     A
C438   C447    1.404   .     A
C439   H469    1.083   .     S
C439   C327    1.399   1_655 S
C439   C329    1.392   1_655 S
C440   H360    1.083   1_655 S
C441   C443    1.393   .     A
C441   H467    1.077   .     S
C442   H466    1.079   .     S
C442   C445    1.392   .     A
C443   C446    1.419   .     A
C443   C448    1.416   .     A
C444   C457    1.407   .     S
C444   O479    1.293   .     A
C444   O369    1.273   1_655 S
C445   C449    1.414   .     A
C445   C447    1.418   .     A
C446   C940    1.389   .     S
C447   C941    1.390   1_554 S
C448   C453    1.418   .     A
C448   C935    1.414   .     S
C449   C452    1.418   .     A
C449   C934    1.414   1_554 S
C450   H463    1.085   .     S
C451   H464    1.085   .     S
C451   C133    1.502   1_565 S
C451   O152    1.221   1_565 S
C452   H472    1.078   .     S
C452   C454    1.385   .     A
C453   H462    1.078   .     S
C453   C455    1.388   .     A
C454   H461    1.084   .     S
C454   C932    1.389   1_554 S
C455   H465    1.084   .     S
C455   C933    1.390   .     S
C456   C126    1.502   1_565 S
C456   C79     1.362   1_565 S
C457   C186    1.362   1_655 S
C458   O482    1.300   .     A
F459   N473    1.335   .     S
F460   N474    1.335   .     S
H470   C329    1.084   1_655 S
N473   N474    1.294   .     D
N473   Zn486   2.023   .     S
N474   Zn485   2.023   .     S
O475   Zn485   1.961   .     S
O475   C325    1.273   1_655 S
O477   Zn486   1.961   .     S
O478   Zn486   1.979   .     S
O479   Zn485   1.979   .     S
O480   Zn485   1.959   .     S
O480   C350    1.293   1_655 S
O481   Zn486   1.959   .     S
O482   Zn486   1.912   .     S
O483   Zn485   1.912   .     S
O484   C126    1.221   1_565 S
C487   C510    1.408   .     S
C487   O532    1.293   .     A
C487   O637    1.273   1_455 S
C488   C490    1.448   .     S
C488   O537    1.298   .     A
C488   O589    1.293   .     S
C489   C495    1.389   .     A
C489   C512    1.451   .     S
C489   C601    1.399   1_455 S
C490   C494    1.400   .     A
C490   C496    1.385   .     A
C491   C500    1.403   .     A
C491   C601    1.392   1_455 S
C491   H632    1.084   1_455 S
C492   H525    1.084   .     S
C492   C494    1.394   .     A
C492   C501    1.404   .     A
C493   H523    1.083   .     S
C493   C543    1.399   .     S
C493   C545    1.392   .     S
C494   H576    1.083   .     S
C495   C497    1.393   .     A
C495   H521    1.077   .     S
C496   H520    1.079   .     S
C496   C499    1.392   .     A
C497   C500    1.419   .     A
C497   C502    1.416   .     A
C498   C511    1.407   .     S
C498   O533    1.293   .     A
C498   O585    1.273   .     S
C499   C503    1.414   .     A
C499   C501    1.418   .     A
C500   C22     1.389   1_556 S
C502   C507    1.418   .     A
C502   C17     1.414   1_556 S
C503   C506    1.418   .     A
C504   H517    1.085   .     S
C504   C834    1.502   1_545 S
C504   O862    1.221   1_545 S
C505   H518    1.085   .     S
C505   C673    1.502   .     S
C505   O692    1.221   .     S
C506   H526    1.078   .     S
C506   C508    1.385   .     A
C507   H516    1.078   .     S
C507   C509    1.388   .     A
C508   H515    1.084   .     S
C509   H519    1.084   .     S
C509   C15     1.390   1_556 S
C510   C666    1.502   .     S
C510   C781    1.362   1_455 S
C511   C888    1.362   1_545 S
C511   C829    1.502   1_545 S
C512   O536    1.300   .     A
C512   O642    1.293   1_455 S
F513   N527    1.335   .     S
F514   N528    1.335   .     S
H522   C602    1.083   1_455 S
H524   C545    1.084   .     S
N527   N528    1.294   .     D
N527   Zn540   2.023   .     S
N528   Zn539   2.023   .     S
O529   Zn539   1.961   .     S
O529   C541    1.273   .     S
O530   C829    1.221   1_545 S
O531   Zn540   1.961   .     S
O531   C606    1.273   1_455 S
O532   Zn540   1.979   .     S
O533   Zn539   1.979   .     S
O534   Zn539   1.959   .     S
O534   C566    1.293   .     S
O535   Zn540   1.959   .     S
O535   C596    1.293   1_455 S
O536   Zn540   1.912   .     S
O537   Zn539   1.912   .     S
O538   C666    1.221   .     S
C541   C564    1.408   .     S
C541   O586    1.293   .     A
C542   C544    1.448   .     S
C542   O591    1.298   .     A
C542   O643    1.293   .     S
C543   C549    1.389   .     A
C543   C566    1.451   .     S
C544   C548    1.400   .     A
C544   C550    1.385   .     A
C545   C554    1.403   .     A
C546   H579    1.084   .     S
C546   C548    1.394   .     A
C546   C555    1.404   .     A
C547   H577    1.083   .     S
C547   C597    1.399   .     S
C547   C599    1.392   .     S
C548   H630    1.083   .     S
C549   C551    1.393   .     A
C549   H575    1.077   .     S
C550   H574    1.079   .     S
C550   C553    1.392   .     A
C551   C554    1.419   .     A
C551   C556    1.416   .     A
C552   C565    1.407   .     S
C552   O587    1.293   .     A
C552   O639    1.273   .     S
C553   C557    1.414   .     A
C553   C555    1.418   .     A
C554   C76     1.389   1_556 S
C556   C561    1.418   .     A
C556   C71     1.414   1_556 S
C557   C560    1.418   .     A
C558   H571    1.085   .     S
C558   C888    1.502   1_545 S
C558   O916    1.221   1_545 S
C559   H572    1.085   .     S
C559   C727    1.502   .     S
C559   O746    1.221   .     S
C560   H580    1.078   .     S
C560   C562    1.385   .     A
C561   H570    1.078   .     S
C561   C563    1.388   .     A
C562   H569    1.084   .     S
C563   H573    1.084   .     S
C563   C69     1.390   1_556 S
C564   C720    1.502   .     S
C564   C673    1.362   .     S
C565   C942    1.362   1_545 S
C565   C883    1.502   1_545 S
C566   O590    1.300   .     A
F567   N581    1.335   .     S
F568   N582    1.335   .     S
H578   C599    1.084   .     S
N581   N582    1.294   .     D
N581   Zn594   2.023   .     S
N582   Zn593   2.023   .     S
O583   Zn593   1.961   .     S
O583   C595    1.273   .     S
O584   C883    1.221   1_545 S
O585   Zn594   1.961   .     S
O586   Zn594   1.979   .     S
O587   Zn593   1.979   .     S
O588   Zn593   1.959   .     S
O588   C620    1.293   .     S
O589   Zn594   1.959   .     S
O590   Zn594   1.912   .     S
O591   Zn593   1.912   .     S
O592   C720    1.221   .     S
C595   C618    1.408   .     S
C595   O640    1.293   .     A
C596   C598    1.448   .     S
C596   O645    1.298   .     A
C596   O535    1.293   1_655 S
C597   C603    1.389   .     A
C597   C620    1.451   .     S
C598   C602    1.400   .     A
C598   C604    1.385   .     A
C599   C608    1.403   .     A
C600   H633    1.084   .     S
C600   C602    1.394   .     A
C600   C609    1.404   .     A
C601   H631    1.083   .     S
C601   C489    1.399   1_655 S
C601   C491    1.392   1_655 S
C602   H522    1.083   1_655 S
C603   C605    1.393   .     A
C603   H629    1.077   .     S
C604   H628    1.079   .     S
C604   C607    1.392   .     A
C605   C608    1.419   .     A
C605   C610    1.416   .     A
C606   C619    1.407   .     S
C606   O641    1.293   .     A
C606   O531    1.273   1_655 S
C607   C611    1.414   .     A
C607   C609    1.418   .     A
C608   C130    1.389   1_556 S
C610   C615    1.418   .     A
C610   C125    1.414   1_556 S
C611   C614    1.418   .     A
C612   H625    1.085   .     S
C612   C942    1.502   1_545 S
C612   O970    1.221   1_545 S
C613   H626    1.085   .     S
C613   C781    1.502   .     S
C613   O800    1.221   .     S
C614   H634    1.078   .     S
C614   C616    1.385   .     A
C615   H624    1.078   .     S
C615   C617    1.388   .     A
C616   H623    1.084   .     S
C617   H627    1.084   .     S
C617   C123    1.390   1_556 S
C618   C774    1.502   .     S
C618   C727    1.362   .     S
C619   C834    1.362   1_645 S
C619   C937    1.502   1_545 S
C620   O644    1.300   .     A
F621   N635    1.335   .     S
F622   N636    1.335   .     S
H632   C491    1.084   1_655 S
N635   N636    1.294   .     D
N635   Zn648   2.023   .     S
N636   Zn647   2.023   .     S
O637   Zn647   1.961   .     S
O637   C487    1.273   1_655 S
O638   C937    1.221   1_545 S
O639   Zn648   1.961   .     S
O640   Zn648   1.979   .     S
O641   Zn647   1.979   .     S
O642   Zn647   1.959   .     S
O642   C512    1.293   1_655 S
O643   Zn648   1.959   .     S
O644   Zn648   1.912   .     S
O645   Zn647   1.912   .     S
O646   C774    1.221   .     S
C649   C672    1.408   .     S
C649   O694    1.293   .     A
C649   O799    1.273   1_455 S
C650   C652    1.448   .     S
C650   O699    1.298   .     A
C650   O751    1.293   .     S
C651   C657    1.389   .     A
C651   C674    1.451   .     S
C651   C763    1.399   1_455 S
C652   C656    1.400   .     A
C652   C658    1.385   .     A
C653   C662    1.403   .     A
C653   C763    1.392   1_455 S
C653   H794    1.084   1_455 S
C654   H687    1.084   .     S
C654   C656    1.394   .     A
C654   C663    1.404   .     A
C655   H685    1.083   .     S
C655   C705    1.399   .     S
C655   C707    1.392   .     S
C656   H738    1.083   .     S
C657   C659    1.393   .     A
C657   H683    1.077   .     S
C658   H682    1.079   .     S
C658   C661    1.392   .     A
C659   C662    1.419   .     A
C659   C664    1.416   .     A
C660   C673    1.407   .     S
C660   O695    1.293   .     A
C660   O747    1.273   .     S
C661   C665    1.414   .     A
C661   C663    1.418   .     A
C662   C184    1.389   1_556 S
C664   C669    1.418   .     A
C664   C179    1.414   1_556 S
C665   C668    1.418   .     A
C666   H679    1.085   .     S
C667   H680    1.085   .     S
C667   C835    1.502   .     S
C667   O854    1.221   .     S
C668   H688    1.078   .     S
C668   C670    1.385   .     A
C669   H678    1.078   .     S
C669   C671    1.388   .     A
C670   H677    1.084   .     S
C671   H681    1.084   .     S
C671   C177    1.390   1_556 S
C672   C828    1.502   .     S
C672   C943    1.362   1_455 S
C674   O698    1.300   .     A
C674   O804    1.293   1_455 S
F675   N689    1.335   .     S
F676   N690    1.335   .     S
H684   C764    1.083   1_455 S
H686   C707    1.084   .     S
N689   N690    1.294   .     D
N689   Zn702   2.023   .     S
N690   Zn701   2.023   .     S
O691   Zn701   1.961   .     S
O691   C703    1.273   .     S
O693   Zn702   1.961   .     S
O693   C768    1.273   1_455 S
O694   Zn702   1.979   .     S
O695   Zn701   1.979   .     S
O696   Zn701   1.959   .     S
O696   C728    1.293   .     S
O697   Zn702   1.959   .     S
O697   C758    1.293   1_455 S
O698   Zn702   1.912   .     S
O699   Zn701   1.912   .     S
O700   C828    1.221   .     S
C703   C726    1.408   .     S
C703   O748    1.293   .     A
C704   C706    1.448   .     S
C704   O753    1.298   .     A
C704   O805    1.293   .     S
C705   C711    1.389   .     A
C705   C728    1.451   .     S
C706   C710    1.400   .     A
C706   C712    1.385   .     A
C707   C716    1.403   .     A
C708   H741    1.084   .     S
C708   C710    1.394   .     A
C708   C717    1.404   .     A
C709   H739    1.083   .     S
C709   C759    1.399   .     S
C709   C761    1.392   .     S
C710   H792    1.083   .     S
C711   C713    1.393   .     A
C711   H737    1.077   .     S
C712   H736    1.079   .     S
C712   C715    1.392   .     A
C713   C716    1.419   .     A
C713   C718    1.416   .     A
C714   C727    1.407   .     S
C714   O749    1.293   .     A
C714   O801    1.273   .     S
C715   C719    1.414   .     A
C715   C717    1.418   .     A
C716   C238    1.389   1_556 S
C718   C723    1.418   .     A
C718   C233    1.414   1_556 S
C719   C722    1.418   .     A
C720   H733    1.085   .     S
C721   H734    1.085   .     S
C721   C889    1.502   .     S
C721   O908    1.221   .     S
C722   H742    1.078   .     S
C722   C724    1.385   .     A
C723   H732    1.078   .     S
C723   C725    1.388   .     A
C724   H731    1.084   .     S
C725   H735    1.084   .     S
C725   C231    1.390   1_556 S
C726   C882    1.502   .     S
C726   C835    1.362   .     S
C728   O752    1.300   .     A
F729   N743    1.335   .     S
F730   N744    1.335   .     S
H740   C761    1.084   .     S
N743   N744    1.294   .     D
N743   Zn756   2.023   .     S
N744   Zn755   2.023   .     S
O745   Zn755   1.961   .     S
O745   C757    1.273   .     S
O747   Zn756   1.961   .     S
O748   Zn756   1.979   .     S
O749   Zn755   1.979   .     S
O750   Zn755   1.959   .     S
O750   C782    1.293   .     S
O751   Zn756   1.959   .     S
O752   Zn756   1.912   .     S
O753   Zn755   1.912   .     S
O754   C882    1.221   .     S
C757   C780    1.408   .     S
C757   O802    1.293   .     A
C758   C760    1.448   .     S
C758   O807    1.298   .     A
C758   O697    1.293   1_655 S
C759   C765    1.389   .     A
C759   C782    1.451   .     S
C760   C764    1.400   .     A
C760   C766    1.385   .     A
C761   C770    1.403   .     A
C762   H795    1.084   .     S
C762   C764    1.394   .     A
C762   C771    1.404   .     A
C763   H793    1.083   .     S
C763   C651    1.399   1_655 S
C763   C653    1.392   1_655 S
C764   H684    1.083   1_655 S
C765   C767    1.393   .     A
C765   H791    1.077   .     S
C766   H790    1.079   .     S
C766   C769    1.392   .     A
C767   C770    1.419   .     A
C767   C772    1.416   .     A
C768   C781    1.407   .     S
C768   O803    1.293   .     A
C768   O693    1.273   1_655 S
C769   C773    1.414   .     A
C769   C771    1.418   .     A
C770   C292    1.389   1_556 S
C772   C777    1.418   .     A
C772   C287    1.414   1_556 S
C773   C776    1.418   .     A
C774   H787    1.085   .     S
C775   H788    1.085   .     S
C775   C943    1.502   .     S
C775   O962    1.221   .     S
C776   H796    1.078   .     S
C776   C778    1.385   .     A
C777   H786    1.078   .     S
C777   C779    1.388   .     A
C778   H785    1.084   .     S
C779   H789    1.084   .     S
C779   C285    1.390   1_556 S
C780   C936    1.502   .     S
C780   C889    1.362   .     S
C781   C510    1.362   1_655 S
C782   O806    1.300   .     A
F783   N797    1.335   .     S
F784   N798    1.335   .     S
H794   C653    1.084   1_655 S
N797   N798    1.294   .     D
N797   Zn810   2.023   .     S
N798   Zn809   2.023   .     S
O799   Zn809   1.961   .     S
O799   C649    1.273   1_655 S
O801   Zn810   1.961   .     S
O802   Zn810   1.979   .     S
O803   Zn809   1.979   .     S
O804   Zn809   1.959   .     S
O804   C674    1.293   1_655 S
O805   Zn810   1.959   .     S
O806   Zn810   1.912   .     S
O807   Zn809   1.912   .     S
O808   C936    1.221   .     S
C811   C834    1.408   .     S
C811   O856    1.293   .     A
C811   O961    1.273   1_455 S
C812   C814    1.448   .     S
C812   O861    1.298   .     A
C812   O913    1.293   .     S
C813   C819    1.389   .     A
C813   C836    1.451   .     S
C813   C925    1.399   1_455 S
C814   C818    1.400   .     A
C814   C820    1.385   .     A
C815   C824    1.403   .     A
C815   C925    1.392   1_455 S
C815   H956    1.084   1_455 S
C816   H849    1.084   .     S
C816   C818    1.394   .     A
C816   C825    1.404   .     A
C817   H847    1.083   .     S
C817   C867    1.399   .     S
C817   C869    1.392   .     S
C818   H900    1.083   .     S
C819   C821    1.393   .     A
C819   H845    1.077   .     S
C820   H844    1.079   .     S
C820   C823    1.392   .     A
C821   C824    1.419   .     A
C821   C826    1.416   .     A
C822   C835    1.407   .     S
C822   O857    1.293   .     A
C822   O909    1.273   .     S
C823   C827    1.414   .     A
C823   C825    1.418   .     A
C824   C346    1.389   1_556 S
C826   C831    1.418   .     A
C826   C341    1.414   1_556 S
C827   C830    1.418   .     A
C828   H841    1.085   .     S
C829   H842    1.085   .     S
C829   C511    1.502   1_565 S
C829   O530    1.221   1_565 S
C830   H850    1.078   .     S
C830   C832    1.385   .     A
C831   H840    1.078   .     S
C831   C833    1.388   .     A
C832   H839    1.084   .     S
C833   H843    1.084   .     S
C833   C339    1.390   1_556 S
C834   C504    1.502   1_565 S
C834   C619    1.362   1_465 S
C836   O860    1.300   .     A
C836   O966    1.293   1_455 S
F837   N851    1.335   .     S
F838   N852    1.335   .     S
H846   C926    1.083   1_455 S
H848   C869    1.084   .     S
N851   N852    1.294   .     D
N851   Zn864   2.023   .     S
N852   Zn863   2.023   .     S
O853   Zn863   1.961   .     S
O853   C865    1.273   .     S
O855   Zn864   1.961   .     S
O855   C930    1.273   1_455 S
O856   Zn864   1.979   .     S
O857   Zn863   1.979   .     S
O858   Zn863   1.959   .     S
O858   C890    1.293   .     S
O859   Zn864   1.959   .     S
O859   C920    1.293   1_455 S
O860   Zn864   1.912   .     S
O861   Zn863   1.912   .     S
O862   C504    1.221   1_565 S
C865   C888    1.408   .     S
C865   O910    1.293   .     A
C866   C868    1.448   .     S
C866   O915    1.298   .     A
C866   O967    1.293   .     S
C867   C873    1.389   .     A
C867   C890    1.451   .     S
C868   C872    1.400   .     A
C868   C874    1.385   .     A
C869   C878    1.403   .     A
C870   H903    1.084   .     S
C870   C872    1.394   .     A
C870   C879    1.404   .     A
C871   H901    1.083   .     S
C871   C921    1.399   .     S
C871   C923    1.392   .     S
C872   H954    1.083   .     S
C873   C875    1.393   .     A
C873   H899    1.077   .     S
C874   H898    1.079   .     S
C874   C877    1.392   .     A
C875   C878    1.419   .     A
C875   C880    1.416   .     A
C876   C889    1.407   .     S
C876   O911    1.293   .     A
C876   O963    1.273   .     S
C877   C881    1.414   .     A
C877   C879    1.418   .     A
C878   C400    1.389   1_556 S
C880   C885    1.418   .     A
C880   C395    1.414   1_556 S
C881   C884    1.418   .     A
C882   H895    1.085   .     S
C883   H896    1.085   .     S
C883   C565    1.502   1_565 S
C883   O584    1.221   1_565 S
C884   H904    1.078   .     S
C884   C886    1.385   .     A
C885   H894    1.078   .     S
C885   C887    1.388   .     A
C886   H893    1.084   .     S
C887   H897    1.084   .     S
C887   C393    1.390   1_556 S
C888   C558    1.502   1_565 S
C888   C511    1.362   1_565 S
C890   O914    1.300   .     A
F891   N905    1.335   .     S
F892   N906    1.335   .     S
H902   C923    1.084   .     S
N905   N906    1.294   .     D
N905   Zn918   2.023   .     S
N906   Zn917   2.023   .     S
O907   Zn917   1.961   .     S
O907   C919    1.273   .     S
O909   Zn918   1.961   .     S
O910   Zn918   1.979   .     S
O911   Zn917   1.979   .     S
O912   Zn917   1.959   .     S
O912   C944    1.293   .     S
O913   Zn918   1.959   .     S
O914   Zn918   1.912   .     S
O915   Zn917   1.912   .     S
O916   C558    1.221   1_565 S
C919   C942    1.408   .     S
C919   O964    1.293   .     A
C920   C922    1.448   .     S
C920   O969    1.298   .     A
C920   O859    1.293   1_655 S
C921   C927    1.389   .     A
C921   C944    1.451   .     S
C922   C926    1.400   .     A
C922   C928    1.385   .     A
C923   C932    1.403   .     A
C924   H957    1.084   .     S
C924   C926    1.394   .     A
C924   C933    1.404   .     A
C925   H955    1.083   .     S
C925   C813    1.399   1_655 S
C925   C815    1.392   1_655 S
C926   H846    1.083   1_655 S
C927   C929    1.393   .     A
C927   H953    1.077   .     S
C928   H952    1.079   .     S
C928   C931    1.392   .     A
C929   C932    1.419   .     A
C929   C934    1.416   .     A
C930   C943    1.407   .     S
C930   O965    1.293   .     A
C930   O855    1.273   1_655 S
C931   C935    1.414   .     A
C931   C933    1.418   .     A
C932   C454    1.389   1_556 S
C934   C939    1.418   .     A
C934   C449    1.414   1_556 S
C935   C938    1.418   .     A
C936   H949    1.085   .     S
C937   H950    1.085   .     S
C937   C619    1.502   1_565 S
C937   O638    1.221   1_565 S
C938   H958    1.078   .     S
C938   C940    1.385   .     A
C939   H948    1.078   .     S
C939   C941    1.388   .     A
C940   H947    1.084   .     S
C941   H951    1.084   .     S
C941   C447    1.390   1_556 S
C942   C612    1.502   1_565 S
C942   C565    1.362   1_565 S
C943   C672    1.362   1_655 S
C944   O968    1.300   .     A
F945   N959    1.335   .     S
F946   N960    1.335   .     S
H956   C815    1.084   1_655 S
N959   N960    1.294   .     D
N959   Zn972   2.023   .     S
N960   Zn971   2.023   .     S
O961   Zn971   1.961   .     S
O961   C811    1.273   1_655 S
O963   Zn972   1.961   .     S
O964   Zn972   1.979   .     S
O965   Zn971   1.979   .     S
O966   Zn971   1.959   .     S
O966   C836    1.293   1_655 S
O967   Zn972   1.959   .     S
O968   Zn972   1.912   .     S
O969   Zn971   1.912   .     S
O970   C612    1.221   1_565 S
