data_str_m3_o1_o16_pcu_sym.153
_audit_creation_date              2020-01-03
_audit_creation_method            'Materials Studio'
_symmetry_space_group_name_H-M    'P1'
_symmetry_Int_Tables_number       1
_symmetry_cell_setting            triclinic
loop_
_symmetry_equiv_pos_as_xyz
  x,y,z
_cell_length_a                    29.7097
_cell_length_b                    31.9972
_cell_length_c                    26.1939
_cell_angle_alpha                 90.8700
_cell_angle_beta                  69.4440
_cell_angle_gamma                 88.1683
loop_
_atom_site_label
_atom_site_type_symbol
_atom_site_fract_x
_atom_site_fract_y
_atom_site_fract_z
_atom_site_U_iso_or_equiv
_atom_site_adp_type
_atom_site_occupancy
C1     C     0.16647   0.24641   0.24859   0.00000  Uiso   1.00
C2     C     0.14443   0.16515   0.49188   0.00000  Uiso   1.00
C3     C     0.15225   0.15071   0.43860   0.00000  Uiso   1.00
C4     C     0.18173   0.15800   0.01310   0.00000  Uiso   1.00
C5     C     0.22447   0.13375   0.48279   0.00000  Uiso   1.00
C6     C     0.22563   0.11176   0.43479   0.00000  Uiso   1.00
C7     C     0.18974   0.12110   0.41336   0.00000  Uiso   1.00
C8     C     0.17733   0.17445   0.06415   0.00000  Uiso   1.00
C9     C     0.25417   0.14404   0.05766   0.00000  Uiso   1.00
C10    C     0.12190   0.16570   0.41151   0.00000  Uiso   1.00
C11    C     0.20440   0.30994   0.20973   0.00000  Uiso   1.00
C12    C     0.13978   0.16566   0.35216   0.00000  Uiso   1.00
C13    C     0.20741   0.01942   0.21568   0.00000  Uiso   1.00
C14    C     0.16825   0.04219   0.25380   0.00000  Uiso   1.00
C15    C     0.12914   0.02215   0.29125   0.00000  Uiso   1.00
C16    C     0.12868   0.31238   0.28754   0.00000  Uiso   1.00
C17    C     0.16575   0.29037   0.24726   0.00000  Uiso   1.00
C18    C     0.32349   0.14858   0.20701   0.00000  Uiso   1.00
C19    C     0.03806   0.14911   0.20756   0.00000  Uiso   1.00
C20    C     0.01055   0.18460   0.29220   0.00000  Uiso   1.00
C21    C     0.29609   0.18536   0.29214   0.00000  Uiso   1.00
C22    C     0.16703   0.08667   0.25142   0.00000  Uiso   1.00
C23    C     0.19351   0.16689   0.14772   0.00000  Uiso   1.00
C24    C     0.26308   0.13151   0.00346   0.00000  Uiso   1.00
C25    C     0.21015   0.16328   0.08856   0.00000  Uiso   1.00
C26    C     0.07845   0.18721   0.44067   0.00000  Uiso   1.00
C27    C     0.06670   0.19610   0.49591   0.00000  Uiso   1.00
C28    C     0.09974   0.18646   0.02117   0.00000  Uiso   1.00
H29    H     0.28147   0.13908   0.07562   0.00000  Uiso   1.00
H30    H     0.10019   0.29559   0.31677   0.00000  Uiso   1.00
H31    H     0.06802   0.13518   0.17448   0.00000  Uiso   1.00
H32    H     0.01795   0.19866   0.32612   0.00000  Uiso   1.00
H33    H     0.14694   0.19419   0.08783   0.00000  Uiso   1.00
H34    H     0.05451   0.19849   0.42037   0.00000  Uiso   1.00
H35    H     0.08858   0.19553   0.06367   0.00000  Uiso   1.00
H36    H     0.03289   0.21239   0.01868   0.00000  Uiso   1.00
H37    H     0.18972   0.10384   0.37756   0.00000  Uiso   1.00
N38    N     0.04760   0.16668   0.25002   0.00000  Uiso   1.00
N39    N     0.28573   0.16665   0.25001   0.00000  Uiso   1.00
O40    O     0.12846   0.22775   0.25000   0.00000  Uiso   1.00
O41    O     0.20490   0.22774   0.25001   0.00000  Uiso   1.00
O42    O     0.10947   0.16666   0.32681   0.00000  Uiso   1.00
O43    O     0.18591   0.16665   0.32681   0.00000  Uiso   1.00
O44    O     0.12843   0.10559   0.25000   0.00000  Uiso   1.00
O45    O     0.20488   0.10558   0.25000   0.00000  Uiso   1.00
O46    O     0.14742   0.16668   0.17319   0.00000  Uiso   1.00
O47    O     0.22387   0.16667   0.17319   0.00000  Uiso   1.00
Zn48   Zn    0.11562   0.16667   0.25000   0.00000  Uiso   1.00
Zn49   Zn    0.21771   0.16666   0.25000   0.00000  Uiso   1.00
N50    N     0.25136   0.03890   0.18773   0.00000  Uiso   1.00
H51    H     0.26479   0.03322   0.14614   0.00000  Uiso   1.00
C52    C     0.28734   0.03375   0.21340   0.00000  Uiso   1.00
H53    H     0.32178   0.02089   0.18339   0.00000  Uiso   1.00
H54    H     0.27590   0.01244   0.24848   0.00000  Uiso   1.00
H55    H     0.29380   0.06432   0.22928   0.00000  Uiso   1.00
C56    C     0.09085   0.04526   0.33659   0.00000  Uiso   1.00
H57    H     0.09357   0.07823   0.34464   0.00000  Uiso   1.00
O58    O     0.05601   0.02742   0.36644   0.00000  Uiso   1.00
N59    N     0.31415   0.12956   0.16217   0.00000  Uiso   1.00
H60    H     0.28177   0.11549   0.17285   0.00000  Uiso   1.00
C61    C     0.01906   0.10652   0.11976   0.00000  Uiso   1.00
H62    H     0.03452   0.08097   0.13750   0.00000  Uiso   1.00
H63    H     0.04753   0.12787   0.09728   0.00000  Uiso   1.00
H64    H     0.00466   0.09218   0.09012   0.00000  Uiso   1.00
N65    N     0.25878   0.20433   0.33731   0.00000  Uiso   1.00
H66    H     0.25775   0.19206   0.37388   0.00000  Uiso   1.00
C67    C     0.25792   0.24954   0.33946   0.00000  Uiso   1.00
H68    H     0.29074   0.26081   0.34550   0.00000  Uiso   1.00
H69    H     0.22587   0.26138   0.37409   0.00000  Uiso   1.00
H70    H     0.25547   0.26235   0.30146   0.00000  Uiso   1.00
N71    N     0.25731   0.07619   0.41267   0.00000  Uiso   1.00
H72    H     0.27371   0.06183   0.43684   0.00000  Uiso   1.00
C73    C     0.28401   0.07439   0.35445   0.00000  Uiso   1.00
H74    H     0.30885   0.04638   0.34387   0.00000  Uiso   1.00
H75    H     0.30534   0.10270   0.34178   0.00000  Uiso   1.00
H76    H     0.25945   0.07151   0.33119   0.00000  Uiso   1.00
C77    C     0.31372   0.12009   0.46996   0.00000  Uiso   1.00
H78    H     0.00443   0.10685   0.48907   0.00000  Uiso   1.00
O79    O     0.32996   0.12789   0.42159   0.00000  Uiso   1.00
N80    N     0.23709   0.28713   0.16352   0.00000  Uiso   1.00
H81    H     0.24079   0.29991   0.12642   0.00000  Uiso   1.00
C82    C     0.28199   0.27111   0.16719   0.00000  Uiso   1.00
H83    H     0.28701   0.23741   0.15505   0.00000  Uiso   1.00
H84    H     0.28262   0.27452   0.20910   0.00000  Uiso   1.00
H85    H     0.31259   0.28790   0.13895   0.00000  Uiso   1.00
C86    C     0.49980   0.24641   0.24859   0.00000  Uiso   1.00
C87    C     0.47776   0.16515   0.49188   0.00000  Uiso   1.00
C88    C     0.48558   0.15071   0.43860   0.00000  Uiso   1.00
C89    C     0.51506   0.15800   0.01310   0.00000  Uiso   1.00
C90    C     0.55781   0.13375   0.48279   0.00000  Uiso   1.00
C91    C     0.55896   0.11176   0.43479   0.00000  Uiso   1.00
C92    C     0.52307   0.12110   0.41336   0.00000  Uiso   1.00
C93    C     0.51067   0.17445   0.06415   0.00000  Uiso   1.00
C94    C     0.58750   0.14404   0.05766   0.00000  Uiso   1.00
C95    C     0.45524   0.16570   0.41151   0.00000  Uiso   1.00
C96    C     0.53773   0.30994   0.20973   0.00000  Uiso   1.00
C97    C     0.47311   0.16566   0.35216   0.00000  Uiso   1.00
C98    C     0.54074   0.01942   0.21568   0.00000  Uiso   1.00
C99    C     0.50159   0.04219   0.25380   0.00000  Uiso   1.00
C100   C     0.46247   0.02215   0.29125   0.00000  Uiso   1.00
C101   C     0.46202   0.31238   0.28754   0.00000  Uiso   1.00
C102   C     0.49909   0.29037   0.24726   0.00000  Uiso   1.00
C103   C     0.65682   0.14858   0.20701   0.00000  Uiso   1.00
C104   C     0.37139   0.14911   0.20756   0.00000  Uiso   1.00
C105   C     0.34388   0.18460   0.29220   0.00000  Uiso   1.00
C106   C     0.62943   0.18536   0.29214   0.00000  Uiso   1.00
C107   C     0.50036   0.08667   0.25142   0.00000  Uiso   1.00
C108   C     0.52684   0.16689   0.14772   0.00000  Uiso   1.00
C109   C     0.59641   0.13151   0.00346   0.00000  Uiso   1.00
C110   C     0.54348   0.16328   0.08856   0.00000  Uiso   1.00
C111   C     0.41178   0.18721   0.44067   0.00000  Uiso   1.00
C112   C     0.40003   0.19610   0.49591   0.00000  Uiso   1.00
C113   C     0.43308   0.18646   0.02117   0.00000  Uiso   1.00
H114   H     0.61480   0.13908   0.07562   0.00000  Uiso   1.00
H115   H     0.43353   0.29559   0.31677   0.00000  Uiso   1.00
H116   H     0.40136   0.13518   0.17448   0.00000  Uiso   1.00
H117   H     0.35129   0.19866   0.32612   0.00000  Uiso   1.00
H118   H     0.48028   0.19419   0.08783   0.00000  Uiso   1.00
H119   H     0.38784   0.19849   0.42037   0.00000  Uiso   1.00
H120   H     0.42192   0.19553   0.06367   0.00000  Uiso   1.00
H121   H     0.36622   0.21239   0.01868   0.00000  Uiso   1.00
H122   H     0.52306   0.10384   0.37756   0.00000  Uiso   1.00
N123   N     0.38093   0.16668   0.25002   0.00000  Uiso   1.00
N124   N     0.61906   0.16665   0.25001   0.00000  Uiso   1.00
O125   O     0.46179   0.22775   0.25000   0.00000  Uiso   1.00
O126   O     0.53823   0.22774   0.25001   0.00000  Uiso   1.00
O127   O     0.44280   0.16666   0.32681   0.00000  Uiso   1.00
O128   O     0.51924   0.16665   0.32681   0.00000  Uiso   1.00
O129   O     0.46177   0.10559   0.25000   0.00000  Uiso   1.00
O130   O     0.53821   0.10558   0.25000   0.00000  Uiso   1.00
O131   O     0.48076   0.16668   0.17319   0.00000  Uiso   1.00
O132   O     0.55720   0.16667   0.17319   0.00000  Uiso   1.00
Zn133  Zn    0.44896   0.16667   0.25000   0.00000  Uiso   1.00
Zn134  Zn    0.55104   0.16666   0.25000   0.00000  Uiso   1.00
N135   N     0.58470   0.03890   0.18773   0.00000  Uiso   1.00
H136   H     0.59813   0.03322   0.14614   0.00000  Uiso   1.00
C137   C     0.62067   0.03375   0.21340   0.00000  Uiso   1.00
H138   H     0.65511   0.02089   0.18339   0.00000  Uiso   1.00
H139   H     0.60923   0.01244   0.24848   0.00000  Uiso   1.00
H140   H     0.62713   0.06432   0.22928   0.00000  Uiso   1.00
C141   C     0.42419   0.04526   0.33659   0.00000  Uiso   1.00
H142   H     0.42690   0.07823   0.34464   0.00000  Uiso   1.00
O143   O     0.38934   0.02742   0.36644   0.00000  Uiso   1.00
N144   N     0.64749   0.12956   0.16217   0.00000  Uiso   1.00
H145   H     0.61510   0.11549   0.17285   0.00000  Uiso   1.00
C146   C     0.35240   0.10652   0.11976   0.00000  Uiso   1.00
H147   H     0.36786   0.08097   0.13750   0.00000  Uiso   1.00
H148   H     0.38086   0.12787   0.09728   0.00000  Uiso   1.00
H149   H     0.33800   0.09218   0.09012   0.00000  Uiso   1.00
N150   N     0.59211   0.20433   0.33731   0.00000  Uiso   1.00
H151   H     0.59109   0.19206   0.37388   0.00000  Uiso   1.00
C152   C     0.59125   0.24954   0.33946   0.00000  Uiso   1.00
H153   H     0.62407   0.26081   0.34550   0.00000  Uiso   1.00
H154   H     0.55921   0.26138   0.37409   0.00000  Uiso   1.00
H155   H     0.58880   0.26235   0.30146   0.00000  Uiso   1.00
N156   N     0.59065   0.07619   0.41267   0.00000  Uiso   1.00
H157   H     0.60704   0.06183   0.43684   0.00000  Uiso   1.00
C158   C     0.61734   0.07439   0.35445   0.00000  Uiso   1.00
H159   H     0.64219   0.04638   0.34387   0.00000  Uiso   1.00
H160   H     0.63867   0.10270   0.34178   0.00000  Uiso   1.00
H161   H     0.59278   0.07151   0.33119   0.00000  Uiso   1.00
C162   C     0.64705   0.12009   0.46996   0.00000  Uiso   1.00
H163   H     0.33776   0.10685   0.48907   0.00000  Uiso   1.00
O164   O     0.66330   0.12789   0.42159   0.00000  Uiso   1.00
N165   N     0.57042   0.28713   0.16352   0.00000  Uiso   1.00
H166   H     0.57412   0.29991   0.12642   0.00000  Uiso   1.00
C167   C     0.61533   0.27111   0.16719   0.00000  Uiso   1.00
H168   H     0.62034   0.23741   0.15505   0.00000  Uiso   1.00
H169   H     0.61596   0.27452   0.20910   0.00000  Uiso   1.00
H170   H     0.64593   0.28790   0.13895   0.00000  Uiso   1.00
C171   C     0.83313   0.24641   0.24859   0.00000  Uiso   1.00
C172   C     0.81109   0.16515   0.49188   0.00000  Uiso   1.00
C173   C     0.81892   0.15071   0.43860   0.00000  Uiso   1.00
C174   C     0.84840   0.15800   0.01310   0.00000  Uiso   1.00
C175   C     0.89114   0.13375   0.48279   0.00000  Uiso   1.00
C176   C     0.89229   0.11176   0.43479   0.00000  Uiso   1.00
C177   C     0.85641   0.12110   0.41336   0.00000  Uiso   1.00
C178   C     0.84400   0.17445   0.06415   0.00000  Uiso   1.00
C179   C     0.92084   0.14404   0.05766   0.00000  Uiso   1.00
C180   C     0.78857   0.16570   0.41151   0.00000  Uiso   1.00
C181   C     0.87107   0.30994   0.20973   0.00000  Uiso   1.00
C182   C     0.80645   0.16566   0.35216   0.00000  Uiso   1.00
C183   C     0.87408   0.01942   0.21568   0.00000  Uiso   1.00
C184   C     0.83492   0.04219   0.25380   0.00000  Uiso   1.00
C185   C     0.79581   0.02215   0.29125   0.00000  Uiso   1.00
C186   C     0.79535   0.31238   0.28754   0.00000  Uiso   1.00
C187   C     0.83242   0.29037   0.24726   0.00000  Uiso   1.00
C188   C     0.99015   0.14858   0.20701   0.00000  Uiso   1.00
C189   C     0.70472   0.14911   0.20756   0.00000  Uiso   1.00
C190   C     0.67722   0.18460   0.29220   0.00000  Uiso   1.00
C191   C     0.96276   0.18536   0.29214   0.00000  Uiso   1.00
C192   C     0.83369   0.08667   0.25142   0.00000  Uiso   1.00
C193   C     0.86018   0.16689   0.14772   0.00000  Uiso   1.00
C194   C     0.92975   0.13151   0.00346   0.00000  Uiso   1.00
C195   C     0.87681   0.16328   0.08856   0.00000  Uiso   1.00
C196   C     0.74512   0.18721   0.44067   0.00000  Uiso   1.00
C197   C     0.73336   0.19610   0.49591   0.00000  Uiso   1.00
C198   C     0.76641   0.18646   0.02117   0.00000  Uiso   1.00
H199   H     0.94813   0.13908   0.07562   0.00000  Uiso   1.00
H200   H     0.76686   0.29559   0.31677   0.00000  Uiso   1.00
H201   H     0.73469   0.13518   0.17448   0.00000  Uiso   1.00
H202   H     0.68462   0.19866   0.32612   0.00000  Uiso   1.00
H203   H     0.81361   0.19419   0.08783   0.00000  Uiso   1.00
H204   H     0.72118   0.19849   0.42037   0.00000  Uiso   1.00
H205   H     0.75525   0.19553   0.06367   0.00000  Uiso   1.00
H206   H     0.69955   0.21239   0.01868   0.00000  Uiso   1.00
H207   H     0.85639   0.10384   0.37756   0.00000  Uiso   1.00
N208   N     0.71426   0.16668   0.25002   0.00000  Uiso   1.00
N209   N     0.95239   0.16665   0.25001   0.00000  Uiso   1.00
O210   O     0.79512   0.22775   0.25000   0.00000  Uiso   1.00
O211   O     0.87157   0.22774   0.25001   0.00000  Uiso   1.00
O212   O     0.77613   0.16666   0.32681   0.00000  Uiso   1.00
O213   O     0.85258   0.16665   0.32681   0.00000  Uiso   1.00
O214   O     0.79510   0.10559   0.25000   0.00000  Uiso   1.00
O215   O     0.87154   0.10558   0.25000   0.00000  Uiso   1.00
O216   O     0.81409   0.16668   0.17319   0.00000  Uiso   1.00
O217   O     0.89053   0.16667   0.17319   0.00000  Uiso   1.00
Zn218  Zn    0.78229   0.16667   0.25000   0.00000  Uiso   1.00
Zn219  Zn    0.88438   0.16666   0.25000   0.00000  Uiso   1.00
N220   N     0.91803   0.03890   0.18773   0.00000  Uiso   1.00
H221   H     0.93146   0.03322   0.14614   0.00000  Uiso   1.00
C222   C     0.95400   0.03375   0.21340   0.00000  Uiso   1.00
H223   H     0.98845   0.02089   0.18339   0.00000  Uiso   1.00
H224   H     0.94257   0.01244   0.24848   0.00000  Uiso   1.00
H225   H     0.96046   0.06432   0.22928   0.00000  Uiso   1.00
C226   C     0.75752   0.04526   0.33659   0.00000  Uiso   1.00
H227   H     0.76024   0.07823   0.34464   0.00000  Uiso   1.00
O228   O     0.72267   0.02742   0.36644   0.00000  Uiso   1.00
N229   N     0.98082   0.12956   0.16217   0.00000  Uiso   1.00
H230   H     0.94844   0.11549   0.17285   0.00000  Uiso   1.00
C231   C     0.68573   0.10652   0.11976   0.00000  Uiso   1.00
H232   H     0.70119   0.08097   0.13750   0.00000  Uiso   1.00
H233   H     0.71420   0.12787   0.09728   0.00000  Uiso   1.00
H234   H     0.67133   0.09218   0.09012   0.00000  Uiso   1.00
N235   N     0.92545   0.20433   0.33731   0.00000  Uiso   1.00
H236   H     0.92442   0.19206   0.37388   0.00000  Uiso   1.00
C237   C     0.92459   0.24954   0.33946   0.00000  Uiso   1.00
H238   H     0.95741   0.26081   0.34550   0.00000  Uiso   1.00
H239   H     0.89254   0.26138   0.37409   0.00000  Uiso   1.00
H240   H     0.92213   0.26235   0.30146   0.00000  Uiso   1.00
N241   N     0.92398   0.07619   0.41267   0.00000  Uiso   1.00
H242   H     0.94038   0.06183   0.43684   0.00000  Uiso   1.00
C243   C     0.95068   0.07439   0.35445   0.00000  Uiso   1.00
H244   H     0.97552   0.04638   0.34387   0.00000  Uiso   1.00
H245   H     0.97200   0.10270   0.34178   0.00000  Uiso   1.00
H246   H     0.92611   0.07151   0.33119   0.00000  Uiso   1.00
C247   C     0.98038   0.12009   0.46996   0.00000  Uiso   1.00
H248   H     0.67110   0.10685   0.48907   0.00000  Uiso   1.00
O249   O     0.99663   0.12789   0.42159   0.00000  Uiso   1.00
N250   N     0.90375   0.28713   0.16352   0.00000  Uiso   1.00
H251   H     0.90745   0.29991   0.12642   0.00000  Uiso   1.00
C252   C     0.94866   0.27111   0.16719   0.00000  Uiso   1.00
H253   H     0.95367   0.23741   0.15505   0.00000  Uiso   1.00
H254   H     0.94929   0.27452   0.20910   0.00000  Uiso   1.00
H255   H     0.97926   0.28790   0.13895   0.00000  Uiso   1.00
C256   C     0.16647   0.57975   0.24859   0.00000  Uiso   1.00
C257   C     0.14443   0.49848   0.49188   0.00000  Uiso   1.00
C258   C     0.15225   0.48404   0.43860   0.00000  Uiso   1.00
C259   C     0.18173   0.49134   0.01310   0.00000  Uiso   1.00
C260   C     0.22447   0.46708   0.48279   0.00000  Uiso   1.00
C261   C     0.22563   0.44509   0.43479   0.00000  Uiso   1.00
C262   C     0.18974   0.45443   0.41336   0.00000  Uiso   1.00
C263   C     0.17733   0.50779   0.06415   0.00000  Uiso   1.00
C264   C     0.25417   0.47737   0.05766   0.00000  Uiso   1.00
C265   C     0.12190   0.49903   0.41151   0.00000  Uiso   1.00
C266   C     0.20440   0.64327   0.20973   0.00000  Uiso   1.00
C267   C     0.13978   0.49899   0.35216   0.00000  Uiso   1.00
C268   C     0.20741   0.35276   0.21568   0.00000  Uiso   1.00
C269   C     0.16825   0.37552   0.25380   0.00000  Uiso   1.00
C270   C     0.12914   0.35548   0.29125   0.00000  Uiso   1.00
C271   C     0.12868   0.64571   0.28754   0.00000  Uiso   1.00
C272   C     0.16575   0.62371   0.24726   0.00000  Uiso   1.00
C273   C     0.32349   0.48191   0.20701   0.00000  Uiso   1.00
C274   C     0.03806   0.48244   0.20756   0.00000  Uiso   1.00
C275   C     0.01055   0.51794   0.29220   0.00000  Uiso   1.00
C276   C     0.29609   0.51869   0.29214   0.00000  Uiso   1.00
C277   C     0.16703   0.42000   0.25142   0.00000  Uiso   1.00
C278   C     0.19351   0.50022   0.14772   0.00000  Uiso   1.00
C279   C     0.26308   0.46485   0.00346   0.00000  Uiso   1.00
C280   C     0.21015   0.49662   0.08856   0.00000  Uiso   1.00
C281   C     0.07845   0.52055   0.44067   0.00000  Uiso   1.00
C282   C     0.06670   0.52944   0.49591   0.00000  Uiso   1.00
C283   C     0.09974   0.51979   0.02117   0.00000  Uiso   1.00
H284   H     0.28147   0.47242   0.07562   0.00000  Uiso   1.00
H285   H     0.10019   0.62892   0.31677   0.00000  Uiso   1.00
H286   H     0.06802   0.46851   0.17448   0.00000  Uiso   1.00
H287   H     0.01795   0.53200   0.32612   0.00000  Uiso   1.00
H288   H     0.14694   0.52753   0.08783   0.00000  Uiso   1.00
H289   H     0.05451   0.53183   0.42037   0.00000  Uiso   1.00
H290   H     0.08858   0.52886   0.06367   0.00000  Uiso   1.00
H291   H     0.03289   0.54572   0.01868   0.00000  Uiso   1.00
H292   H     0.18972   0.43717   0.37756   0.00000  Uiso   1.00
N293   N     0.04760   0.50001   0.25002   0.00000  Uiso   1.00
N294   N     0.28573   0.49998   0.25001   0.00000  Uiso   1.00
O295   O     0.12846   0.56108   0.25000   0.00000  Uiso   1.00
O296   O     0.20490   0.56107   0.25001   0.00000  Uiso   1.00
O297   O     0.10947   0.50000   0.32681   0.00000  Uiso   1.00
O298   O     0.18591   0.49999   0.32681   0.00000  Uiso   1.00
O299   O     0.12843   0.43893   0.25000   0.00000  Uiso   1.00
O300   O     0.20488   0.43892   0.25000   0.00000  Uiso   1.00
O301   O     0.14742   0.50001   0.17319   0.00000  Uiso   1.00
O302   O     0.22387   0.50000   0.17319   0.00000  Uiso   1.00
Zn303  Zn    0.11562   0.50001   0.25000   0.00000  Uiso   1.00
Zn304  Zn    0.21771   0.49999   0.25000   0.00000  Uiso   1.00
N305   N     0.25136   0.37223   0.18773   0.00000  Uiso   1.00
H306   H     0.26479   0.36656   0.14614   0.00000  Uiso   1.00
C307   C     0.28734   0.36708   0.21340   0.00000  Uiso   1.00
H308   H     0.32178   0.35423   0.18339   0.00000  Uiso   1.00
H309   H     0.27590   0.34577   0.24848   0.00000  Uiso   1.00
H310   H     0.29380   0.39765   0.22928   0.00000  Uiso   1.00
C311   C     0.09085   0.37859   0.33659   0.00000  Uiso   1.00
H312   H     0.09357   0.41156   0.34464   0.00000  Uiso   1.00
O313   O     0.05601   0.36076   0.36644   0.00000  Uiso   1.00
N314   N     0.31415   0.46289   0.16217   0.00000  Uiso   1.00
H315   H     0.28177   0.44882   0.17285   0.00000  Uiso   1.00
C316   C     0.01906   0.43985   0.11976   0.00000  Uiso   1.00
H317   H     0.03452   0.41430   0.13750   0.00000  Uiso   1.00
H318   H     0.04753   0.46120   0.09728   0.00000  Uiso   1.00
H319   H     0.00466   0.42551   0.09012   0.00000  Uiso   1.00
N320   N     0.25878   0.53766   0.33731   0.00000  Uiso   1.00
H321   H     0.25775   0.52539   0.37388   0.00000  Uiso   1.00
C322   C     0.25792   0.58287   0.33946   0.00000  Uiso   1.00
H323   H     0.29074   0.59414   0.34550   0.00000  Uiso   1.00
H324   H     0.22587   0.59472   0.37409   0.00000  Uiso   1.00
H325   H     0.25547   0.59568   0.30146   0.00000  Uiso   1.00
N326   N     0.25731   0.40952   0.41267   0.00000  Uiso   1.00
H327   H     0.27371   0.39517   0.43684   0.00000  Uiso   1.00
C328   C     0.28401   0.40773   0.35445   0.00000  Uiso   1.00
H329   H     0.30885   0.37972   0.34387   0.00000  Uiso   1.00
H330   H     0.30534   0.43603   0.34178   0.00000  Uiso   1.00
H331   H     0.25945   0.40484   0.33119   0.00000  Uiso   1.00
C332   C     0.31372   0.45342   0.46996   0.00000  Uiso   1.00
H333   H     0.00443   0.44018   0.48907   0.00000  Uiso   1.00
O334   O     0.32996   0.46122   0.42159   0.00000  Uiso   1.00
N335   N     0.23709   0.62046   0.16352   0.00000  Uiso   1.00
H336   H     0.24079   0.63324   0.12642   0.00000  Uiso   1.00
C337   C     0.28199   0.60444   0.16719   0.00000  Uiso   1.00
H338   H     0.28701   0.57075   0.15505   0.00000  Uiso   1.00
H339   H     0.28262   0.60786   0.20910   0.00000  Uiso   1.00
H340   H     0.31259   0.62124   0.13895   0.00000  Uiso   1.00
C341   C     0.49980   0.57975   0.24859   0.00000  Uiso   1.00
C342   C     0.47776   0.49848   0.49188   0.00000  Uiso   1.00
C343   C     0.48558   0.48404   0.43860   0.00000  Uiso   1.00
C344   C     0.51506   0.49134   0.01310   0.00000  Uiso   1.00
C345   C     0.55781   0.46708   0.48279   0.00000  Uiso   1.00
C346   C     0.55896   0.44509   0.43479   0.00000  Uiso   1.00
C347   C     0.52307   0.45443   0.41336   0.00000  Uiso   1.00
C348   C     0.51067   0.50779   0.06415   0.00000  Uiso   1.00
C349   C     0.58750   0.47737   0.05766   0.00000  Uiso   1.00
C350   C     0.45524   0.49903   0.41151   0.00000  Uiso   1.00
C351   C     0.53773   0.64327   0.20973   0.00000  Uiso   1.00
C352   C     0.47311   0.49899   0.35216   0.00000  Uiso   1.00
C353   C     0.54074   0.35276   0.21568   0.00000  Uiso   1.00
C354   C     0.50159   0.37552   0.25380   0.00000  Uiso   1.00
C355   C     0.46247   0.35548   0.29125   0.00000  Uiso   1.00
C356   C     0.46202   0.64571   0.28754   0.00000  Uiso   1.00
C357   C     0.49909   0.62371   0.24726   0.00000  Uiso   1.00
C358   C     0.65682   0.48191   0.20701   0.00000  Uiso   1.00
C359   C     0.37139   0.48244   0.20756   0.00000  Uiso   1.00
C360   C     0.34388   0.51794   0.29220   0.00000  Uiso   1.00
C361   C     0.62943   0.51869   0.29214   0.00000  Uiso   1.00
C362   C     0.50036   0.42000   0.25142   0.00000  Uiso   1.00
C363   C     0.52684   0.50022   0.14772   0.00000  Uiso   1.00
C364   C     0.59641   0.46485   0.00346   0.00000  Uiso   1.00
C365   C     0.54348   0.49662   0.08856   0.00000  Uiso   1.00
C366   C     0.41178   0.52055   0.44067   0.00000  Uiso   1.00
C367   C     0.40003   0.52944   0.49591   0.00000  Uiso   1.00
C368   C     0.43308   0.51979   0.02117   0.00000  Uiso   1.00
H369   H     0.61480   0.47242   0.07562   0.00000  Uiso   1.00
H370   H     0.43353   0.62892   0.31677   0.00000  Uiso   1.00
H371   H     0.40136   0.46851   0.17448   0.00000  Uiso   1.00
H372   H     0.35129   0.53200   0.32612   0.00000  Uiso   1.00
H373   H     0.48028   0.52753   0.08783   0.00000  Uiso   1.00
H374   H     0.38784   0.53183   0.42037   0.00000  Uiso   1.00
H375   H     0.42192   0.52886   0.06367   0.00000  Uiso   1.00
H376   H     0.36622   0.54572   0.01868   0.00000  Uiso   1.00
H377   H     0.52306   0.43717   0.37756   0.00000  Uiso   1.00
N378   N     0.38093   0.50001   0.25002   0.00000  Uiso   1.00
N379   N     0.61906   0.49998   0.25001   0.00000  Uiso   1.00
O380   O     0.46179   0.56108   0.25000   0.00000  Uiso   1.00
O381   O     0.53823   0.56107   0.25001   0.00000  Uiso   1.00
O382   O     0.44280   0.50000   0.32681   0.00000  Uiso   1.00
O383   O     0.51924   0.49999   0.32681   0.00000  Uiso   1.00
O384   O     0.46177   0.43893   0.25000   0.00000  Uiso   1.00
O385   O     0.53821   0.43892   0.25000   0.00000  Uiso   1.00
O386   O     0.48076   0.50001   0.17319   0.00000  Uiso   1.00
O387   O     0.55720   0.50000   0.17319   0.00000  Uiso   1.00
Zn388  Zn    0.44896   0.50001   0.25000   0.00000  Uiso   1.00
Zn389  Zn    0.55104   0.49999   0.25000   0.00000  Uiso   1.00
N390   N     0.58470   0.37223   0.18773   0.00000  Uiso   1.00
H391   H     0.59813   0.36656   0.14614   0.00000  Uiso   1.00
C392   C     0.62067   0.36708   0.21340   0.00000  Uiso   1.00
H393   H     0.65511   0.35423   0.18339   0.00000  Uiso   1.00
H394   H     0.60923   0.34577   0.24848   0.00000  Uiso   1.00
H395   H     0.62713   0.39765   0.22928   0.00000  Uiso   1.00
C396   C     0.42419   0.37859   0.33659   0.00000  Uiso   1.00
H397   H     0.42690   0.41156   0.34464   0.00000  Uiso   1.00
O398   O     0.38934   0.36076   0.36644   0.00000  Uiso   1.00
N399   N     0.64749   0.46289   0.16217   0.00000  Uiso   1.00
H400   H     0.61510   0.44882   0.17285   0.00000  Uiso   1.00
C401   C     0.35240   0.43985   0.11976   0.00000  Uiso   1.00
H402   H     0.36786   0.41430   0.13750   0.00000  Uiso   1.00
H403   H     0.38086   0.46120   0.09728   0.00000  Uiso   1.00
H404   H     0.33800   0.42551   0.09012   0.00000  Uiso   1.00
N405   N     0.59211   0.53766   0.33731   0.00000  Uiso   1.00
H406   H     0.59109   0.52539   0.37388   0.00000  Uiso   1.00
C407   C     0.59125   0.58287   0.33946   0.00000  Uiso   1.00
H408   H     0.62407   0.59414   0.34550   0.00000  Uiso   1.00
H409   H     0.55921   0.59472   0.37409   0.00000  Uiso   1.00
H410   H     0.58880   0.59568   0.30146   0.00000  Uiso   1.00
N411   N     0.59065   0.40952   0.41267   0.00000  Uiso   1.00
H412   H     0.60704   0.39517   0.43684   0.00000  Uiso   1.00
C413   C     0.61734   0.40773   0.35445   0.00000  Uiso   1.00
H414   H     0.64219   0.37972   0.34387   0.00000  Uiso   1.00
H415   H     0.63867   0.43603   0.34178   0.00000  Uiso   1.00
H416   H     0.59278   0.40484   0.33119   0.00000  Uiso   1.00
C417   C     0.64705   0.45342   0.46996   0.00000  Uiso   1.00
H418   H     0.33776   0.44018   0.48907   0.00000  Uiso   1.00
O419   O     0.66330   0.46122   0.42159   0.00000  Uiso   1.00
N420   N     0.57042   0.62046   0.16352   0.00000  Uiso   1.00
H421   H     0.57412   0.63324   0.12642   0.00000  Uiso   1.00
C422   C     0.61533   0.60444   0.16719   0.00000  Uiso   1.00
H423   H     0.62034   0.57075   0.15505   0.00000  Uiso   1.00
H424   H     0.61596   0.60786   0.20910   0.00000  Uiso   1.00
H425   H     0.64593   0.62124   0.13895   0.00000  Uiso   1.00
C426   C     0.83313   0.57975   0.24859   0.00000  Uiso   1.00
C427   C     0.81109   0.49848   0.49188   0.00000  Uiso   1.00
C428   C     0.81892   0.48404   0.43860   0.00000  Uiso   1.00
C429   C     0.84840   0.49134   0.01310   0.00000  Uiso   1.00
C430   C     0.89114   0.46708   0.48279   0.00000  Uiso   1.00
C431   C     0.89229   0.44509   0.43479   0.00000  Uiso   1.00
C432   C     0.85641   0.45443   0.41336   0.00000  Uiso   1.00
C433   C     0.84400   0.50779   0.06415   0.00000  Uiso   1.00
C434   C     0.92084   0.47737   0.05766   0.00000  Uiso   1.00
C435   C     0.78857   0.49903   0.41151   0.00000  Uiso   1.00
C436   C     0.87107   0.64327   0.20973   0.00000  Uiso   1.00
C437   C     0.80645   0.49899   0.35216   0.00000  Uiso   1.00
C438   C     0.87408   0.35276   0.21568   0.00000  Uiso   1.00
C439   C     0.83492   0.37552   0.25380   0.00000  Uiso   1.00
C440   C     0.79581   0.35548   0.29125   0.00000  Uiso   1.00
C441   C     0.79535   0.64571   0.28754   0.00000  Uiso   1.00
C442   C     0.83242   0.62371   0.24726   0.00000  Uiso   1.00
C443   C     0.99015   0.48191   0.20701   0.00000  Uiso   1.00
C444   C     0.70472   0.48244   0.20756   0.00000  Uiso   1.00
C445   C     0.67722   0.51794   0.29220   0.00000  Uiso   1.00
C446   C     0.96276   0.51869   0.29214   0.00000  Uiso   1.00
C447   C     0.83369   0.42000   0.25142   0.00000  Uiso   1.00
C448   C     0.86018   0.50022   0.14772   0.00000  Uiso   1.00
C449   C     0.92975   0.46485   0.00346   0.00000  Uiso   1.00
C450   C     0.87681   0.49662   0.08856   0.00000  Uiso   1.00
C451   C     0.74512   0.52055   0.44067   0.00000  Uiso   1.00
C452   C     0.73336   0.52944   0.49591   0.00000  Uiso   1.00
C453   C     0.76641   0.51979   0.02117   0.00000  Uiso   1.00
H454   H     0.94813   0.47242   0.07562   0.00000  Uiso   1.00
H455   H     0.76686   0.62892   0.31677   0.00000  Uiso   1.00
H456   H     0.73469   0.46851   0.17448   0.00000  Uiso   1.00
H457   H     0.68462   0.53200   0.32612   0.00000  Uiso   1.00
H458   H     0.81361   0.52753   0.08783   0.00000  Uiso   1.00
H459   H     0.72118   0.53183   0.42037   0.00000  Uiso   1.00
H460   H     0.75525   0.52886   0.06367   0.00000  Uiso   1.00
H461   H     0.69955   0.54572   0.01868   0.00000  Uiso   1.00
H462   H     0.85639   0.43717   0.37756   0.00000  Uiso   1.00
N463   N     0.71426   0.50001   0.25002   0.00000  Uiso   1.00
N464   N     0.95239   0.49998   0.25001   0.00000  Uiso   1.00
O465   O     0.79512   0.56108   0.25000   0.00000  Uiso   1.00
O466   O     0.87157   0.56107   0.25001   0.00000  Uiso   1.00
O467   O     0.77613   0.50000   0.32681   0.00000  Uiso   1.00
O468   O     0.85258   0.49999   0.32681   0.00000  Uiso   1.00
O469   O     0.79510   0.43893   0.25000   0.00000  Uiso   1.00
O470   O     0.87154   0.43892   0.25000   0.00000  Uiso   1.00
O471   O     0.81409   0.50001   0.17319   0.00000  Uiso   1.00
O472   O     0.89053   0.50000   0.17319   0.00000  Uiso   1.00
Zn473  Zn    0.78229   0.50001   0.25000   0.00000  Uiso   1.00
Zn474  Zn    0.88438   0.49999   0.25000   0.00000  Uiso   1.00
N475   N     0.91803   0.37223   0.18773   0.00000  Uiso   1.00
H476   H     0.93146   0.36656   0.14614   0.00000  Uiso   1.00
C477   C     0.95400   0.36708   0.21340   0.00000  Uiso   1.00
H478   H     0.98845   0.35423   0.18339   0.00000  Uiso   1.00
H479   H     0.94257   0.34577   0.24848   0.00000  Uiso   1.00
H480   H     0.96046   0.39765   0.22928   0.00000  Uiso   1.00
C481   C     0.75752   0.37859   0.33659   0.00000  Uiso   1.00
H482   H     0.76024   0.41156   0.34464   0.00000  Uiso   1.00
O483   O     0.72267   0.36076   0.36644   0.00000  Uiso   1.00
N484   N     0.98082   0.46289   0.16217   0.00000  Uiso   1.00
H485   H     0.94844   0.44882   0.17285   0.00000  Uiso   1.00
C486   C     0.68573   0.43985   0.11976   0.00000  Uiso   1.00
H487   H     0.70119   0.41430   0.13750   0.00000  Uiso   1.00
H488   H     0.71420   0.46120   0.09728   0.00000  Uiso   1.00
H489   H     0.67133   0.42551   0.09012   0.00000  Uiso   1.00
N490   N     0.92545   0.53766   0.33731   0.00000  Uiso   1.00
H491   H     0.92442   0.52539   0.37388   0.00000  Uiso   1.00
C492   C     0.92459   0.58287   0.33946   0.00000  Uiso   1.00
H493   H     0.95741   0.59414   0.34550   0.00000  Uiso   1.00
H494   H     0.89254   0.59472   0.37409   0.00000  Uiso   1.00
H495   H     0.92213   0.59568   0.30146   0.00000  Uiso   1.00
N496   N     0.92398   0.40952   0.41267   0.00000  Uiso   1.00
H497   H     0.94038   0.39517   0.43684   0.00000  Uiso   1.00
C498   C     0.95068   0.40773   0.35445   0.00000  Uiso   1.00
H499   H     0.97552   0.37972   0.34387   0.00000  Uiso   1.00
H500   H     0.97200   0.43603   0.34178   0.00000  Uiso   1.00
H501   H     0.92611   0.40484   0.33119   0.00000  Uiso   1.00
C502   C     0.98038   0.45342   0.46996   0.00000  Uiso   1.00
H503   H     0.67110   0.44018   0.48907   0.00000  Uiso   1.00
O504   O     0.99663   0.46122   0.42159   0.00000  Uiso   1.00
N505   N     0.90375   0.62046   0.16352   0.00000  Uiso   1.00
H506   H     0.90745   0.63324   0.12642   0.00000  Uiso   1.00
C507   C     0.94866   0.60444   0.16719   0.00000  Uiso   1.00
H508   H     0.95367   0.57075   0.15505   0.00000  Uiso   1.00
H509   H     0.94929   0.60786   0.20910   0.00000  Uiso   1.00
H510   H     0.97926   0.62124   0.13895   0.00000  Uiso   1.00
C511   C     0.16647   0.91308   0.24859   0.00000  Uiso   1.00
C512   C     0.14443   0.83181   0.49188   0.00000  Uiso   1.00
C513   C     0.15225   0.81737   0.43860   0.00000  Uiso   1.00
C514   C     0.18173   0.82467   0.01310   0.00000  Uiso   1.00
C515   C     0.22447   0.80042   0.48279   0.00000  Uiso   1.00
C516   C     0.22563   0.77843   0.43479   0.00000  Uiso   1.00
C517   C     0.18974   0.78777   0.41336   0.00000  Uiso   1.00
C518   C     0.17733   0.84112   0.06415   0.00000  Uiso   1.00
C519   C     0.25417   0.81070   0.05766   0.00000  Uiso   1.00
C520   C     0.12190   0.83236   0.41151   0.00000  Uiso   1.00
C521   C     0.20440   0.97660   0.20973   0.00000  Uiso   1.00
C522   C     0.13978   0.83232   0.35216   0.00000  Uiso   1.00
C523   C     0.20741   0.68609   0.21568   0.00000  Uiso   1.00
C524   C     0.16825   0.70885   0.25380   0.00000  Uiso   1.00
C525   C     0.12914   0.68882   0.29125   0.00000  Uiso   1.00
C526   C     0.12868   0.97905   0.28754   0.00000  Uiso   1.00
C527   C     0.16575   0.95704   0.24726   0.00000  Uiso   1.00
C528   C     0.32349   0.81525   0.20701   0.00000  Uiso   1.00
C529   C     0.03806   0.81578   0.20756   0.00000  Uiso   1.00
C530   C     0.01055   0.85127   0.29220   0.00000  Uiso   1.00
C531   C     0.29609   0.85202   0.29214   0.00000  Uiso   1.00
C532   C     0.16703   0.75334   0.25142   0.00000  Uiso   1.00
C533   C     0.19351   0.83356   0.14772   0.00000  Uiso   1.00
C534   C     0.26308   0.79818   0.00346   0.00000  Uiso   1.00
C535   C     0.21015   0.82995   0.08856   0.00000  Uiso   1.00
C536   C     0.07845   0.85388   0.44067   0.00000  Uiso   1.00
C537   C     0.06670   0.86277   0.49591   0.00000  Uiso   1.00
C538   C     0.09974   0.85313   0.02117   0.00000  Uiso   1.00
H539   H     0.28147   0.80575   0.07562   0.00000  Uiso   1.00
H540   H     0.10019   0.96226   0.31677   0.00000  Uiso   1.00
H541   H     0.06802   0.80185   0.17448   0.00000  Uiso   1.00
H542   H     0.01795   0.86533   0.32612   0.00000  Uiso   1.00
H543   H     0.14694   0.86086   0.08783   0.00000  Uiso   1.00
H544   H     0.05451   0.86516   0.42037   0.00000  Uiso   1.00
H545   H     0.08858   0.86219   0.06367   0.00000  Uiso   1.00
H546   H     0.03289   0.87906   0.01868   0.00000  Uiso   1.00
H547   H     0.18972   0.77050   0.37756   0.00000  Uiso   1.00
N548   N     0.04760   0.83334   0.25002   0.00000  Uiso   1.00
N549   N     0.28573   0.83331   0.25001   0.00000  Uiso   1.00
O550   O     0.12846   0.89442   0.25000   0.00000  Uiso   1.00
O551   O     0.20490   0.89441   0.25001   0.00000  Uiso   1.00
O552   O     0.10947   0.83333   0.32681   0.00000  Uiso   1.00
O553   O     0.18591   0.83332   0.32681   0.00000  Uiso   1.00
O554   O     0.12843   0.77226   0.25000   0.00000  Uiso   1.00
O555   O     0.20488   0.77225   0.25000   0.00000  Uiso   1.00
O556   O     0.14742   0.83335   0.17319   0.00000  Uiso   1.00
O557   O     0.22387   0.83334   0.17319   0.00000  Uiso   1.00
Zn558  Zn    0.11562   0.83334   0.25000   0.00000  Uiso   1.00
Zn559  Zn    0.21771   0.83333   0.25000   0.00000  Uiso   1.00
N560   N     0.25136   0.70557   0.18773   0.00000  Uiso   1.00
H561   H     0.26479   0.69989   0.14614   0.00000  Uiso   1.00
C562   C     0.28734   0.70041   0.21340   0.00000  Uiso   1.00
H563   H     0.32178   0.68756   0.18339   0.00000  Uiso   1.00
H564   H     0.27590   0.67911   0.24848   0.00000  Uiso   1.00
H565   H     0.29380   0.73099   0.22928   0.00000  Uiso   1.00
C566   C     0.09085   0.71192   0.33659   0.00000  Uiso   1.00
H567   H     0.09357   0.74490   0.34464   0.00000  Uiso   1.00
O568   O     0.05601   0.69409   0.36644   0.00000  Uiso   1.00
N569   N     0.31415   0.79623   0.16217   0.00000  Uiso   1.00
H570   H     0.28177   0.78216   0.17285   0.00000  Uiso   1.00
C571   C     0.01906   0.77318   0.11976   0.00000  Uiso   1.00
H572   H     0.03452   0.74763   0.13750   0.00000  Uiso   1.00
H573   H     0.04753   0.79454   0.09728   0.00000  Uiso   1.00
H574   H     0.00466   0.75884   0.09012   0.00000  Uiso   1.00
N575   N     0.25878   0.87099   0.33731   0.00000  Uiso   1.00
H576   H     0.25775   0.85873   0.37388   0.00000  Uiso   1.00
C577   C     0.25792   0.91621   0.33946   0.00000  Uiso   1.00
H578   H     0.29074   0.92747   0.34550   0.00000  Uiso   1.00
H579   H     0.22587   0.92805   0.37409   0.00000  Uiso   1.00
H580   H     0.25547   0.92902   0.30146   0.00000  Uiso   1.00
N581   N     0.25731   0.74285   0.41267   0.00000  Uiso   1.00
H582   H     0.27371   0.72850   0.43684   0.00000  Uiso   1.00
C583   C     0.28401   0.74106   0.35445   0.00000  Uiso   1.00
H584   H     0.30885   0.71305   0.34387   0.00000  Uiso   1.00
H585   H     0.30534   0.76937   0.34178   0.00000  Uiso   1.00
H586   H     0.25945   0.73818   0.33119   0.00000  Uiso   1.00
C587   C     0.31372   0.78676   0.46996   0.00000  Uiso   1.00
H588   H     0.00443   0.77351   0.48907   0.00000  Uiso   1.00
O589   O     0.32996   0.79455   0.42159   0.00000  Uiso   1.00
N590   N     0.23709   0.95380   0.16352   0.00000  Uiso   1.00
H591   H     0.24079   0.96657   0.12642   0.00000  Uiso   1.00
C592   C     0.28199   0.93777   0.16719   0.00000  Uiso   1.00
H593   H     0.28701   0.90408   0.15505   0.00000  Uiso   1.00
H594   H     0.28262   0.94119   0.20910   0.00000  Uiso   1.00
H595   H     0.31259   0.95457   0.13895   0.00000  Uiso   1.00
C596   C     0.49980   0.91308   0.24859   0.00000  Uiso   1.00
C597   C     0.47776   0.83181   0.49188   0.00000  Uiso   1.00
C598   C     0.48558   0.81737   0.43860   0.00000  Uiso   1.00
C599   C     0.51506   0.82467   0.01310   0.00000  Uiso   1.00
C600   C     0.55781   0.80042   0.48279   0.00000  Uiso   1.00
C601   C     0.55896   0.77843   0.43479   0.00000  Uiso   1.00
C602   C     0.52307   0.78777   0.41336   0.00000  Uiso   1.00
C603   C     0.51067   0.84112   0.06415   0.00000  Uiso   1.00
C604   C     0.58750   0.81070   0.05766   0.00000  Uiso   1.00
C605   C     0.45524   0.83236   0.41151   0.00000  Uiso   1.00
C606   C     0.53773   0.97660   0.20973   0.00000  Uiso   1.00
C607   C     0.47311   0.83232   0.35216   0.00000  Uiso   1.00
C608   C     0.54074   0.68609   0.21568   0.00000  Uiso   1.00
C609   C     0.50159   0.70885   0.25380   0.00000  Uiso   1.00
C610   C     0.46247   0.68882   0.29125   0.00000  Uiso   1.00
C611   C     0.46202   0.97905   0.28754   0.00000  Uiso   1.00
C612   C     0.49909   0.95704   0.24726   0.00000  Uiso   1.00
C613   C     0.65682   0.81525   0.20701   0.00000  Uiso   1.00
C614   C     0.37139   0.81578   0.20756   0.00000  Uiso   1.00
C615   C     0.34388   0.85127   0.29220   0.00000  Uiso   1.00
C616   C     0.62943   0.85202   0.29214   0.00000  Uiso   1.00
C617   C     0.50036   0.75334   0.25142   0.00000  Uiso   1.00
C618   C     0.52684   0.83356   0.14772   0.00000  Uiso   1.00
C619   C     0.59641   0.79818   0.00346   0.00000  Uiso   1.00
C620   C     0.54348   0.82995   0.08856   0.00000  Uiso   1.00
C621   C     0.41178   0.85388   0.44067   0.00000  Uiso   1.00
C622   C     0.40003   0.86277   0.49591   0.00000  Uiso   1.00
C623   C     0.43308   0.85313   0.02117   0.00000  Uiso   1.00
H624   H     0.61480   0.80575   0.07562   0.00000  Uiso   1.00
H625   H     0.43353   0.96226   0.31677   0.00000  Uiso   1.00
H626   H     0.40136   0.80185   0.17448   0.00000  Uiso   1.00
H627   H     0.35129   0.86533   0.32612   0.00000  Uiso   1.00
H628   H     0.48028   0.86086   0.08783   0.00000  Uiso   1.00
H629   H     0.38784   0.86516   0.42037   0.00000  Uiso   1.00
H630   H     0.42192   0.86219   0.06367   0.00000  Uiso   1.00
H631   H     0.36622   0.87906   0.01868   0.00000  Uiso   1.00
H632   H     0.52306   0.77050   0.37756   0.00000  Uiso   1.00
N633   N     0.38093   0.83334   0.25002   0.00000  Uiso   1.00
N634   N     0.61906   0.83331   0.25001   0.00000  Uiso   1.00
O635   O     0.46179   0.89442   0.25000   0.00000  Uiso   1.00
O636   O     0.53823   0.89441   0.25001   0.00000  Uiso   1.00
O637   O     0.44280   0.83333   0.32681   0.00000  Uiso   1.00
O638   O     0.51924   0.83332   0.32681   0.00000  Uiso   1.00
O639   O     0.46177   0.77226   0.25000   0.00000  Uiso   1.00
O640   O     0.53821   0.77225   0.25000   0.00000  Uiso   1.00
O641   O     0.48076   0.83335   0.17319   0.00000  Uiso   1.00
O642   O     0.55720   0.83334   0.17319   0.00000  Uiso   1.00
Zn643  Zn    0.44896   0.83334   0.25000   0.00000  Uiso   1.00
Zn644  Zn    0.55104   0.83333   0.25000   0.00000  Uiso   1.00
N645   N     0.58470   0.70557   0.18773   0.00000  Uiso   1.00
H646   H     0.59813   0.69989   0.14614   0.00000  Uiso   1.00
C647   C     0.62067   0.70041   0.21340   0.00000  Uiso   1.00
H648   H     0.65511   0.68756   0.18339   0.00000  Uiso   1.00
H649   H     0.60923   0.67911   0.24848   0.00000  Uiso   1.00
H650   H     0.62713   0.73099   0.22928   0.00000  Uiso   1.00
C651   C     0.42419   0.71192   0.33659   0.00000  Uiso   1.00
H652   H     0.42690   0.74490   0.34464   0.00000  Uiso   1.00
O653   O     0.38934   0.69409   0.36644   0.00000  Uiso   1.00
N654   N     0.64749   0.79623   0.16217   0.00000  Uiso   1.00
H655   H     0.61510   0.78216   0.17285   0.00000  Uiso   1.00
C656   C     0.35240   0.77318   0.11976   0.00000  Uiso   1.00
H657   H     0.36786   0.74763   0.13750   0.00000  Uiso   1.00
H658   H     0.38086   0.79454   0.09728   0.00000  Uiso   1.00
H659   H     0.33800   0.75884   0.09012   0.00000  Uiso   1.00
N660   N     0.59211   0.87099   0.33731   0.00000  Uiso   1.00
H661   H     0.59109   0.85873   0.37388   0.00000  Uiso   1.00
C662   C     0.59125   0.91621   0.33946   0.00000  Uiso   1.00
H663   H     0.62407   0.92747   0.34550   0.00000  Uiso   1.00
H664   H     0.55921   0.92805   0.37409   0.00000  Uiso   1.00
H665   H     0.58880   0.92902   0.30146   0.00000  Uiso   1.00
N666   N     0.59065   0.74285   0.41267   0.00000  Uiso   1.00
H667   H     0.60704   0.72850   0.43684   0.00000  Uiso   1.00
C668   C     0.61734   0.74106   0.35445   0.00000  Uiso   1.00
H669   H     0.64219   0.71305   0.34387   0.00000  Uiso   1.00
H670   H     0.63867   0.76937   0.34178   0.00000  Uiso   1.00
H671   H     0.59278   0.73818   0.33119   0.00000  Uiso   1.00
C672   C     0.64705   0.78676   0.46996   0.00000  Uiso   1.00
H673   H     0.33776   0.77351   0.48907   0.00000  Uiso   1.00
O674   O     0.66330   0.79455   0.42159   0.00000  Uiso   1.00
N675   N     0.57042   0.95380   0.16352   0.00000  Uiso   1.00
H676   H     0.57412   0.96657   0.12642   0.00000  Uiso   1.00
C677   C     0.61533   0.93777   0.16719   0.00000  Uiso   1.00
H678   H     0.62034   0.90408   0.15505   0.00000  Uiso   1.00
H679   H     0.61596   0.94119   0.20910   0.00000  Uiso   1.00
H680   H     0.64593   0.95457   0.13895   0.00000  Uiso   1.00
C681   C     0.83313   0.91308   0.24859   0.00000  Uiso   1.00
C682   C     0.81109   0.83181   0.49188   0.00000  Uiso   1.00
C683   C     0.81892   0.81737   0.43860   0.00000  Uiso   1.00
C684   C     0.84840   0.82467   0.01310   0.00000  Uiso   1.00
C685   C     0.89114   0.80042   0.48279   0.00000  Uiso   1.00
C686   C     0.89229   0.77843   0.43479   0.00000  Uiso   1.00
C687   C     0.85641   0.78777   0.41336   0.00000  Uiso   1.00
C688   C     0.84400   0.84112   0.06415   0.00000  Uiso   1.00
C689   C     0.92084   0.81070   0.05766   0.00000  Uiso   1.00
C690   C     0.78857   0.83236   0.41151   0.00000  Uiso   1.00
C691   C     0.87107   0.97660   0.20973   0.00000  Uiso   1.00
C692   C     0.80645   0.83232   0.35216   0.00000  Uiso   1.00
C693   C     0.87408   0.68609   0.21568   0.00000  Uiso   1.00
C694   C     0.83492   0.70885   0.25380   0.00000  Uiso   1.00
C695   C     0.79581   0.68882   0.29125   0.00000  Uiso   1.00
C696   C     0.79535   0.97905   0.28754   0.00000  Uiso   1.00
C697   C     0.83242   0.95704   0.24726   0.00000  Uiso   1.00
C698   C     0.99015   0.81525   0.20701   0.00000  Uiso   1.00
C699   C     0.70472   0.81578   0.20756   0.00000  Uiso   1.00
C700   C     0.67722   0.85127   0.29220   0.00000  Uiso   1.00
C701   C     0.96276   0.85202   0.29214   0.00000  Uiso   1.00
C702   C     0.83369   0.75334   0.25142   0.00000  Uiso   1.00
C703   C     0.86018   0.83356   0.14772   0.00000  Uiso   1.00
C704   C     0.92975   0.79818   0.00346   0.00000  Uiso   1.00
C705   C     0.87681   0.82995   0.08856   0.00000  Uiso   1.00
C706   C     0.74512   0.85388   0.44067   0.00000  Uiso   1.00
C707   C     0.73336   0.86277   0.49591   0.00000  Uiso   1.00
C708   C     0.76641   0.85313   0.02117   0.00000  Uiso   1.00
H709   H     0.94813   0.80575   0.07562   0.00000  Uiso   1.00
H710   H     0.76686   0.96226   0.31677   0.00000  Uiso   1.00
H711   H     0.73469   0.80185   0.17448   0.00000  Uiso   1.00
H712   H     0.68462   0.86533   0.32612   0.00000  Uiso   1.00
H713   H     0.81361   0.86086   0.08783   0.00000  Uiso   1.00
H714   H     0.72118   0.86516   0.42037   0.00000  Uiso   1.00
H715   H     0.75525   0.86219   0.06367   0.00000  Uiso   1.00
H716   H     0.69955   0.87906   0.01868   0.00000  Uiso   1.00
H717   H     0.85639   0.77050   0.37756   0.00000  Uiso   1.00
N718   N     0.71426   0.83334   0.25002   0.00000  Uiso   1.00
N719   N     0.95239   0.83331   0.25001   0.00000  Uiso   1.00
O720   O     0.79512   0.89442   0.25000   0.00000  Uiso   1.00
O721   O     0.87157   0.89441   0.25001   0.00000  Uiso   1.00
O722   O     0.77613   0.83333   0.32681   0.00000  Uiso   1.00
O723   O     0.85258   0.83332   0.32681   0.00000  Uiso   1.00
O724   O     0.79510   0.77226   0.25000   0.00000  Uiso   1.00
O725   O     0.87154   0.77225   0.25000   0.00000  Uiso   1.00
O726   O     0.81409   0.83335   0.17319   0.00000  Uiso   1.00
O727   O     0.89053   0.83334   0.17319   0.00000  Uiso   1.00
Zn728  Zn    0.78229   0.83334   0.25000   0.00000  Uiso   1.00
Zn729  Zn    0.88438   0.83333   0.25000   0.00000  Uiso   1.00
N730   N     0.91803   0.70557   0.18773   0.00000  Uiso   1.00
H731   H     0.93146   0.69989   0.14614   0.00000  Uiso   1.00
C732   C     0.95400   0.70041   0.21340   0.00000  Uiso   1.00
H733   H     0.98845   0.68756   0.18339   0.00000  Uiso   1.00
H734   H     0.94257   0.67911   0.24848   0.00000  Uiso   1.00
H735   H     0.96046   0.73099   0.22928   0.00000  Uiso   1.00
C736   C     0.75752   0.71192   0.33659   0.00000  Uiso   1.00
H737   H     0.76024   0.74490   0.34464   0.00000  Uiso   1.00
O738   O     0.72267   0.69409   0.36644   0.00000  Uiso   1.00
N739   N     0.98082   0.79623   0.16217   0.00000  Uiso   1.00
H740   H     0.94844   0.78216   0.17285   0.00000  Uiso   1.00
C741   C     0.68573   0.77318   0.11976   0.00000  Uiso   1.00
H742   H     0.70119   0.74763   0.13750   0.00000  Uiso   1.00
H743   H     0.71420   0.79454   0.09728   0.00000  Uiso   1.00
H744   H     0.67133   0.75884   0.09012   0.00000  Uiso   1.00
N745   N     0.92545   0.87099   0.33731   0.00000  Uiso   1.00
H746   H     0.92442   0.85873   0.37388   0.00000  Uiso   1.00
C747   C     0.92459   0.91621   0.33946   0.00000  Uiso   1.00
H748   H     0.95741   0.92747   0.34550   0.00000  Uiso   1.00
H749   H     0.89254   0.92805   0.37409   0.00000  Uiso   1.00
H750   H     0.92213   0.92902   0.30146   0.00000  Uiso   1.00
N751   N     0.92398   0.74285   0.41267   0.00000  Uiso   1.00
H752   H     0.94038   0.72850   0.43684   0.00000  Uiso   1.00
C753   C     0.95068   0.74106   0.35445   0.00000  Uiso   1.00
H754   H     0.97552   0.71305   0.34387   0.00000  Uiso   1.00
H755   H     0.97200   0.76937   0.34178   0.00000  Uiso   1.00
H756   H     0.92611   0.73818   0.33119   0.00000  Uiso   1.00
C757   C     0.98038   0.78676   0.46996   0.00000  Uiso   1.00
H758   H     0.67110   0.77351   0.48907   0.00000  Uiso   1.00
O759   O     0.99663   0.79455   0.42159   0.00000  Uiso   1.00
N760   N     0.90375   0.95380   0.16352   0.00000  Uiso   1.00
H761   H     0.90745   0.96657   0.12642   0.00000  Uiso   1.00
C762   C     0.94866   0.93777   0.16719   0.00000  Uiso   1.00
H763   H     0.95367   0.90408   0.15505   0.00000  Uiso   1.00
H764   H     0.94929   0.94119   0.20910   0.00000  Uiso   1.00
H765   H     0.97926   0.95457   0.13895   0.00000  Uiso   1.00
C766   C     0.16647   0.24641   0.74859   0.00000  Uiso   1.00
C767   C     0.14443   0.16515   0.99188   0.00000  Uiso   1.00
C768   C     0.15225   0.15071   0.93860   0.00000  Uiso   1.00
C769   C     0.18173   0.15800   0.51310   0.00000  Uiso   1.00
C770   C     0.22447   0.13375   0.98279   0.00000  Uiso   1.00
C771   C     0.22563   0.11176   0.93479   0.00000  Uiso   1.00
C772   C     0.18974   0.12110   0.91336   0.00000  Uiso   1.00
C773   C     0.17733   0.17445   0.56415   0.00000  Uiso   1.00
C774   C     0.25417   0.14404   0.55766   0.00000  Uiso   1.00
C775   C     0.12190   0.16570   0.91151   0.00000  Uiso   1.00
C776   C     0.20440   0.30994   0.70973   0.00000  Uiso   1.00
C777   C     0.13978   0.16566   0.85216   0.00000  Uiso   1.00
C778   C     0.20741   0.01942   0.71568   0.00000  Uiso   1.00
C779   C     0.16825   0.04219   0.75380   0.00000  Uiso   1.00
C780   C     0.12914   0.02215   0.79125   0.00000  Uiso   1.00
C781   C     0.12868   0.31238   0.78754   0.00000  Uiso   1.00
C782   C     0.16575   0.29037   0.74726   0.00000  Uiso   1.00
C783   C     0.32349   0.14858   0.70701   0.00000  Uiso   1.00
C784   C     0.03806   0.14911   0.70756   0.00000  Uiso   1.00
C785   C     0.01055   0.18460   0.79220   0.00000  Uiso   1.00
C786   C     0.29609   0.18536   0.79214   0.00000  Uiso   1.00
C787   C     0.16703   0.08667   0.75142   0.00000  Uiso   1.00
C788   C     0.19351   0.16689   0.64772   0.00000  Uiso   1.00
C789   C     0.26308   0.13151   0.50346   0.00000  Uiso   1.00
C790   C     0.21015   0.16328   0.58856   0.00000  Uiso   1.00
C791   C     0.07845   0.18721   0.94067   0.00000  Uiso   1.00
C792   C     0.06670   0.19610   0.99591   0.00000  Uiso   1.00
C793   C     0.09974   0.18646   0.52117   0.00000  Uiso   1.00
H794   H     0.28147   0.13908   0.57562   0.00000  Uiso   1.00
H795   H     0.10019   0.29559   0.81677   0.00000  Uiso   1.00
H796   H     0.06802   0.13518   0.67448   0.00000  Uiso   1.00
H797   H     0.01795   0.19866   0.82612   0.00000  Uiso   1.00
H798   H     0.14694   0.19419   0.58783   0.00000  Uiso   1.00
H799   H     0.05451   0.19849   0.92037   0.00000  Uiso   1.00
H800   H     0.08858   0.19553   0.56367   0.00000  Uiso   1.00
H801   H     0.03289   0.21239   0.51868   0.00000  Uiso   1.00
H802   H     0.18972   0.10384   0.87756   0.00000  Uiso   1.00
N803   N     0.04760   0.16668   0.75002   0.00000  Uiso   1.00
N804   N     0.28573   0.16665   0.75001   0.00000  Uiso   1.00
O805   O     0.12846   0.22775   0.75000   0.00000  Uiso   1.00
O806   O     0.20490   0.22774   0.75001   0.00000  Uiso   1.00
O807   O     0.10947   0.16666   0.82681   0.00000  Uiso   1.00
O808   O     0.18591   0.16665   0.82681   0.00000  Uiso   1.00
O809   O     0.12843   0.10559   0.75000   0.00000  Uiso   1.00
O810   O     0.20488   0.10558   0.75000   0.00000  Uiso   1.00
O811   O     0.14742   0.16668   0.67319   0.00000  Uiso   1.00
O812   O     0.22387   0.16667   0.67319   0.00000  Uiso   1.00
Zn813  Zn    0.11562   0.16667   0.75000   0.00000  Uiso   1.00
Zn814  Zn    0.21771   0.16666   0.75000   0.00000  Uiso   1.00
N815   N     0.25136   0.03890   0.68773   0.00000  Uiso   1.00
H816   H     0.26479   0.03322   0.64614   0.00000  Uiso   1.00
C817   C     0.28734   0.03375   0.71340   0.00000  Uiso   1.00
H818   H     0.32178   0.02089   0.68339   0.00000  Uiso   1.00
H819   H     0.27590   0.01244   0.74848   0.00000  Uiso   1.00
H820   H     0.29380   0.06432   0.72928   0.00000  Uiso   1.00
C821   C     0.09085   0.04526   0.83659   0.00000  Uiso   1.00
H822   H     0.09357   0.07823   0.84464   0.00000  Uiso   1.00
O823   O     0.05601   0.02742   0.86644   0.00000  Uiso   1.00
N824   N     0.31415   0.12956   0.66217   0.00000  Uiso   1.00
H825   H     0.28177   0.11549   0.67285   0.00000  Uiso   1.00
C826   C     0.01906   0.10652   0.61976   0.00000  Uiso   1.00
H827   H     0.03452   0.08097   0.63750   0.00000  Uiso   1.00
H828   H     0.04753   0.12787   0.59728   0.00000  Uiso   1.00
H829   H     0.00466   0.09218   0.59012   0.00000  Uiso   1.00
N830   N     0.25878   0.20433   0.83731   0.00000  Uiso   1.00
H831   H     0.25775   0.19206   0.87388   0.00000  Uiso   1.00
C832   C     0.25792   0.24954   0.83946   0.00000  Uiso   1.00
H833   H     0.29074   0.26081   0.84550   0.00000  Uiso   1.00
H834   H     0.22587   0.26138   0.87409   0.00000  Uiso   1.00
H835   H     0.25547   0.26235   0.80146   0.00000  Uiso   1.00
N836   N     0.25731   0.07619   0.91267   0.00000  Uiso   1.00
H837   H     0.27371   0.06183   0.93684   0.00000  Uiso   1.00
C838   C     0.28401   0.07439   0.85445   0.00000  Uiso   1.00
H839   H     0.30885   0.04638   0.84387   0.00000  Uiso   1.00
H840   H     0.30534   0.10270   0.84178   0.00000  Uiso   1.00
H841   H     0.25945   0.07151   0.83119   0.00000  Uiso   1.00
C842   C     0.31372   0.12009   0.96996   0.00000  Uiso   1.00
H843   H     0.00443   0.10685   0.98907   0.00000  Uiso   1.00
O844   O     0.32996   0.12789   0.92159   0.00000  Uiso   1.00
N845   N     0.23709   0.28713   0.66352   0.00000  Uiso   1.00
H846   H     0.24079   0.29991   0.62642   0.00000  Uiso   1.00
C847   C     0.28199   0.27111   0.66719   0.00000  Uiso   1.00
H848   H     0.28701   0.23741   0.65505   0.00000  Uiso   1.00
H849   H     0.28262   0.27452   0.70910   0.00000  Uiso   1.00
H850   H     0.31259   0.28790   0.63895   0.00000  Uiso   1.00
C851   C     0.49980   0.24641   0.74859   0.00000  Uiso   1.00
C852   C     0.47776   0.16515   0.99188   0.00000  Uiso   1.00
C853   C     0.48558   0.15071   0.93860   0.00000  Uiso   1.00
C854   C     0.51506   0.15800   0.51310   0.00000  Uiso   1.00
C855   C     0.55781   0.13375   0.98279   0.00000  Uiso   1.00
C856   C     0.55896   0.11176   0.93479   0.00000  Uiso   1.00
C857   C     0.52307   0.12110   0.91336   0.00000  Uiso   1.00
C858   C     0.51067   0.17445   0.56415   0.00000  Uiso   1.00
C859   C     0.58750   0.14404   0.55766   0.00000  Uiso   1.00
C860   C     0.45524   0.16570   0.91151   0.00000  Uiso   1.00
C861   C     0.53773   0.30994   0.70973   0.00000  Uiso   1.00
C862   C     0.47311   0.16566   0.85216   0.00000  Uiso   1.00
C863   C     0.54074   0.01942   0.71568   0.00000  Uiso   1.00
C864   C     0.50159   0.04219   0.75380   0.00000  Uiso   1.00
C865   C     0.46247   0.02215   0.79125   0.00000  Uiso   1.00
C866   C     0.46202   0.31238   0.78754   0.00000  Uiso   1.00
C867   C     0.49909   0.29037   0.74726   0.00000  Uiso   1.00
C868   C     0.65682   0.14858   0.70701   0.00000  Uiso   1.00
C869   C     0.37139   0.14911   0.70756   0.00000  Uiso   1.00
C870   C     0.34388   0.18460   0.79220   0.00000  Uiso   1.00
C871   C     0.62943   0.18536   0.79214   0.00000  Uiso   1.00
C872   C     0.50036   0.08667   0.75142   0.00000  Uiso   1.00
C873   C     0.52684   0.16689   0.64772   0.00000  Uiso   1.00
C874   C     0.59641   0.13151   0.50346   0.00000  Uiso   1.00
C875   C     0.54348   0.16328   0.58856   0.00000  Uiso   1.00
C876   C     0.41178   0.18721   0.94067   0.00000  Uiso   1.00
C877   C     0.40003   0.19610   0.99591   0.00000  Uiso   1.00
C878   C     0.43308   0.18646   0.52117   0.00000  Uiso   1.00
H879   H     0.61480   0.13908   0.57562   0.00000  Uiso   1.00
H880   H     0.43353   0.29559   0.81677   0.00000  Uiso   1.00
H881   H     0.40136   0.13518   0.67448   0.00000  Uiso   1.00
H882   H     0.35129   0.19866   0.82612   0.00000  Uiso   1.00
H883   H     0.48028   0.19419   0.58783   0.00000  Uiso   1.00
H884   H     0.38784   0.19849   0.92037   0.00000  Uiso   1.00
H885   H     0.42192   0.19553   0.56367   0.00000  Uiso   1.00
H886   H     0.36622   0.21239   0.51868   0.00000  Uiso   1.00
H887   H     0.52306   0.10384   0.87756   0.00000  Uiso   1.00
N888   N     0.38093   0.16668   0.75002   0.00000  Uiso   1.00
N889   N     0.61906   0.16665   0.75001   0.00000  Uiso   1.00
O890   O     0.46179   0.22775   0.75000   0.00000  Uiso   1.00
O891   O     0.53823   0.22774   0.75001   0.00000  Uiso   1.00
O892   O     0.44280   0.16666   0.82681   0.00000  Uiso   1.00
O893   O     0.51924   0.16665   0.82681   0.00000  Uiso   1.00
O894   O     0.46177   0.10559   0.75000   0.00000  Uiso   1.00
O895   O     0.53821   0.10558   0.75000   0.00000  Uiso   1.00
O896   O     0.48076   0.16668   0.67319   0.00000  Uiso   1.00
O897   O     0.55720   0.16667   0.67319   0.00000  Uiso   1.00
Zn898  Zn    0.44896   0.16667   0.75000   0.00000  Uiso   1.00
Zn899  Zn    0.55104   0.16666   0.75000   0.00000  Uiso   1.00
N900   N     0.58470   0.03890   0.68773   0.00000  Uiso   1.00
H901   H     0.59813   0.03322   0.64614   0.00000  Uiso   1.00
C902   C     0.62067   0.03375   0.71340   0.00000  Uiso   1.00
H903   H     0.65511   0.02089   0.68339   0.00000  Uiso   1.00
H904   H     0.60923   0.01244   0.74848   0.00000  Uiso   1.00
H905   H     0.62713   0.06432   0.72928   0.00000  Uiso   1.00
C906   C     0.42419   0.04526   0.83659   0.00000  Uiso   1.00
H907   H     0.42690   0.07823   0.84464   0.00000  Uiso   1.00
O908   O     0.38934   0.02742   0.86644   0.00000  Uiso   1.00
N909   N     0.64749   0.12956   0.66217   0.00000  Uiso   1.00
H910   H     0.61510   0.11549   0.67285   0.00000  Uiso   1.00
C911   C     0.35240   0.10652   0.61976   0.00000  Uiso   1.00
H912   H     0.36786   0.08097   0.63750   0.00000  Uiso   1.00
H913   H     0.38086   0.12787   0.59728   0.00000  Uiso   1.00
H914   H     0.33800   0.09218   0.59012   0.00000  Uiso   1.00
N915   N     0.59211   0.20433   0.83731   0.00000  Uiso   1.00
H916   H     0.59109   0.19206   0.87388   0.00000  Uiso   1.00
C917   C     0.59125   0.24954   0.83946   0.00000  Uiso   1.00
H918   H     0.62407   0.26081   0.84550   0.00000  Uiso   1.00
H919   H     0.55921   0.26138   0.87409   0.00000  Uiso   1.00
H920   H     0.58880   0.26235   0.80146   0.00000  Uiso   1.00
N921   N     0.59065   0.07619   0.91267   0.00000  Uiso   1.00
H922   H     0.60704   0.06183   0.93684   0.00000  Uiso   1.00
C923   C     0.61734   0.07439   0.85445   0.00000  Uiso   1.00
H924   H     0.64219   0.04638   0.84387   0.00000  Uiso   1.00
H925   H     0.63867   0.10270   0.84178   0.00000  Uiso   1.00
H926   H     0.59278   0.07151   0.83119   0.00000  Uiso   1.00
C927   C     0.64705   0.12009   0.96996   0.00000  Uiso   1.00
H928   H     0.33776   0.10685   0.98907   0.00000  Uiso   1.00
O929   O     0.66330   0.12789   0.92159   0.00000  Uiso   1.00
N930   N     0.57042   0.28713   0.66352   0.00000  Uiso   1.00
H931   H     0.57412   0.29991   0.62642   0.00000  Uiso   1.00
C932   C     0.61533   0.27111   0.66719   0.00000  Uiso   1.00
H933   H     0.62034   0.23741   0.65505   0.00000  Uiso   1.00
H934   H     0.61596   0.27452   0.70910   0.00000  Uiso   1.00
H935   H     0.64593   0.28790   0.63895   0.00000  Uiso   1.00
C936   C     0.83313   0.24641   0.74859   0.00000  Uiso   1.00
C937   C     0.81109   0.16515   0.99188   0.00000  Uiso   1.00
C938   C     0.81892   0.15071   0.93860   0.00000  Uiso   1.00
C939   C     0.84840   0.15800   0.51310   0.00000  Uiso   1.00
C940   C     0.89114   0.13375   0.98279   0.00000  Uiso   1.00
C941   C     0.89229   0.11176   0.93479   0.00000  Uiso   1.00
C942   C     0.85641   0.12110   0.91336   0.00000  Uiso   1.00
C943   C     0.84400   0.17445   0.56415   0.00000  Uiso   1.00
C944   C     0.92084   0.14404   0.55766   0.00000  Uiso   1.00
C945   C     0.78857   0.16570   0.91151   0.00000  Uiso   1.00
C946   C     0.87107   0.30994   0.70973   0.00000  Uiso   1.00
C947   C     0.80645   0.16566   0.85216   0.00000  Uiso   1.00
C948   C     0.87408   0.01942   0.71568   0.00000  Uiso   1.00
C949   C     0.83492   0.04219   0.75380   0.00000  Uiso   1.00
C950   C     0.79581   0.02215   0.79125   0.00000  Uiso   1.00
C951   C     0.79535   0.31238   0.78754   0.00000  Uiso   1.00
C952   C     0.83242   0.29037   0.74726   0.00000  Uiso   1.00
C953   C     0.99015   0.14858   0.70701   0.00000  Uiso   1.00
C954   C     0.70472   0.14911   0.70756   0.00000  Uiso   1.00
C955   C     0.67722   0.18460   0.79220   0.00000  Uiso   1.00
C956   C     0.96276   0.18536   0.79214   0.00000  Uiso   1.00
C957   C     0.83369   0.08667   0.75142   0.00000  Uiso   1.00
C958   C     0.86018   0.16689   0.64772   0.00000  Uiso   1.00
C959   C     0.92975   0.13151   0.50346   0.00000  Uiso   1.00
C960   C     0.87681   0.16328   0.58856   0.00000  Uiso   1.00
C961   C     0.74512   0.18721   0.94067   0.00000  Uiso   1.00
C962   C     0.73336   0.19610   0.99591   0.00000  Uiso   1.00
C963   C     0.76641   0.18646   0.52117   0.00000  Uiso   1.00
H964   H     0.94813   0.13908   0.57562   0.00000  Uiso   1.00
H965   H     0.76686   0.29559   0.81677   0.00000  Uiso   1.00
H966   H     0.73469   0.13518   0.67448   0.00000  Uiso   1.00
H967   H     0.68462   0.19866   0.82612   0.00000  Uiso   1.00
H968   H     0.81361   0.19419   0.58783   0.00000  Uiso   1.00
H969   H     0.72118   0.19849   0.92037   0.00000  Uiso   1.00
H970   H     0.75525   0.19553   0.56367   0.00000  Uiso   1.00
H971   H     0.69955   0.21239   0.51868   0.00000  Uiso   1.00
H972   H     0.85639   0.10384   0.87756   0.00000  Uiso   1.00
N973   N     0.71426   0.16668   0.75002   0.00000  Uiso   1.00
N974   N     0.95239   0.16665   0.75001   0.00000  Uiso   1.00
O975   O     0.79512   0.22775   0.75000   0.00000  Uiso   1.00
O976   O     0.87157   0.22774   0.75001   0.00000  Uiso   1.00
O977   O     0.77613   0.16666   0.82681   0.00000  Uiso   1.00
O978   O     0.85258   0.16665   0.82681   0.00000  Uiso   1.00
O979   O     0.79510   0.10559   0.75000   0.00000  Uiso   1.00
O980   O     0.87154   0.10558   0.75000   0.00000  Uiso   1.00
O981   O     0.81409   0.16668   0.67319   0.00000  Uiso   1.00
O982   O     0.89053   0.16667   0.67319   0.00000  Uiso   1.00
Zn983  Zn    0.78229   0.16667   0.75000   0.00000  Uiso   1.00
Zn984  Zn    0.88438   0.16666   0.75000   0.00000  Uiso   1.00
N985   N     0.91803   0.03890   0.68773   0.00000  Uiso   1.00
H986   H     0.93146   0.03322   0.64614   0.00000  Uiso   1.00
C987   C     0.95400   0.03375   0.71340   0.00000  Uiso   1.00
H988   H     0.98845   0.02089   0.68339   0.00000  Uiso   1.00
H989   H     0.94257   0.01244   0.74848   0.00000  Uiso   1.00
H990   H     0.96046   0.06432   0.72928   0.00000  Uiso   1.00
C991   C     0.75752   0.04526   0.83659   0.00000  Uiso   1.00
H992   H     0.76024   0.07823   0.84464   0.00000  Uiso   1.00
O993   O     0.72267   0.02742   0.86644   0.00000  Uiso   1.00
N994   N     0.98082   0.12956   0.66217   0.00000  Uiso   1.00
H995   H     0.94844   0.11549   0.67285   0.00000  Uiso   1.00
C996   C     0.68573   0.10652   0.61976   0.00000  Uiso   1.00
H997   H     0.70119   0.08097   0.63750   0.00000  Uiso   1.00
H998   H     0.71420   0.12787   0.59728   0.00000  Uiso   1.00
H999   H     0.67133   0.09218   0.59012   0.00000  Uiso   1.00
N1000  N     0.92545   0.20433   0.83731   0.00000  Uiso   1.00
H1001  H     0.92442   0.19206   0.87388   0.00000  Uiso   1.00
C1002  C     0.92459   0.24954   0.83946   0.00000  Uiso   1.00
H1003  H     0.95741   0.26081   0.84550   0.00000  Uiso   1.00
H1004  H     0.89254   0.26138   0.87409   0.00000  Uiso   1.00
H1005  H     0.92213   0.26235   0.80146   0.00000  Uiso   1.00
N1006  N     0.92398   0.07619   0.91267   0.00000  Uiso   1.00
H1007  H     0.94038   0.06183   0.93684   0.00000  Uiso   1.00
C1008  C     0.95068   0.07439   0.85445   0.00000  Uiso   1.00
H1009  H     0.97552   0.04638   0.84387   0.00000  Uiso   1.00
H1010  H     0.97200   0.10270   0.84178   0.00000  Uiso   1.00
H1011  H     0.92611   0.07151   0.83119   0.00000  Uiso   1.00
C1012  C     0.98038   0.12009   0.96996   0.00000  Uiso   1.00
H1013  H     0.67110   0.10685   0.98907   0.00000  Uiso   1.00
O1014  O     0.99663   0.12789   0.92159   0.00000  Uiso   1.00
N1015  N     0.90375   0.28713   0.66352   0.00000  Uiso   1.00
H1016  H     0.90745   0.29991   0.62642   0.00000  Uiso   1.00
C1017  C     0.94866   0.27111   0.66719   0.00000  Uiso   1.00
H1018  H     0.95367   0.23741   0.65505   0.00000  Uiso   1.00
H1019  H     0.94929   0.27452   0.70910   0.00000  Uiso   1.00
H1020  H     0.97926   0.28790   0.63895   0.00000  Uiso   1.00
C1021  C     0.16647   0.57975   0.74859   0.00000  Uiso   1.00
C1022  C     0.14443   0.49848   0.99188   0.00000  Uiso   1.00
C1023  C     0.15225   0.48404   0.93860   0.00000  Uiso   1.00
C1024  C     0.18173   0.49134   0.51310   0.00000  Uiso   1.00
C1025  C     0.22447   0.46708   0.98279   0.00000  Uiso   1.00
C1026  C     0.22563   0.44509   0.93479   0.00000  Uiso   1.00
C1027  C     0.18974   0.45443   0.91336   0.00000  Uiso   1.00
C1028  C     0.17733   0.50779   0.56415   0.00000  Uiso   1.00
C1029  C     0.25417   0.47737   0.55766   0.00000  Uiso   1.00
C1030  C     0.12190   0.49903   0.91151   0.00000  Uiso   1.00
C1031  C     0.20440   0.64327   0.70973   0.00000  Uiso   1.00
C1032  C     0.13978   0.49899   0.85216   0.00000  Uiso   1.00
C1033  C     0.20741   0.35276   0.71568   0.00000  Uiso   1.00
C1034  C     0.16825   0.37552   0.75380   0.00000  Uiso   1.00
C1035  C     0.12914   0.35548   0.79125   0.00000  Uiso   1.00
C1036  C     0.12868   0.64571   0.78754   0.00000  Uiso   1.00
C1037  C     0.16575   0.62371   0.74726   0.00000  Uiso   1.00
C1038  C     0.32349   0.48191   0.70701   0.00000  Uiso   1.00
C1039  C     0.03806   0.48244   0.70756   0.00000  Uiso   1.00
C1040  C     0.01055   0.51794   0.79220   0.00000  Uiso   1.00
C1041  C     0.29609   0.51869   0.79214   0.00000  Uiso   1.00
C1042  C     0.16703   0.42000   0.75142   0.00000  Uiso   1.00
C1043  C     0.19351   0.50022   0.64772   0.00000  Uiso   1.00
C1044  C     0.26308   0.46485   0.50346   0.00000  Uiso   1.00
C1045  C     0.21015   0.49662   0.58856   0.00000  Uiso   1.00
C1046  C     0.07845   0.52055   0.94067   0.00000  Uiso   1.00
C1047  C     0.06670   0.52944   0.99591   0.00000  Uiso   1.00
C1048  C     0.09974   0.51979   0.52117   0.00000  Uiso   1.00
H1049  H     0.28147   0.47242   0.57562   0.00000  Uiso   1.00
H1050  H     0.10019   0.62892   0.81677   0.00000  Uiso   1.00
H1051  H     0.06802   0.46851   0.67448   0.00000  Uiso   1.00
H1052  H     0.01795   0.53200   0.82612   0.00000  Uiso   1.00
H1053  H     0.14694   0.52753   0.58783   0.00000  Uiso   1.00
H1054  H     0.05451   0.53183   0.92037   0.00000  Uiso   1.00
H1055  H     0.08858   0.52886   0.56367   0.00000  Uiso   1.00
H1056  H     0.03289   0.54572   0.51868   0.00000  Uiso   1.00
H1057  H     0.18972   0.43717   0.87756   0.00000  Uiso   1.00
N1058  N     0.04760   0.50001   0.75002   0.00000  Uiso   1.00
N1059  N     0.28573   0.49998   0.75001   0.00000  Uiso   1.00
O1060  O     0.12846   0.56108   0.75000   0.00000  Uiso   1.00
O1061  O     0.20490   0.56107   0.75001   0.00000  Uiso   1.00
O1062  O     0.10947   0.50000   0.82681   0.00000  Uiso   1.00
O1063  O     0.18591   0.49999   0.82681   0.00000  Uiso   1.00
O1064  O     0.12843   0.43893   0.75000   0.00000  Uiso   1.00
O1065  O     0.20488   0.43892   0.75000   0.00000  Uiso   1.00
O1066  O     0.14742   0.50001   0.67319   0.00000  Uiso   1.00
O1067  O     0.22387   0.50000   0.67319   0.00000  Uiso   1.00
Zn1068 Zn    0.11562   0.50001   0.75000   0.00000  Uiso   1.00
Zn1069 Zn    0.21771   0.49999   0.75000   0.00000  Uiso   1.00
N1070  N     0.25136   0.37223   0.68773   0.00000  Uiso   1.00
H1071  H     0.26479   0.36656   0.64614   0.00000  Uiso   1.00
C1072  C     0.28734   0.36708   0.71340   0.00000  Uiso   1.00
H1073  H     0.32178   0.35423   0.68339   0.00000  Uiso   1.00
H1074  H     0.27590   0.34577   0.74848   0.00000  Uiso   1.00
H1075  H     0.29380   0.39765   0.72928   0.00000  Uiso   1.00
C1076  C     0.09085   0.37859   0.83659   0.00000  Uiso   1.00
H1077  H     0.09357   0.41156   0.84464   0.00000  Uiso   1.00
O1078  O     0.05601   0.36076   0.86644   0.00000  Uiso   1.00
N1079  N     0.31415   0.46289   0.66217   0.00000  Uiso   1.00
H1080  H     0.28177   0.44882   0.67285   0.00000  Uiso   1.00
C1081  C     0.01906   0.43985   0.61976   0.00000  Uiso   1.00
H1082  H     0.03452   0.41430   0.63750   0.00000  Uiso   1.00
H1083  H     0.04753   0.46120   0.59728   0.00000  Uiso   1.00
H1084  H     0.00466   0.42551   0.59012   0.00000  Uiso   1.00
N1085  N     0.25878   0.53766   0.83731   0.00000  Uiso   1.00
H1086  H     0.25775   0.52539   0.87388   0.00000  Uiso   1.00
C1087  C     0.25792   0.58287   0.83946   0.00000  Uiso   1.00
H1088  H     0.29074   0.59414   0.84550   0.00000  Uiso   1.00
H1089  H     0.22587   0.59472   0.87409   0.00000  Uiso   1.00
H1090  H     0.25547   0.59568   0.80146   0.00000  Uiso   1.00
N1091  N     0.25731   0.40952   0.91267   0.00000  Uiso   1.00
H1092  H     0.27371   0.39517   0.93684   0.00000  Uiso   1.00
C1093  C     0.28401   0.40773   0.85445   0.00000  Uiso   1.00
H1094  H     0.30885   0.37972   0.84387   0.00000  Uiso   1.00
H1095  H     0.30534   0.43603   0.84178   0.00000  Uiso   1.00
H1096  H     0.25945   0.40484   0.83119   0.00000  Uiso   1.00
C1097  C     0.31372   0.45342   0.96996   0.00000  Uiso   1.00
H1098  H     0.00443   0.44018   0.98907   0.00000  Uiso   1.00
O1099  O     0.32996   0.46122   0.92159   0.00000  Uiso   1.00
N1100  N     0.23709   0.62046   0.66352   0.00000  Uiso   1.00
H1101  H     0.24079   0.63324   0.62642   0.00000  Uiso   1.00
C1102  C     0.28199   0.60444   0.66719   0.00000  Uiso   1.00
H1103  H     0.28701   0.57075   0.65505   0.00000  Uiso   1.00
H1104  H     0.28262   0.60786   0.70910   0.00000  Uiso   1.00
H1105  H     0.31259   0.62124   0.63895   0.00000  Uiso   1.00
C1106  C     0.49980   0.57975   0.74859   0.00000  Uiso   1.00
C1107  C     0.47776   0.49848   0.99188   0.00000  Uiso   1.00
C1108  C     0.48558   0.48404   0.93860   0.00000  Uiso   1.00
C1109  C     0.51506   0.49134   0.51310   0.00000  Uiso   1.00
C1110  C     0.55781   0.46708   0.98279   0.00000  Uiso   1.00
C1111  C     0.55896   0.44509   0.93479   0.00000  Uiso   1.00
C1112  C     0.52307   0.45443   0.91336   0.00000  Uiso   1.00
C1113  C     0.51067   0.50779   0.56415   0.00000  Uiso   1.00
C1114  C     0.58750   0.47737   0.55766   0.00000  Uiso   1.00
C1115  C     0.45524   0.49903   0.91151   0.00000  Uiso   1.00
C1116  C     0.53773   0.64327   0.70973   0.00000  Uiso   1.00
C1117  C     0.47311   0.49899   0.85216   0.00000  Uiso   1.00
C1118  C     0.54074   0.35276   0.71568   0.00000  Uiso   1.00
C1119  C     0.50159   0.37552   0.75380   0.00000  Uiso   1.00
C1120  C     0.46247   0.35548   0.79125   0.00000  Uiso   1.00
C1121  C     0.46202   0.64571   0.78754   0.00000  Uiso   1.00
C1122  C     0.49909   0.62371   0.74726   0.00000  Uiso   1.00
C1123  C     0.65682   0.48191   0.70701   0.00000  Uiso   1.00
C1124  C     0.37139   0.48244   0.70756   0.00000  Uiso   1.00
C1125  C     0.34388   0.51794   0.79220   0.00000  Uiso   1.00
C1126  C     0.62943   0.51869   0.79214   0.00000  Uiso   1.00
C1127  C     0.50036   0.42000   0.75142   0.00000  Uiso   1.00
C1128  C     0.52684   0.50022   0.64772   0.00000  Uiso   1.00
C1129  C     0.59641   0.46485   0.50346   0.00000  Uiso   1.00
C1130  C     0.54348   0.49662   0.58856   0.00000  Uiso   1.00
C1131  C     0.41178   0.52055   0.94067   0.00000  Uiso   1.00
C1132  C     0.40003   0.52944   0.99591   0.00000  Uiso   1.00
C1133  C     0.43308   0.51979   0.52117   0.00000  Uiso   1.00
H1134  H     0.61480   0.47242   0.57562   0.00000  Uiso   1.00
H1135  H     0.43353   0.62892   0.81677   0.00000  Uiso   1.00
H1136  H     0.40136   0.46851   0.67448   0.00000  Uiso   1.00
H1137  H     0.35129   0.53200   0.82612   0.00000  Uiso   1.00
H1138  H     0.48028   0.52753   0.58783   0.00000  Uiso   1.00
H1139  H     0.38784   0.53183   0.92037   0.00000  Uiso   1.00
H1140  H     0.42192   0.52886   0.56367   0.00000  Uiso   1.00
H1141  H     0.36622   0.54572   0.51868   0.00000  Uiso   1.00
H1142  H     0.52306   0.43717   0.87756   0.00000  Uiso   1.00
N1143  N     0.38093   0.50001   0.75002   0.00000  Uiso   1.00
N1144  N     0.61906   0.49998   0.75001   0.00000  Uiso   1.00
O1145  O     0.46179   0.56108   0.75000   0.00000  Uiso   1.00
O1146  O     0.53823   0.56107   0.75001   0.00000  Uiso   1.00
O1147  O     0.44280   0.50000   0.82681   0.00000  Uiso   1.00
O1148  O     0.51924   0.49999   0.82681   0.00000  Uiso   1.00
O1149  O     0.46177   0.43893   0.75000   0.00000  Uiso   1.00
O1150  O     0.53821   0.43892   0.75000   0.00000  Uiso   1.00
O1151  O     0.48076   0.50001   0.67319   0.00000  Uiso   1.00
O1152  O     0.55720   0.50000   0.67319   0.00000  Uiso   1.00
Zn1153 Zn    0.44896   0.50001   0.75000   0.00000  Uiso   1.00
Zn1154 Zn    0.55104   0.49999   0.75000   0.00000  Uiso   1.00
N1155  N     0.58470   0.37223   0.68773   0.00000  Uiso   1.00
H1156  H     0.59813   0.36656   0.64614   0.00000  Uiso   1.00
C1157  C     0.62067   0.36708   0.71340   0.00000  Uiso   1.00
H1158  H     0.65511   0.35423   0.68339   0.00000  Uiso   1.00
H1159  H     0.60923   0.34577   0.74848   0.00000  Uiso   1.00
H1160  H     0.62713   0.39765   0.72928   0.00000  Uiso   1.00
C1161  C     0.42419   0.37859   0.83659   0.00000  Uiso   1.00
H1162  H     0.42690   0.41156   0.84464   0.00000  Uiso   1.00
O1163  O     0.38934   0.36076   0.86644   0.00000  Uiso   1.00
N1164  N     0.64749   0.46289   0.66217   0.00000  Uiso   1.00
H1165  H     0.61510   0.44882   0.67285   0.00000  Uiso   1.00
C1166  C     0.35240   0.43985   0.61976   0.00000  Uiso   1.00
H1167  H     0.36786   0.41430   0.63750   0.00000  Uiso   1.00
H1168  H     0.38086   0.46120   0.59728   0.00000  Uiso   1.00
H1169  H     0.33800   0.42551   0.59012   0.00000  Uiso   1.00
N1170  N     0.59211   0.53766   0.83731   0.00000  Uiso   1.00
H1171  H     0.59109   0.52539   0.87388   0.00000  Uiso   1.00
C1172  C     0.59125   0.58287   0.83946   0.00000  Uiso   1.00
H1173  H     0.62407   0.59414   0.84550   0.00000  Uiso   1.00
H1174  H     0.55921   0.59472   0.87409   0.00000  Uiso   1.00
H1175  H     0.58880   0.59568   0.80146   0.00000  Uiso   1.00
N1176  N     0.59065   0.40952   0.91267   0.00000  Uiso   1.00
H1177  H     0.60704   0.39517   0.93684   0.00000  Uiso   1.00
C1178  C     0.61734   0.40773   0.85445   0.00000  Uiso   1.00
H1179  H     0.64219   0.37972   0.84387   0.00000  Uiso   1.00
H1180  H     0.63867   0.43603   0.84178   0.00000  Uiso   1.00
H1181  H     0.59278   0.40484   0.83119   0.00000  Uiso   1.00
C1182  C     0.64705   0.45342   0.96996   0.00000  Uiso   1.00
H1183  H     0.33776   0.44018   0.98907   0.00000  Uiso   1.00
O1184  O     0.66330   0.46122   0.92159   0.00000  Uiso   1.00
N1185  N     0.57042   0.62046   0.66352   0.00000  Uiso   1.00
H1186  H     0.57412   0.63324   0.62642   0.00000  Uiso   1.00
C1187  C     0.61533   0.60444   0.66719   0.00000  Uiso   1.00
H1188  H     0.62034   0.57075   0.65505   0.00000  Uiso   1.00
H1189  H     0.61596   0.60786   0.70910   0.00000  Uiso   1.00
H1190  H     0.64593   0.62124   0.63895   0.00000  Uiso   1.00
C1191  C     0.83313   0.57975   0.74859   0.00000  Uiso   1.00
C1192  C     0.81109   0.49848   0.99188   0.00000  Uiso   1.00
C1193  C     0.81892   0.48404   0.93860   0.00000  Uiso   1.00
C1194  C     0.84840   0.49134   0.51310   0.00000  Uiso   1.00
C1195  C     0.89114   0.46708   0.98279   0.00000  Uiso   1.00
C1196  C     0.89229   0.44509   0.93479   0.00000  Uiso   1.00
C1197  C     0.85641   0.45443   0.91336   0.00000  Uiso   1.00
C1198  C     0.84400   0.50779   0.56415   0.00000  Uiso   1.00
C1199  C     0.92084   0.47737   0.55766   0.00000  Uiso   1.00
C1200  C     0.78857   0.49903   0.91151   0.00000  Uiso   1.00
C1201  C     0.87107   0.64327   0.70973   0.00000  Uiso   1.00
C1202  C     0.80645   0.49899   0.85216   0.00000  Uiso   1.00
C1203  C     0.87408   0.35276   0.71568   0.00000  Uiso   1.00
C1204  C     0.83492   0.37552   0.75380   0.00000  Uiso   1.00
C1205  C     0.79581   0.35548   0.79125   0.00000  Uiso   1.00
C1206  C     0.79535   0.64571   0.78754   0.00000  Uiso   1.00
C1207  C     0.83242   0.62371   0.74726   0.00000  Uiso   1.00
C1208  C     0.99015   0.48191   0.70701   0.00000  Uiso   1.00
C1209  C     0.70472   0.48244   0.70756   0.00000  Uiso   1.00
C1210  C     0.67722   0.51794   0.79220   0.00000  Uiso   1.00
C1211  C     0.96276   0.51869   0.79214   0.00000  Uiso   1.00
C1212  C     0.83369   0.42000   0.75142   0.00000  Uiso   1.00
C1213  C     0.86018   0.50022   0.64772   0.00000  Uiso   1.00
C1214  C     0.92975   0.46485   0.50346   0.00000  Uiso   1.00
C1215  C     0.87681   0.49662   0.58856   0.00000  Uiso   1.00
C1216  C     0.74512   0.52055   0.94067   0.00000  Uiso   1.00
C1217  C     0.73336   0.52944   0.99591   0.00000  Uiso   1.00
C1218  C     0.76641   0.51979   0.52117   0.00000  Uiso   1.00
H1219  H     0.94813   0.47242   0.57562   0.00000  Uiso   1.00
H1220  H     0.76686   0.62892   0.81677   0.00000  Uiso   1.00
H1221  H     0.73469   0.46851   0.67448   0.00000  Uiso   1.00
H1222  H     0.68462   0.53200   0.82612   0.00000  Uiso   1.00
H1223  H     0.81361   0.52753   0.58783   0.00000  Uiso   1.00
H1224  H     0.72118   0.53183   0.92037   0.00000  Uiso   1.00
H1225  H     0.75525   0.52886   0.56367   0.00000  Uiso   1.00
H1226  H     0.69955   0.54572   0.51868   0.00000  Uiso   1.00
H1227  H     0.85639   0.43717   0.87756   0.00000  Uiso   1.00
N1228  N     0.71426   0.50001   0.75002   0.00000  Uiso   1.00
N1229  N     0.95239   0.49998   0.75001   0.00000  Uiso   1.00
O1230  O     0.79512   0.56108   0.75000   0.00000  Uiso   1.00
O1231  O     0.87157   0.56107   0.75001   0.00000  Uiso   1.00
O1232  O     0.77613   0.50000   0.82681   0.00000  Uiso   1.00
O1233  O     0.85258   0.49999   0.82681   0.00000  Uiso   1.00
O1234  O     0.79510   0.43893   0.75000   0.00000  Uiso   1.00
O1235  O     0.87154   0.43892   0.75000   0.00000  Uiso   1.00
O1236  O     0.81409   0.50001   0.67319   0.00000  Uiso   1.00
O1237  O     0.89053   0.50000   0.67319   0.00000  Uiso   1.00
Zn1238 Zn    0.78229   0.50001   0.75000   0.00000  Uiso   1.00
Zn1239 Zn    0.88438   0.49999   0.75000   0.00000  Uiso   1.00
N1240  N     0.91803   0.37223   0.68773   0.00000  Uiso   1.00
H1241  H     0.93146   0.36656   0.64614   0.00000  Uiso   1.00
C1242  C     0.95400   0.36708   0.71340   0.00000  Uiso   1.00
H1243  H     0.98845   0.35423   0.68339   0.00000  Uiso   1.00
H1244  H     0.94257   0.34577   0.74848   0.00000  Uiso   1.00
H1245  H     0.96046   0.39765   0.72928   0.00000  Uiso   1.00
C1246  C     0.75752   0.37859   0.83659   0.00000  Uiso   1.00
H1247  H     0.76024   0.41156   0.84464   0.00000  Uiso   1.00
O1248  O     0.72267   0.36076   0.86644   0.00000  Uiso   1.00
N1249  N     0.98082   0.46289   0.66217   0.00000  Uiso   1.00
H1250  H     0.94844   0.44882   0.67285   0.00000  Uiso   1.00
C1251  C     0.68573   0.43985   0.61976   0.00000  Uiso   1.00
H1252  H     0.70119   0.41430   0.63750   0.00000  Uiso   1.00
H1253  H     0.71420   0.46120   0.59728   0.00000  Uiso   1.00
H1254  H     0.67133   0.42551   0.59012   0.00000  Uiso   1.00
N1255  N     0.92545   0.53766   0.83731   0.00000  Uiso   1.00
H1256  H     0.92442   0.52539   0.87388   0.00000  Uiso   1.00
C1257  C     0.92459   0.58287   0.83946   0.00000  Uiso   1.00
H1258  H     0.95741   0.59414   0.84550   0.00000  Uiso   1.00
H1259  H     0.89254   0.59472   0.87409   0.00000  Uiso   1.00
H1260  H     0.92213   0.59568   0.80146   0.00000  Uiso   1.00
N1261  N     0.92398   0.40952   0.91267   0.00000  Uiso   1.00
H1262  H     0.94038   0.39517   0.93684   0.00000  Uiso   1.00
C1263  C     0.95068   0.40773   0.85445   0.00000  Uiso   1.00
H1264  H     0.97552   0.37972   0.84387   0.00000  Uiso   1.00
H1265  H     0.97200   0.43603   0.84178   0.00000  Uiso   1.00
H1266  H     0.92611   0.40484   0.83119   0.00000  Uiso   1.00
C1267  C     0.98038   0.45342   0.96996   0.00000  Uiso   1.00
H1268  H     0.67110   0.44018   0.98907   0.00000  Uiso   1.00
O1269  O     0.99663   0.46122   0.92159   0.00000  Uiso   1.00
N1270  N     0.90375   0.62046   0.66352   0.00000  Uiso   1.00
H1271  H     0.90745   0.63324   0.62642   0.00000  Uiso   1.00
C1272  C     0.94866   0.60444   0.66719   0.00000  Uiso   1.00
H1273  H     0.95367   0.57075   0.65505   0.00000  Uiso   1.00
H1274  H     0.94929   0.60786   0.70910   0.00000  Uiso   1.00
H1275  H     0.97926   0.62124   0.63895   0.00000  Uiso   1.00
C1276  C     0.16647   0.91308   0.74859   0.00000  Uiso   1.00
C1277  C     0.14443   0.83181   0.99188   0.00000  Uiso   1.00
C1278  C     0.15225   0.81737   0.93860   0.00000  Uiso   1.00
C1279  C     0.18173   0.82467   0.51310   0.00000  Uiso   1.00
C1280  C     0.22447   0.80042   0.98279   0.00000  Uiso   1.00
C1281  C     0.22563   0.77843   0.93479   0.00000  Uiso   1.00
C1282  C     0.18974   0.78777   0.91336   0.00000  Uiso   1.00
C1283  C     0.17733   0.84112   0.56415   0.00000  Uiso   1.00
C1284  C     0.25417   0.81070   0.55766   0.00000  Uiso   1.00
C1285  C     0.12190   0.83236   0.91151   0.00000  Uiso   1.00
C1286  C     0.20440   0.97660   0.70973   0.00000  Uiso   1.00
C1287  C     0.13978   0.83232   0.85216   0.00000  Uiso   1.00
C1288  C     0.20741   0.68609   0.71568   0.00000  Uiso   1.00
C1289  C     0.16825   0.70885   0.75380   0.00000  Uiso   1.00
C1290  C     0.12914   0.68882   0.79125   0.00000  Uiso   1.00
C1291  C     0.12868   0.97905   0.78754   0.00000  Uiso   1.00
C1292  C     0.16575   0.95704   0.74726   0.00000  Uiso   1.00
C1293  C     0.32349   0.81525   0.70701   0.00000  Uiso   1.00
C1294  C     0.03806   0.81578   0.70756   0.00000  Uiso   1.00
C1295  C     0.01055   0.85127   0.79220   0.00000  Uiso   1.00
C1296  C     0.29609   0.85202   0.79214   0.00000  Uiso   1.00
C1297  C     0.16703   0.75334   0.75142   0.00000  Uiso   1.00
C1298  C     0.19351   0.83356   0.64772   0.00000  Uiso   1.00
C1299  C     0.26308   0.79818   0.50346   0.00000  Uiso   1.00
C1300  C     0.21015   0.82995   0.58856   0.00000  Uiso   1.00
C1301  C     0.07845   0.85388   0.94067   0.00000  Uiso   1.00
C1302  C     0.06670   0.86277   0.99591   0.00000  Uiso   1.00
C1303  C     0.09974   0.85313   0.52117   0.00000  Uiso   1.00
H1304  H     0.28147   0.80575   0.57562   0.00000  Uiso   1.00
H1305  H     0.10019   0.96226   0.81677   0.00000  Uiso   1.00
H1306  H     0.06802   0.80185   0.67448   0.00000  Uiso   1.00
H1307  H     0.01795   0.86533   0.82612   0.00000  Uiso   1.00
H1308  H     0.14694   0.86086   0.58783   0.00000  Uiso   1.00
H1309  H     0.05451   0.86516   0.92037   0.00000  Uiso   1.00
H1310  H     0.08858   0.86219   0.56367   0.00000  Uiso   1.00
H1311  H     0.03289   0.87906   0.51868   0.00000  Uiso   1.00
H1312  H     0.18972   0.77050   0.87756   0.00000  Uiso   1.00
N1313  N     0.04760   0.83334   0.75002   0.00000  Uiso   1.00
N1314  N     0.28573   0.83331   0.75001   0.00000  Uiso   1.00
O1315  O     0.12846   0.89442   0.75000   0.00000  Uiso   1.00
O1316  O     0.20490   0.89441   0.75001   0.00000  Uiso   1.00
O1317  O     0.10947   0.83333   0.82681   0.00000  Uiso   1.00
O1318  O     0.18591   0.83332   0.82681   0.00000  Uiso   1.00
O1319  O     0.12843   0.77226   0.75000   0.00000  Uiso   1.00
O1320  O     0.20488   0.77225   0.75000   0.00000  Uiso   1.00
O1321  O     0.14742   0.83335   0.67319   0.00000  Uiso   1.00
O1322  O     0.22387   0.83334   0.67319   0.00000  Uiso   1.00
Zn1323 Zn    0.11562   0.83334   0.75000   0.00000  Uiso   1.00
Zn1324 Zn    0.21771   0.83333   0.75000   0.00000  Uiso   1.00
N1325  N     0.25136   0.70557   0.68773   0.00000  Uiso   1.00
H1326  H     0.26479   0.69989   0.64614   0.00000  Uiso   1.00
C1327  C     0.28734   0.70041   0.71340   0.00000  Uiso   1.00
H1328  H     0.32178   0.68756   0.68339   0.00000  Uiso   1.00
H1329  H     0.27590   0.67911   0.74848   0.00000  Uiso   1.00
H1330  H     0.29380   0.73099   0.72928   0.00000  Uiso   1.00
C1331  C     0.09085   0.71192   0.83659   0.00000  Uiso   1.00
H1332  H     0.09357   0.74490   0.84464   0.00000  Uiso   1.00
O1333  O     0.05601   0.69409   0.86644   0.00000  Uiso   1.00
N1334  N     0.31415   0.79623   0.66217   0.00000  Uiso   1.00
H1335  H     0.28177   0.78216   0.67285   0.00000  Uiso   1.00
C1336  C     0.01906   0.77318   0.61976   0.00000  Uiso   1.00
H1337  H     0.03452   0.74763   0.63750   0.00000  Uiso   1.00
H1338  H     0.04753   0.79454   0.59728   0.00000  Uiso   1.00
H1339  H     0.00466   0.75884   0.59012   0.00000  Uiso   1.00
N1340  N     0.25878   0.87099   0.83731   0.00000  Uiso   1.00
H1341  H     0.25775   0.85873   0.87388   0.00000  Uiso   1.00
C1342  C     0.25792   0.91621   0.83946   0.00000  Uiso   1.00
H1343  H     0.29074   0.92747   0.84550   0.00000  Uiso   1.00
H1344  H     0.22587   0.92805   0.87409   0.00000  Uiso   1.00
H1345  H     0.25547   0.92902   0.80146   0.00000  Uiso   1.00
N1346  N     0.25731   0.74285   0.91267   0.00000  Uiso   1.00
H1347  H     0.27371   0.72850   0.93684   0.00000  Uiso   1.00
C1348  C     0.28401   0.74106   0.85445   0.00000  Uiso   1.00
H1349  H     0.30885   0.71305   0.84387   0.00000  Uiso   1.00
H1350  H     0.30534   0.76937   0.84178   0.00000  Uiso   1.00
H1351  H     0.25945   0.73818   0.83119   0.00000  Uiso   1.00
C1352  C     0.31372   0.78676   0.96996   0.00000  Uiso   1.00
H1353  H     0.00443   0.77351   0.98907   0.00000  Uiso   1.00
O1354  O     0.32996   0.79455   0.92159   0.00000  Uiso   1.00
N1355  N     0.23709   0.95380   0.66352   0.00000  Uiso   1.00
H1356  H     0.24079   0.96657   0.62642   0.00000  Uiso   1.00
C1357  C     0.28199   0.93777   0.66719   0.00000  Uiso   1.00
H1358  H     0.28701   0.90408   0.65505   0.00000  Uiso   1.00
H1359  H     0.28262   0.94119   0.70910   0.00000  Uiso   1.00
H1360  H     0.31259   0.95457   0.63895   0.00000  Uiso   1.00
C1361  C     0.49980   0.91308   0.74859   0.00000  Uiso   1.00
C1362  C     0.47776   0.83181   0.99188   0.00000  Uiso   1.00
C1363  C     0.48558   0.81737   0.93860   0.00000  Uiso   1.00
C1364  C     0.51506   0.82467   0.51310   0.00000  Uiso   1.00
C1365  C     0.55781   0.80042   0.98279   0.00000  Uiso   1.00
C1366  C     0.55896   0.77843   0.93479   0.00000  Uiso   1.00
C1367  C     0.52307   0.78777   0.91336   0.00000  Uiso   1.00
C1368  C     0.51067   0.84112   0.56415   0.00000  Uiso   1.00
C1369  C     0.58750   0.81070   0.55766   0.00000  Uiso   1.00
C1370  C     0.45524   0.83236   0.91151   0.00000  Uiso   1.00
C1371  C     0.53773   0.97660   0.70973   0.00000  Uiso   1.00
C1372  C     0.47311   0.83232   0.85216   0.00000  Uiso   1.00
C1373  C     0.54074   0.68609   0.71568   0.00000  Uiso   1.00
C1374  C     0.50159   0.70885   0.75380   0.00000  Uiso   1.00
C1375  C     0.46247   0.68882   0.79125   0.00000  Uiso   1.00
C1376  C     0.46202   0.97905   0.78754   0.00000  Uiso   1.00
C1377  C     0.49909   0.95704   0.74726   0.00000  Uiso   1.00
C1378  C     0.65682   0.81525   0.70701   0.00000  Uiso   1.00
C1379  C     0.37139   0.81578   0.70756   0.00000  Uiso   1.00
C1380  C     0.34388   0.85127   0.79220   0.00000  Uiso   1.00
C1381  C     0.62943   0.85202   0.79214   0.00000  Uiso   1.00
C1382  C     0.50036   0.75334   0.75142   0.00000  Uiso   1.00
C1383  C     0.52684   0.83356   0.64772   0.00000  Uiso   1.00
C1384  C     0.59641   0.79818   0.50346   0.00000  Uiso   1.00
C1385  C     0.54348   0.82995   0.58856   0.00000  Uiso   1.00
C1386  C     0.41178   0.85388   0.94067   0.00000  Uiso   1.00
C1387  C     0.40003   0.86277   0.99591   0.00000  Uiso   1.00
C1388  C     0.43308   0.85313   0.52117   0.00000  Uiso   1.00
H1389  H     0.61480   0.80575   0.57562   0.00000  Uiso   1.00
H1390  H     0.43353   0.96226   0.81677   0.00000  Uiso   1.00
H1391  H     0.40136   0.80185   0.67448   0.00000  Uiso   1.00
H1392  H     0.35129   0.86533   0.82612   0.00000  Uiso   1.00
H1393  H     0.48028   0.86086   0.58783   0.00000  Uiso   1.00
H1394  H     0.38784   0.86516   0.92037   0.00000  Uiso   1.00
H1395  H     0.42192   0.86219   0.56367   0.00000  Uiso   1.00
H1396  H     0.36622   0.87906   0.51868   0.00000  Uiso   1.00
H1397  H     0.52306   0.77050   0.87756   0.00000  Uiso   1.00
N1398  N     0.38093   0.83334   0.75002   0.00000  Uiso   1.00
N1399  N     0.61906   0.83331   0.75001   0.00000  Uiso   1.00
O1400  O     0.46179   0.89442   0.75000   0.00000  Uiso   1.00
O1401  O     0.53823   0.89441   0.75001   0.00000  Uiso   1.00
O1402  O     0.44280   0.83333   0.82681   0.00000  Uiso   1.00
O1403  O     0.51924   0.83332   0.82681   0.00000  Uiso   1.00
O1404  O     0.46177   0.77226   0.75000   0.00000  Uiso   1.00
O1405  O     0.53821   0.77225   0.75000   0.00000  Uiso   1.00
O1406  O     0.48076   0.83335   0.67319   0.00000  Uiso   1.00
O1407  O     0.55720   0.83334   0.67319   0.00000  Uiso   1.00
Zn1408 Zn    0.44896   0.83334   0.75000   0.00000  Uiso   1.00
Zn1409 Zn    0.55104   0.83333   0.75000   0.00000  Uiso   1.00
N1410  N     0.58470   0.70557   0.68773   0.00000  Uiso   1.00
H1411  H     0.59813   0.69989   0.64614   0.00000  Uiso   1.00
C1412  C     0.62067   0.70041   0.71340   0.00000  Uiso   1.00
H1413  H     0.65511   0.68756   0.68339   0.00000  Uiso   1.00
H1414  H     0.60923   0.67911   0.74848   0.00000  Uiso   1.00
H1415  H     0.62713   0.73099   0.72928   0.00000  Uiso   1.00
C1416  C     0.42419   0.71192   0.83659   0.00000  Uiso   1.00
H1417  H     0.42690   0.74490   0.84464   0.00000  Uiso   1.00
O1418  O     0.38934   0.69409   0.86644   0.00000  Uiso   1.00
N1419  N     0.64749   0.79623   0.66217   0.00000  Uiso   1.00
H1420  H     0.61510   0.78216   0.67285   0.00000  Uiso   1.00
C1421  C     0.35240   0.77318   0.61976   0.00000  Uiso   1.00
H1422  H     0.36786   0.74763   0.63750   0.00000  Uiso   1.00
H1423  H     0.38086   0.79454   0.59728   0.00000  Uiso   1.00
H1424  H     0.33800   0.75884   0.59012   0.00000  Uiso   1.00
N1425  N     0.59211   0.87099   0.83731   0.00000  Uiso   1.00
H1426  H     0.59109   0.85873   0.87388   0.00000  Uiso   1.00
C1427  C     0.59125   0.91621   0.83946   0.00000  Uiso   1.00
H1428  H     0.62407   0.92747   0.84550   0.00000  Uiso   1.00
H1429  H     0.55921   0.92805   0.87409   0.00000  Uiso   1.00
H1430  H     0.58880   0.92902   0.80146   0.00000  Uiso   1.00
N1431  N     0.59065   0.74285   0.91267   0.00000  Uiso   1.00
H1432  H     0.60704   0.72850   0.93684   0.00000  Uiso   1.00
C1433  C     0.61734   0.74106   0.85445   0.00000  Uiso   1.00
H1434  H     0.64219   0.71305   0.84387   0.00000  Uiso   1.00
H1435  H     0.63867   0.76937   0.84178   0.00000  Uiso   1.00
H1436  H     0.59278   0.73818   0.83119   0.00000  Uiso   1.00
C1437  C     0.64705   0.78676   0.96996   0.00000  Uiso   1.00
H1438  H     0.33776   0.77351   0.98907   0.00000  Uiso   1.00
O1439  O     0.66330   0.79455   0.92159   0.00000  Uiso   1.00
N1440  N     0.57042   0.95380   0.66352   0.00000  Uiso   1.00
H1441  H     0.57412   0.96657   0.62642   0.00000  Uiso   1.00
C1442  C     0.61533   0.93777   0.66719   0.00000  Uiso   1.00
H1443  H     0.62034   0.90408   0.65505   0.00000  Uiso   1.00
H1444  H     0.61596   0.94119   0.70910   0.00000  Uiso   1.00
H1445  H     0.64593   0.95457   0.63895   0.00000  Uiso   1.00
C1446  C     0.83313   0.91308   0.74859   0.00000  Uiso   1.00
C1447  C     0.81109   0.83181   0.99188   0.00000  Uiso   1.00
C1448  C     0.81892   0.81737   0.93860   0.00000  Uiso   1.00
C1449  C     0.84840   0.82467   0.51310   0.00000  Uiso   1.00
C1450  C     0.89114   0.80042   0.98279   0.00000  Uiso   1.00
C1451  C     0.89229   0.77843   0.93479   0.00000  Uiso   1.00
C1452  C     0.85641   0.78777   0.91336   0.00000  Uiso   1.00
C1453  C     0.84400   0.84112   0.56415   0.00000  Uiso   1.00
C1454  C     0.92084   0.81070   0.55766   0.00000  Uiso   1.00
C1455  C     0.78857   0.83236   0.91151   0.00000  Uiso   1.00
C1456  C     0.87107   0.97660   0.70973   0.00000  Uiso   1.00
C1457  C     0.80645   0.83232   0.85216   0.00000  Uiso   1.00
C1458  C     0.87408   0.68609   0.71568   0.00000  Uiso   1.00
C1459  C     0.83492   0.70885   0.75380   0.00000  Uiso   1.00
C1460  C     0.79581   0.68882   0.79125   0.00000  Uiso   1.00
C1461  C     0.79535   0.97905   0.78754   0.00000  Uiso   1.00
C1462  C     0.83242   0.95704   0.74726   0.00000  Uiso   1.00
C1463  C     0.99015   0.81525   0.70701   0.00000  Uiso   1.00
C1464  C     0.70472   0.81578   0.70756   0.00000  Uiso   1.00
C1465  C     0.67722   0.85127   0.79220   0.00000  Uiso   1.00
C1466  C     0.96276   0.85202   0.79214   0.00000  Uiso   1.00
C1467  C     0.83369   0.75334   0.75142   0.00000  Uiso   1.00
C1468  C     0.86018   0.83356   0.64772   0.00000  Uiso   1.00
C1469  C     0.92975   0.79818   0.50346   0.00000  Uiso   1.00
C1470  C     0.87681   0.82995   0.58856   0.00000  Uiso   1.00
C1471  C     0.74512   0.85388   0.94067   0.00000  Uiso   1.00
C1472  C     0.73336   0.86277   0.99591   0.00000  Uiso   1.00
C1473  C     0.76641   0.85313   0.52117   0.00000  Uiso   1.00
H1474  H     0.94813   0.80575   0.57562   0.00000  Uiso   1.00
H1475  H     0.76686   0.96226   0.81677   0.00000  Uiso   1.00
H1476  H     0.73469   0.80185   0.67448   0.00000  Uiso   1.00
H1477  H     0.68462   0.86533   0.82612   0.00000  Uiso   1.00
H1478  H     0.81361   0.86086   0.58783   0.00000  Uiso   1.00
H1479  H     0.72118   0.86516   0.92037   0.00000  Uiso   1.00
H1480  H     0.75525   0.86219   0.56367   0.00000  Uiso   1.00
H1481  H     0.69955   0.87906   0.51868   0.00000  Uiso   1.00
H1482  H     0.85639   0.77050   0.87756   0.00000  Uiso   1.00
N1483  N     0.71426   0.83334   0.75002   0.00000  Uiso   1.00
N1484  N     0.95239   0.83331   0.75001   0.00000  Uiso   1.00
O1485  O     0.79512   0.89442   0.75000   0.00000  Uiso   1.00
O1486  O     0.87157   0.89441   0.75001   0.00000  Uiso   1.00
O1487  O     0.77613   0.83333   0.82681   0.00000  Uiso   1.00
O1488  O     0.85258   0.83332   0.82681   0.00000  Uiso   1.00
O1489  O     0.79510   0.77226   0.75000   0.00000  Uiso   1.00
O1490  O     0.87154   0.77225   0.75000   0.00000  Uiso   1.00
O1491  O     0.81409   0.83335   0.67319   0.00000  Uiso   1.00
O1492  O     0.89053   0.83334   0.67319   0.00000  Uiso   1.00
Zn1493 Zn    0.78229   0.83334   0.75000   0.00000  Uiso   1.00
Zn1494 Zn    0.88438   0.83333   0.75000   0.00000  Uiso   1.00
N1495  N     0.91803   0.70557   0.68773   0.00000  Uiso   1.00
H1496  H     0.93146   0.69989   0.64614   0.00000  Uiso   1.00
C1497  C     0.95400   0.70041   0.71340   0.00000  Uiso   1.00
H1498  H     0.98845   0.68756   0.68339   0.00000  Uiso   1.00
H1499  H     0.94257   0.67911   0.74848   0.00000  Uiso   1.00
H1500  H     0.96046   0.73099   0.72928   0.00000  Uiso   1.00
C1501  C     0.75752   0.71192   0.83659   0.00000  Uiso   1.00
H1502  H     0.76024   0.74490   0.84464   0.00000  Uiso   1.00
O1503  O     0.72267   0.69409   0.86644   0.00000  Uiso   1.00
N1504  N     0.98082   0.79623   0.66217   0.00000  Uiso   1.00
H1505  H     0.94844   0.78216   0.67285   0.00000  Uiso   1.00
C1506  C     0.68573   0.77318   0.61976   0.00000  Uiso   1.00
H1507  H     0.70119   0.74763   0.63750   0.00000  Uiso   1.00
H1508  H     0.71420   0.79454   0.59728   0.00000  Uiso   1.00
H1509  H     0.67133   0.75884   0.59012   0.00000  Uiso   1.00
N1510  N     0.92545   0.87099   0.83731   0.00000  Uiso   1.00
H1511  H     0.92442   0.85873   0.87388   0.00000  Uiso   1.00
C1512  C     0.92459   0.91621   0.83946   0.00000  Uiso   1.00
H1513  H     0.95741   0.92747   0.84550   0.00000  Uiso   1.00
H1514  H     0.89254   0.92805   0.87409   0.00000  Uiso   1.00
H1515  H     0.92213   0.92902   0.80146   0.00000  Uiso   1.00
N1516  N     0.92398   0.74285   0.91267   0.00000  Uiso   1.00
H1517  H     0.94038   0.72850   0.93684   0.00000  Uiso   1.00
C1518  C     0.95068   0.74106   0.85445   0.00000  Uiso   1.00
H1519  H     0.97552   0.71305   0.84387   0.00000  Uiso   1.00
H1520  H     0.97200   0.76937   0.84178   0.00000  Uiso   1.00
H1521  H     0.92611   0.73818   0.83119   0.00000  Uiso   1.00
C1522  C     0.98038   0.78676   0.96996   0.00000  Uiso   1.00
H1523  H     0.67110   0.77351   0.98907   0.00000  Uiso   1.00
O1524  O     0.99663   0.79455   0.92159   0.00000  Uiso   1.00
N1525  N     0.90375   0.95380   0.66352   0.00000  Uiso   1.00
H1526  H     0.90745   0.96657   0.62642   0.00000  Uiso   1.00
C1527  C     0.94866   0.93777   0.66719   0.00000  Uiso   1.00
H1528  H     0.95367   0.90408   0.65505   0.00000  Uiso   1.00
H1529  H     0.94929   0.94119   0.70910   0.00000  Uiso   1.00
H1530  H     0.97926   0.95457   0.63895   0.00000  Uiso   1.00
loop_
_geom_bond_atom_site_label_1
_geom_bond_atom_site_label_2
_geom_bond_distance
_geom_bond_site_symmetry_2
_ccdc_geom_bond_type
C1     O40     1.284   .     A
C1     O41     1.284   .     A
C1     C17     1.407   .     S
C2     C3      1.400   .     A
C2     C769    1.418   .     S
C2     C793    1.424   .     S
C3     C7      1.404   .     A
C3     C10     1.406   .     A
C4     C8      1.390   .     A
C4     C767    1.418   1_554 S
C4     C770    1.434   1_554 S
C5     C6      1.421   .     A
C5     C769    1.434   .     S
C5     C789    1.430   .     S
C6     N71     1.430   .     S
C6     C7      1.395   .     A
C7     H37     1.081   .     S
C8     C25     1.382   .     A
C8     H33     1.076   .     S
C9     C25     1.391   .     A
C9     H29     1.080   .     S
C9     C24     1.399   .     A
C10    C26     1.400   .     A
C10    C12     1.456   .     S
C11    C17     1.396   .     A
C11    N80     1.429   .     S
C11    C268    1.386   .     S
C12    O43     1.298   .     A
C12    O42     1.293   .     A
C13    C14     1.410   .     A
C13    N50     1.423   .     S
C13    C521    1.386   1_545 S
C14    C22     1.426   .     S
C14    C15     1.411   .     A
C15    C56     1.491   .     S
C15    C526    1.382   1_545 S
C16    H30     1.085   .     S
C16    C17     1.391   .     A
C16    C270    1.382   .     S
C18    N39     1.383   .     A
C18    N59     1.430   .     S
C18    C104    1.429   .     S
C19    H31     1.079   .     S
C19    N38     1.358   .     A
C19    C188    1.429   1_455 S
C20    N38     1.359   .     A
C20    H32     1.082   .     S
C20    C191    1.420   1_455 S
C21    N39     1.379   .     A
C21    N65     1.418   .     S
C21    C105    1.420   .     S
C22    O44     1.292   .     A
C22    O45     1.283   .     A
C23    O46     1.296   .     A
C23    O47     1.296   .     A
C23    C25     1.453   .     S
C24    C770    1.430   1_554 S
C24    C842    1.481   1_554 S
C26    C27     1.387   .     A
C26    H34     1.083   .     S
C27    C793    1.393   .     S
C27    H801    1.083   .     S
C28    H35     1.076   .     S
C28    C792    1.393   1_554 S
C28    C767    1.424   1_554 S
H36    C792    1.083   1_554 S
N38    Zn48    2.021   .     S
N39    Zn49    2.021   .     S
O40    Zn48    2.003   .     S
O41    Zn49    1.979   .     S
O42    Zn48    1.955   .     S
O43    Zn49    1.899   .     S
O44    Zn48    1.979   .     S
O45    Zn49    2.003   .     S
O46    Zn48    1.899   .     S
O47    Zn49    1.955   .     S
N50    C52     1.455   .     S
N50    H51     1.031   .     S
C52    H55     1.106   .     S
C52    H54     1.113   .     S
C52    H53     1.110   .     S
C56    H57     1.084   .     S
C56    O58     1.221   .     D
N59    H60     1.024   .     S
N59    C146    1.451   .     S
C61    H63     1.108   .     S
C61    H64     1.110   .     S
C61    H62     1.110   .     S
C61    N229    1.451   1_455 S
N65    C67     1.446   .     S
N65    H66     1.032   .     S
C67    H68     1.111   .     S
C67    H69     1.110   .     S
C67    H70     1.107   .     S
N71    C73     1.450   .     S
N71    H72     1.030   .     S
C73    H74     1.110   .     S
C73    H75     1.109   .     S
C73    H76     1.108   .     S
C77    O79     1.220   .     D
C77    C789    1.481   .     S
C77    H163    1.086   .     S
H78    C247    1.086   1_455 S
N80    C82     1.449   .     S
N80    H81     1.031   .     S
C82    H84     1.108   .     S
C82    H85     1.111   .     S
C82    H83     1.110   .     S
C86    O125    1.284   .     A
C86    O126    1.284   .     A
C86    C102    1.407   .     S
C87    C88     1.400   .     A
C87    C854    1.418   .     S
C87    C878    1.424   .     S
C88    C92     1.404   .     A
C88    C95     1.406   .     A
C89    C93     1.390   .     A
C89    C852    1.418   1_554 S
C89    C855    1.434   1_554 S
C90    C91     1.421   .     A
C90    C854    1.434   .     S
C90    C874    1.430   .     S
C91    N156    1.430   .     S
C91    C92     1.395   .     A
C92    H122    1.081   .     S
C93    C110    1.382   .     A
C93    H118    1.076   .     S
C94    C110    1.391   .     A
C94    H114    1.080   .     S
C94    C109    1.399   .     A
C95    C111    1.400   .     A
C95    C97     1.456   .     S
C96    C102    1.396   .     A
C96    N165    1.429   .     S
C96    C353    1.386   .     S
C97    O128    1.298   .     A
C97    O127    1.293   .     A
C98    C99     1.410   .     A
C98    N135    1.423   .     S
C98    C606    1.386   1_545 S
C99    C107    1.426   .     S
C99    C100    1.411   .     A
C100   C141    1.491   .     S
C100   C611    1.382   1_545 S
C101   H115    1.085   .     S
C101   C102    1.391   .     A
C101   C355    1.382   .     S
C103   N124    1.383   .     A
C103   N144    1.430   .     S
C103   C189    1.429   .     S
C104   H116    1.079   .     S
C104   N123    1.358   .     A
C105   N123    1.359   .     A
C105   H117    1.082   .     S
C106   N124    1.379   .     A
C106   N150    1.418   .     S
C106   C190    1.420   .     S
C107   O129    1.292   .     A
C107   O130    1.283   .     A
C108   O131    1.296   .     A
C108   O132    1.296   .     A
C108   C110    1.453   .     S
C109   C855    1.430   1_554 S
C109   C927    1.481   1_554 S
C111   C112    1.387   .     A
C111   H119    1.083   .     S
C112   C878    1.393   .     S
C112   H886    1.083   .     S
C113   H120    1.076   .     S
C113   C877    1.393   1_554 S
C113   C852    1.424   1_554 S
H121   C877    1.083   1_554 S
N123   Zn133   2.021   .     S
N124   Zn134   2.021   .     S
O125   Zn133   2.003   .     S
O126   Zn134   1.979   .     S
O127   Zn133   1.955   .     S
O128   Zn134   1.899   .     S
O129   Zn133   1.979   .     S
O130   Zn134   2.003   .     S
O131   Zn133   1.899   .     S
O132   Zn134   1.955   .     S
N135   C137    1.455   .     S
N135   H136    1.031   .     S
C137   H140    1.106   .     S
C137   H139    1.113   .     S
C137   H138    1.110   .     S
C141   H142    1.084   .     S
C141   O143    1.221   .     D
N144   H145    1.024   .     S
N144   C231    1.451   .     S
C146   H148    1.108   .     S
C146   H149    1.110   .     S
C146   H147    1.110   .     S
N150   C152    1.446   .     S
N150   H151    1.032   .     S
C152   H153    1.111   .     S
C152   H154    1.110   .     S
C152   H155    1.107   .     S
N156   C158    1.450   .     S
N156   H157    1.030   .     S
C158   H159    1.110   .     S
C158   H160    1.109   .     S
C158   H161    1.108   .     S
C162   O164    1.220   .     D
C162   C874    1.481   .     S
C162   H248    1.086   .     S
N165   C167    1.449   .     S
N165   H166    1.031   .     S
C167   H169    1.108   .     S
C167   H170    1.111   .     S
C167   H168    1.110   .     S
C171   O210    1.284   .     A
C171   O211    1.284   .     A
C171   C187    1.407   .     S
C172   C173    1.400   .     A
C172   C939    1.418   .     S
C172   C963    1.424   .     S
C173   C177    1.404   .     A
C173   C180    1.406   .     A
C174   C178    1.390   .     A
C174   C937    1.418   1_554 S
C174   C940    1.434   1_554 S
C175   C176    1.421   .     A
C175   C939    1.434   .     S
C175   C959    1.430   .     S
C176   N241    1.430   .     S
C176   C177    1.395   .     A
C177   H207    1.081   .     S
C178   C195    1.382   .     A
C178   H203    1.076   .     S
C179   C195    1.391   .     A
C179   H199    1.080   .     S
C179   C194    1.399   .     A
C180   C196    1.400   .     A
C180   C182    1.456   .     S
C181   C187    1.396   .     A
C181   N250    1.429   .     S
C181   C438    1.386   .     S
C182   O213    1.298   .     A
C182   O212    1.293   .     A
C183   C184    1.410   .     A
C183   N220    1.423   .     S
C183   C691    1.386   1_545 S
C184   C192    1.426   .     S
C184   C185    1.411   .     A
C185   C226    1.491   .     S
C185   C696    1.382   1_545 S
C186   H200    1.085   .     S
C186   C187    1.391   .     A
C186   C440    1.382   .     S
C188   N209    1.383   .     A
C188   N229    1.430   .     S
C188   C19     1.429   1_655 S
C189   H201    1.079   .     S
C189   N208    1.358   .     A
C190   N208    1.359   .     A
C190   H202    1.082   .     S
C191   N209    1.379   .     A
C191   N235    1.418   .     S
C191   C20     1.420   1_655 S
C192   O214    1.292   .     A
C192   O215    1.283   .     A
C193   O216    1.296   .     A
C193   O217    1.296   .     A
C193   C195    1.453   .     S
C194   C940    1.430   1_554 S
C194   C1012   1.481   1_554 S
C196   C197    1.387   .     A
C196   H204    1.083   .     S
C197   C963    1.393   .     S
C197   H971    1.083   .     S
C198   H205    1.076   .     S
C198   C962    1.393   1_554 S
C198   C937    1.424   1_554 S
H206   C962    1.083   1_554 S
N208   Zn218   2.021   .     S
N209   Zn219   2.021   .     S
O210   Zn218   2.003   .     S
O211   Zn219   1.979   .     S
O212   Zn218   1.955   .     S
O213   Zn219   1.899   .     S
O214   Zn218   1.979   .     S
O215   Zn219   2.003   .     S
O216   Zn218   1.899   .     S
O217   Zn219   1.955   .     S
N220   C222    1.455   .     S
N220   H221    1.031   .     S
C222   H225    1.106   .     S
C222   H224    1.113   .     S
C222   H223    1.110   .     S
C226   H227    1.084   .     S
C226   O228    1.221   .     D
N229   H230    1.024   .     S
N229   C61     1.451   1_655 S
C231   H233    1.108   .     S
C231   H234    1.110   .     S
C231   H232    1.110   .     S
N235   C237    1.446   .     S
N235   H236    1.032   .     S
C237   H238    1.111   .     S
C237   H239    1.110   .     S
C237   H240    1.107   .     S
N241   C243    1.450   .     S
N241   H242    1.030   .     S
C243   H244    1.110   .     S
C243   H245    1.109   .     S
C243   H246    1.108   .     S
C247   O249    1.220   .     D
C247   C959    1.481   .     S
C247   H78     1.086   1_655 S
N250   C252    1.449   .     S
N250   H251    1.031   .     S
C252   H254    1.108   .     S
C252   H255    1.111   .     S
C252   H253    1.110   .     S
C256   O295    1.284   .     A
C256   O296    1.284   .     A
C256   C272    1.407   .     S
C257   C258    1.400   .     A
C257   C1024   1.418   .     S
C257   C1048   1.424   .     S
C258   C262    1.404   .     A
C258   C265    1.406   .     A
C259   C263    1.390   .     A
C259   C1022   1.418   1_554 S
C259   C1025   1.434   1_554 S
C260   C261    1.421   .     A
C260   C1024   1.434   .     S
C260   C1044   1.430   .     S
C261   N326    1.430   .     S
C261   C262    1.395   .     A
C262   H292    1.081   .     S
C263   C280    1.382   .     A
C263   H288    1.076   .     S
C264   C280    1.391   .     A
C264   H284    1.080   .     S
C264   C279    1.399   .     A
C265   C281    1.400   .     A
C265   C267    1.456   .     S
C266   C272    1.396   .     A
C266   N335    1.429   .     S
C266   C523    1.386   .     S
C267   O298    1.298   .     A
C267   O297    1.293   .     A
C268   C269    1.410   .     A
C268   N305    1.423   .     S
C269   C277    1.426   .     S
C269   C270    1.411   .     A
C270   C311    1.491   .     S
C271   H285    1.085   .     S
C271   C272    1.391   .     A
C271   C525    1.382   .     S
C273   N294    1.383   .     A
C273   N314    1.430   .     S
C273   C359    1.429   .     S
C274   H286    1.079   .     S
C274   N293    1.358   .     A
C274   C443    1.429   1_455 S
C275   N293    1.359   .     A
C275   H287    1.082   .     S
C275   C446    1.420   1_455 S
C276   N294    1.379   .     A
C276   N320    1.418   .     S
C276   C360    1.420   .     S
C277   O299    1.292   .     A
C277   O300    1.283   .     A
C278   O301    1.296   .     A
C278   O302    1.296   .     A
C278   C280    1.453   .     S
C279   C1025   1.430   1_554 S
C279   C1097   1.481   1_554 S
C281   C282    1.387   .     A
C281   H289    1.083   .     S
C282   C1048   1.393   .     S
C282   H1056   1.083   .     S
C283   H290    1.076   .     S
C283   C1047   1.393   1_554 S
C283   C1022   1.424   1_554 S
H291   C1047   1.083   1_554 S
N293   Zn303   2.021   .     S
N294   Zn304   2.021   .     S
O295   Zn303   2.003   .     S
O296   Zn304   1.979   .     S
O297   Zn303   1.955   .     S
O298   Zn304   1.899   .     S
O299   Zn303   1.979   .     S
O300   Zn304   2.003   .     S
O301   Zn303   1.899   .     S
O302   Zn304   1.955   .     S
N305   C307    1.455   .     S
N305   H306    1.031   .     S
C307   H310    1.106   .     S
C307   H309    1.113   .     S
C307   H308    1.110   .     S
C311   H312    1.084   .     S
C311   O313    1.221   .     D
N314   H315    1.024   .     S
N314   C401    1.451   .     S
C316   H318    1.108   .     S
C316   H319    1.110   .     S
C316   H317    1.110   .     S
C316   N484    1.451   1_455 S
N320   C322    1.446   .     S
N320   H321    1.032   .     S
C322   H323    1.111   .     S
C322   H324    1.110   .     S
C322   H325    1.107   .     S
N326   C328    1.450   .     S
N326   H327    1.030   .     S
C328   H329    1.110   .     S
C328   H330    1.109   .     S
C328   H331    1.108   .     S
C332   O334    1.220   .     D
C332   C1044   1.481   .     S
C332   H418    1.086   .     S
H333   C502    1.086   1_455 S
N335   C337    1.449   .     S
N335   H336    1.031   .     S
C337   H339    1.108   .     S
C337   H340    1.111   .     S
C337   H338    1.110   .     S
C341   O380    1.284   .     A
C341   O381    1.284   .     A
C341   C357    1.407   .     S
C342   C343    1.400   .     A
C342   C1109   1.418   .     S
C342   C1133   1.424   .     S
C343   C347    1.404   .     A
C343   C350    1.406   .     A
C344   C348    1.390   .     A
C344   C1107   1.418   1_554 S
C344   C1110   1.434   1_554 S
C345   C346    1.421   .     A
C345   C1109   1.434   .     S
C345   C1129   1.430   .     S
C346   N411    1.430   .     S
C346   C347    1.395   .     A
C347   H377    1.081   .     S
C348   C365    1.382   .     A
C348   H373    1.076   .     S
C349   C365    1.391   .     A
C349   H369    1.080   .     S
C349   C364    1.399   .     A
C350   C366    1.400   .     A
C350   C352    1.456   .     S
C351   C357    1.396   .     A
C351   N420    1.429   .     S
C351   C608    1.386   .     S
C352   O383    1.298   .     A
C352   O382    1.293   .     A
C353   C354    1.410   .     A
C353   N390    1.423   .     S
C354   C362    1.426   .     S
C354   C355    1.411   .     A
C355   C396    1.491   .     S
C356   H370    1.085   .     S
C356   C357    1.391   .     A
C356   C610    1.382   .     S
C358   N379    1.383   .     A
C358   N399    1.430   .     S
C358   C444    1.429   .     S
C359   H371    1.079   .     S
C359   N378    1.358   .     A
C360   N378    1.359   .     A
C360   H372    1.082   .     S
C361   N379    1.379   .     A
C361   N405    1.418   .     S
C361   C445    1.420   .     S
C362   O384    1.292   .     A
C362   O385    1.283   .     A
C363   O386    1.296   .     A
C363   O387    1.296   .     A
C363   C365    1.453   .     S
C364   C1110   1.430   1_554 S
C364   C1182   1.481   1_554 S
C366   C367    1.387   .     A
C366   H374    1.083   .     S
C367   C1133   1.393   .     S
C367   H1141   1.083   .     S
C368   H375    1.076   .     S
C368   C1132   1.393   1_554 S
C368   C1107   1.424   1_554 S
H376   C1132   1.083   1_554 S
N378   Zn388   2.021   .     S
N379   Zn389   2.021   .     S
O380   Zn388   2.003   .     S
O381   Zn389   1.979   .     S
O382   Zn388   1.955   .     S
O383   Zn389   1.899   .     S
O384   Zn388   1.979   .     S
O385   Zn389   2.003   .     S
O386   Zn388   1.899   .     S
O387   Zn389   1.955   .     S
N390   C392    1.455   .     S
N390   H391    1.031   .     S
C392   H395    1.106   .     S
C392   H394    1.113   .     S
C392   H393    1.110   .     S
C396   H397    1.084   .     S
C396   O398    1.221   .     D
N399   H400    1.024   .     S
N399   C486    1.451   .     S
C401   H403    1.108   .     S
C401   H404    1.110   .     S
C401   H402    1.110   .     S
N405   C407    1.446   .     S
N405   H406    1.032   .     S
C407   H408    1.111   .     S
C407   H409    1.110   .     S
C407   H410    1.107   .     S
N411   C413    1.450   .     S
N411   H412    1.030   .     S
C413   H414    1.110   .     S
C413   H415    1.109   .     S
C413   H416    1.108   .     S
C417   O419    1.220   .     D
C417   C1129   1.481   .     S
C417   H503    1.086   .     S
N420   C422    1.449   .     S
N420   H421    1.031   .     S
C422   H424    1.108   .     S
C422   H425    1.111   .     S
C422   H423    1.110   .     S
C426   O465    1.284   .     A
C426   O466    1.284   .     A
C426   C442    1.407   .     S
C427   C428    1.400   .     A
C427   C1194   1.418   .     S
C427   C1218   1.424   .     S
C428   C432    1.404   .     A
C428   C435    1.406   .     A
C429   C433    1.390   .     A
C429   C1192   1.418   1_554 S
C429   C1195   1.434   1_554 S
C430   C431    1.421   .     A
C430   C1194   1.434   .     S
C430   C1214   1.430   .     S
C431   N496    1.430   .     S
C431   C432    1.395   .     A
C432   H462    1.081   .     S
C433   C450    1.382   .     A
C433   H458    1.076   .     S
C434   C450    1.391   .     A
C434   H454    1.080   .     S
C434   C449    1.399   .     A
C435   C451    1.400   .     A
C435   C437    1.456   .     S
C436   C442    1.396   .     A
C436   N505    1.429   .     S
C436   C693    1.386   .     S
C437   O468    1.298   .     A
C437   O467    1.293   .     A
C438   C439    1.410   .     A
C438   N475    1.423   .     S
C439   C447    1.426   .     S
C439   C440    1.411   .     A
C440   C481    1.491   .     S
C441   H455    1.085   .     S
C441   C442    1.391   .     A
C441   C695    1.382   .     S
C443   N464    1.383   .     A
C443   N484    1.430   .     S
C443   C274    1.429   1_655 S
C444   H456    1.079   .     S
C444   N463    1.358   .     A
C445   N463    1.359   .     A
C445   H457    1.082   .     S
C446   N464    1.379   .     A
C446   N490    1.418   .     S
C446   C275    1.420   1_655 S
C447   O469    1.292   .     A
C447   O470    1.283   .     A
C448   O471    1.296   .     A
C448   O472    1.296   .     A
C448   C450    1.453   .     S
C449   C1195   1.430   1_554 S
C449   C1267   1.481   1_554 S
C451   C452    1.387   .     A
C451   H459    1.083   .     S
C452   C1218   1.393   .     S
C452   H1226   1.083   .     S
C453   H460    1.076   .     S
C453   C1217   1.393   1_554 S
C453   C1192   1.424   1_554 S
H461   C1217   1.083   1_554 S
N463   Zn473   2.021   .     S
N464   Zn474   2.021   .     S
O465   Zn473   2.003   .     S
O466   Zn474   1.979   .     S
O467   Zn473   1.955   .     S
O468   Zn474   1.899   .     S
O469   Zn473   1.979   .     S
O470   Zn474   2.003   .     S
O471   Zn473   1.899   .     S
O472   Zn474   1.955   .     S
N475   C477    1.455   .     S
N475   H476    1.031   .     S
C477   H480    1.106   .     S
C477   H479    1.113   .     S
C477   H478    1.110   .     S
C481   H482    1.084   .     S
C481   O483    1.221   .     D
N484   H485    1.024   .     S
N484   C316    1.451   1_655 S
C486   H488    1.108   .     S
C486   H489    1.110   .     S
C486   H487    1.110   .     S
N490   C492    1.446   .     S
N490   H491    1.032   .     S
C492   H493    1.111   .     S
C492   H494    1.110   .     S
C492   H495    1.107   .     S
N496   C498    1.450   .     S
N496   H497    1.030   .     S
C498   H499    1.110   .     S
C498   H500    1.109   .     S
C498   H501    1.108   .     S
C502   O504    1.220   .     D
C502   C1214   1.481   .     S
C502   H333    1.086   1_655 S
N505   C507    1.449   .     S
N505   H506    1.031   .     S
C507   H509    1.108   .     S
C507   H510    1.111   .     S
C507   H508    1.110   .     S
C511   O550    1.284   .     A
C511   O551    1.284   .     A
C511   C527    1.407   .     S
C512   C513    1.400   .     A
C512   C1279   1.418   .     S
C512   C1303   1.424   .     S
C513   C517    1.404   .     A
C513   C520    1.406   .     A
C514   C518    1.390   .     A
C514   C1277   1.418   1_554 S
C514   C1280   1.434   1_554 S
C515   C516    1.421   .     A
C515   C1279   1.434   .     S
C515   C1299   1.430   .     S
C516   N581    1.430   .     S
C516   C517    1.395   .     A
C517   H547    1.081   .     S
C518   C535    1.382   .     A
C518   H543    1.076   .     S
C519   C535    1.391   .     A
C519   H539    1.080   .     S
C519   C534    1.399   .     A
C520   C536    1.400   .     A
C520   C522    1.456   .     S
C521   C527    1.396   .     A
C521   N590    1.429   .     S
C521   C13     1.386   1_565 S
C522   O553    1.298   .     A
C522   O552    1.293   .     A
C523   C524    1.410   .     A
C523   N560    1.423   .     S
C524   C532    1.426   .     S
C524   C525    1.411   .     A
C525   C566    1.491   .     S
C526   H540    1.085   .     S
C526   C527    1.391   .     A
C526   C15     1.382   1_565 S
C528   N549    1.383   .     A
C528   N569    1.430   .     S
C528   C614    1.429   .     S
C529   H541    1.079   .     S
C529   N548    1.358   .     A
C529   C698    1.429   1_455 S
C530   N548    1.359   .     A
C530   H542    1.082   .     S
C530   C701    1.420   1_455 S
C531   N549    1.379   .     A
C531   N575    1.418   .     S
C531   C615    1.420   .     S
C532   O554    1.292   .     A
C532   O555    1.283   .     A
C533   O556    1.296   .     A
C533   O557    1.296   .     A
C533   C535    1.453   .     S
C534   C1280   1.430   1_554 S
C534   C1352   1.481   1_554 S
C536   C537    1.387   .     A
C536   H544    1.083   .     S
C537   C1303   1.393   .     S
C537   H1311   1.083   .     S
C538   H545    1.076   .     S
C538   C1302   1.393   1_554 S
C538   C1277   1.424   1_554 S
H546   C1302   1.083   1_554 S
N548   Zn558   2.021   .     S
N549   Zn559   2.021   .     S
O550   Zn558   2.003   .     S
O551   Zn559   1.979   .     S
O552   Zn558   1.955   .     S
O553   Zn559   1.899   .     S
O554   Zn558   1.979   .     S
O555   Zn559   2.003   .     S
O556   Zn558   1.899   .     S
O557   Zn559   1.955   .     S
N560   C562    1.455   .     S
N560   H561    1.031   .     S
C562   H565    1.106   .     S
C562   H564    1.113   .     S
C562   H563    1.110   .     S
C566   H567    1.084   .     S
C566   O568    1.221   .     D
N569   H570    1.024   .     S
N569   C656    1.451   .     S
C571   H573    1.108   .     S
C571   H574    1.110   .     S
C571   H572    1.110   .     S
C571   N739    1.451   1_455 S
N575   C577    1.446   .     S
N575   H576    1.032   .     S
C577   H578    1.111   .     S
C577   H579    1.110   .     S
C577   H580    1.107   .     S
N581   C583    1.450   .     S
N581   H582    1.030   .     S
C583   H584    1.110   .     S
C583   H585    1.109   .     S
C583   H586    1.108   .     S
C587   O589    1.220   .     D
C587   C1299   1.481   .     S
C587   H673    1.086   .     S
H588   C757    1.086   1_455 S
N590   C592    1.449   .     S
N590   H591    1.031   .     S
C592   H594    1.108   .     S
C592   H595    1.111   .     S
C592   H593    1.110   .     S
C596   O635    1.284   .     A
C596   O636    1.284   .     A
C596   C612    1.407   .     S
C597   C598    1.400   .     A
C597   C1364   1.418   .     S
C597   C1388   1.424   .     S
C598   C602    1.404   .     A
C598   C605    1.406   .     A
C599   C603    1.390   .     A
C599   C1362   1.418   1_554 S
C599   C1365   1.434   1_554 S
C600   C601    1.421   .     A
C600   C1364   1.434   .     S
C600   C1384   1.430   .     S
C601   N666    1.430   .     S
C601   C602    1.395   .     A
C602   H632    1.081   .     S
C603   C620    1.382   .     A
C603   H628    1.076   .     S
C604   C620    1.391   .     A
C604   H624    1.080   .     S
C604   C619    1.399   .     A
C605   C621    1.400   .     A
C605   C607    1.456   .     S
C606   C612    1.396   .     A
C606   N675    1.429   .     S
C606   C98     1.386   1_565 S
C607   O638    1.298   .     A
C607   O637    1.293   .     A
C608   C609    1.410   .     A
C608   N645    1.423   .     S
C609   C617    1.426   .     S
C609   C610    1.411   .     A
C610   C651    1.491   .     S
C611   H625    1.085   .     S
C611   C612    1.391   .     A
C611   C100    1.382   1_565 S
C613   N634    1.383   .     A
C613   N654    1.430   .     S
C613   C699    1.429   .     S
C614   H626    1.079   .     S
C614   N633    1.358   .     A
C615   N633    1.359   .     A
C615   H627    1.082   .     S
C616   N634    1.379   .     A
C616   N660    1.418   .     S
C616   C700    1.420   .     S
C617   O639    1.292   .     A
C617   O640    1.283   .     A
C618   O641    1.296   .     A
C618   O642    1.296   .     A
C618   C620    1.453   .     S
C619   C1365   1.430   1_554 S
C619   C1437   1.481   1_554 S
C621   C622    1.387   .     A
C621   H629    1.083   .     S
C622   C1388   1.393   .     S
C622   H1396   1.083   .     S
C623   H630    1.076   .     S
C623   C1387   1.393   1_554 S
C623   C1362   1.424   1_554 S
H631   C1387   1.083   1_554 S
N633   Zn643   2.021   .     S
N634   Zn644   2.021   .     S
O635   Zn643   2.003   .     S
O636   Zn644   1.979   .     S
O637   Zn643   1.955   .     S
O638   Zn644   1.899   .     S
O639   Zn643   1.979   .     S
O640   Zn644   2.003   .     S
O641   Zn643   1.899   .     S
O642   Zn644   1.955   .     S
N645   C647    1.455   .     S
N645   H646    1.031   .     S
C647   H650    1.106   .     S
C647   H649    1.113   .     S
C647   H648    1.110   .     S
C651   H652    1.084   .     S
C651   O653    1.221   .     D
N654   H655    1.024   .     S
N654   C741    1.451   .     S
C656   H658    1.108   .     S
C656   H659    1.110   .     S
C656   H657    1.110   .     S
N660   C662    1.446   .     S
N660   H661    1.032   .     S
C662   H663    1.111   .     S
C662   H664    1.110   .     S
C662   H665    1.107   .     S
N666   C668    1.450   .     S
N666   H667    1.030   .     S
C668   H669    1.110   .     S
C668   H670    1.109   .     S
C668   H671    1.108   .     S
C672   O674    1.220   .     D
C672   C1384   1.481   .     S
C672   H758    1.086   .     S
N675   C677    1.449   .     S
N675   H676    1.031   .     S
C677   H679    1.108   .     S
C677   H680    1.111   .     S
C677   H678    1.110   .     S
C681   O720    1.284   .     A
C681   O721    1.284   .     A
C681   C697    1.407   .     S
C682   C683    1.400   .     A
C682   C1449   1.418   .     S
C682   C1473   1.424   .     S
C683   C687    1.404   .     A
C683   C690    1.406   .     A
C684   C688    1.390   .     A
C684   C1447   1.418   1_554 S
C684   C1450   1.434   1_554 S
C685   C686    1.421   .     A
C685   C1449   1.434   .     S
C685   C1469   1.430   .     S
C686   N751    1.430   .     S
C686   C687    1.395   .     A
C687   H717    1.081   .     S
C688   C705    1.382   .     A
C688   H713    1.076   .     S
C689   C705    1.391   .     A
C689   H709    1.080   .     S
C689   C704    1.399   .     A
C690   C706    1.400   .     A
C690   C692    1.456   .     S
C691   C697    1.396   .     A
C691   N760    1.429   .     S
C691   C183    1.386   1_565 S
C692   O723    1.298   .     A
C692   O722    1.293   .     A
C693   C694    1.410   .     A
C693   N730    1.423   .     S
C694   C702    1.426   .     S
C694   C695    1.411   .     A
C695   C736    1.491   .     S
C696   H710    1.085   .     S
C696   C697    1.391   .     A
C696   C185    1.382   1_565 S
C698   N719    1.383   .     A
C698   N739    1.430   .     S
C698   C529    1.429   1_655 S
C699   H711    1.079   .     S
C699   N718    1.358   .     A
C700   N718    1.359   .     A
C700   H712    1.082   .     S
C701   N719    1.379   .     A
C701   N745    1.418   .     S
C701   C530    1.420   1_655 S
C702   O724    1.292   .     A
C702   O725    1.283   .     A
C703   O726    1.296   .     A
C703   O727    1.296   .     A
C703   C705    1.453   .     S
C704   C1450   1.430   1_554 S
C704   C1522   1.481   1_554 S
C706   C707    1.387   .     A
C706   H714    1.083   .     S
C707   C1473   1.393   .     S
C707   H1481   1.083   .     S
C708   H715    1.076   .     S
C708   C1472   1.393   1_554 S
C708   C1447   1.424   1_554 S
H716   C1472   1.083   1_554 S
N718   Zn728   2.021   .     S
N719   Zn729   2.021   .     S
O720   Zn728   2.003   .     S
O721   Zn729   1.979   .     S
O722   Zn728   1.955   .     S
O723   Zn729   1.899   .     S
O724   Zn728   1.979   .     S
O725   Zn729   2.003   .     S
O726   Zn728   1.899   .     S
O727   Zn729   1.955   .     S
N730   C732    1.455   .     S
N730   H731    1.031   .     S
C732   H735    1.106   .     S
C732   H734    1.113   .     S
C732   H733    1.110   .     S
C736   H737    1.084   .     S
C736   O738    1.221   .     D
N739   H740    1.024   .     S
N739   C571    1.451   1_655 S
C741   H743    1.108   .     S
C741   H744    1.110   .     S
C741   H742    1.110   .     S
N745   C747    1.446   .     S
N745   H746    1.032   .     S
C747   H748    1.111   .     S
C747   H749    1.110   .     S
C747   H750    1.107   .     S
N751   C753    1.450   .     S
N751   H752    1.030   .     S
C753   H754    1.110   .     S
C753   H755    1.109   .     S
C753   H756    1.108   .     S
C757   O759    1.220   .     D
C757   C1469   1.481   .     S
C757   H588    1.086   1_655 S
N760   C762    1.449   .     S
N760   H761    1.031   .     S
C762   H764    1.108   .     S
C762   H765    1.111   .     S
C762   H763    1.110   .     S
C766   O805    1.284   .     A
C766   O806    1.284   .     A
C766   C782    1.407   .     S
C767   C768    1.400   .     A
C767   C4      1.418   1_556 S
C767   C28     1.424   1_556 S
C768   C772    1.404   .     A
C768   C775    1.406   .     A
C769   C773    1.390   .     A
C770   C771    1.421   .     A
C770   C4      1.434   1_556 S
C770   C24     1.430   1_556 S
C771   N836    1.430   .     S
C771   C772    1.395   .     A
C772   H802    1.081   .     S
C773   C790    1.382   .     A
C773   H798    1.076   .     S
C774   C790    1.391   .     A
C774   H794    1.080   .     S
C774   C789    1.399   .     A
C775   C791    1.400   .     A
C775   C777    1.456   .     S
C776   C782    1.396   .     A
C776   N845    1.429   .     S
C776   C1033   1.386   .     S
C777   O808    1.298   .     A
C777   O807    1.293   .     A
C778   C779    1.410   .     A
C778   N815    1.423   .     S
C778   C1286   1.386   1_545 S
C779   C787    1.426   .     S
C779   C780    1.411   .     A
C780   C821    1.491   .     S
C780   C1291   1.382   1_545 S
C781   H795    1.085   .     S
C781   C782    1.391   .     A
C781   C1035   1.382   .     S
C783   N804    1.383   .     A
C783   N824    1.430   .     S
C783   C869    1.429   .     S
C784   H796    1.079   .     S
C784   N803    1.358   .     A
C784   C953    1.429   1_455 S
C785   N803    1.359   .     A
C785   H797    1.082   .     S
C785   C956    1.420   1_455 S
C786   N804    1.379   .     A
C786   N830    1.418   .     S
C786   C870    1.420   .     S
C787   O809    1.292   .     A
C787   O810    1.283   .     A
C788   O811    1.296   .     A
C788   O812    1.296   .     A
C788   C790    1.453   .     S
C791   C792    1.387   .     A
C791   H799    1.083   .     S
C792   C28     1.393   1_556 S
C792   H36     1.083   1_556 S
C793   H800    1.076   .     S
N803   Zn813   2.021   .     S
N804   Zn814   2.021   .     S
O805   Zn813   2.003   .     S
O806   Zn814   1.979   .     S
O807   Zn813   1.955   .     S
O808   Zn814   1.899   .     S
O809   Zn813   1.979   .     S
O810   Zn814   2.003   .     S
O811   Zn813   1.899   .     S
O812   Zn814   1.955   .     S
N815   C817    1.455   .     S
N815   H816    1.031   .     S
C817   H820    1.106   .     S
C817   H819    1.113   .     S
C817   H818    1.110   .     S
C821   H822    1.084   .     S
C821   O823    1.221   .     D
N824   H825    1.024   .     S
N824   C911    1.451   .     S
C826   H828    1.108   .     S
C826   H829    1.110   .     S
C826   H827    1.110   .     S
C826   N994    1.451   1_455 S
N830   C832    1.446   .     S
N830   H831    1.032   .     S
C832   H833    1.111   .     S
C832   H834    1.110   .     S
C832   H835    1.107   .     S
N836   C838    1.450   .     S
N836   H837    1.030   .     S
C838   H839    1.110   .     S
C838   H840    1.109   .     S
C838   H841    1.108   .     S
C842   O844    1.220   .     D
C842   C24     1.481   1_556 S
C842   H928    1.086   .     S
H843   C1012   1.086   1_455 S
N845   C847    1.449   .     S
N845   H846    1.031   .     S
C847   H849    1.108   .     S
C847   H850    1.111   .     S
C847   H848    1.110   .     S
C851   O890    1.284   .     A
C851   O891    1.284   .     A
C851   C867    1.407   .     S
C852   C853    1.400   .     A
C852   C89     1.418   1_556 S
C852   C113    1.424   1_556 S
C853   C857    1.404   .     A
C853   C860    1.406   .     A
C854   C858    1.390   .     A
C855   C856    1.421   .     A
C855   C89     1.434   1_556 S
C855   C109    1.430   1_556 S
C856   N921    1.430   .     S
C856   C857    1.395   .     A
C857   H887    1.081   .     S
C858   C875    1.382   .     A
C858   H883    1.076   .     S
C859   C875    1.391   .     A
C859   H879    1.080   .     S
C859   C874    1.399   .     A
C860   C876    1.400   .     A
C860   C862    1.456   .     S
C861   C867    1.396   .     A
C861   N930    1.429   .     S
C861   C1118   1.386   .     S
C862   O893    1.298   .     A
C862   O892    1.293   .     A
C863   C864    1.410   .     A
C863   N900    1.423   .     S
C863   C1371   1.386   1_545 S
C864   C872    1.426   .     S
C864   C865    1.411   .     A
C865   C906    1.491   .     S
C865   C1376   1.382   1_545 S
C866   H880    1.085   .     S
C866   C867    1.391   .     A
C866   C1120   1.382   .     S
C868   N889    1.383   .     A
C868   N909    1.430   .     S
C868   C954    1.429   .     S
C869   H881    1.079   .     S
C869   N888    1.358   .     A
C870   N888    1.359   .     A
C870   H882    1.082   .     S
C871   N889    1.379   .     A
C871   N915    1.418   .     S
C871   C955    1.420   .     S
C872   O894    1.292   .     A
C872   O895    1.283   .     A
C873   O896    1.296   .     A
C873   O897    1.296   .     A
C873   C875    1.453   .     S
C876   C877    1.387   .     A
C876   H884    1.083   .     S
C877   C113    1.393   1_556 S
C877   H121    1.083   1_556 S
C878   H885    1.076   .     S
N888   Zn898   2.021   .     S
N889   Zn899   2.021   .     S
O890   Zn898   2.003   .     S
O891   Zn899   1.979   .     S
O892   Zn898   1.955   .     S
O893   Zn899   1.899   .     S
O894   Zn898   1.979   .     S
O895   Zn899   2.003   .     S
O896   Zn898   1.899   .     S
O897   Zn899   1.955   .     S
N900   C902    1.455   .     S
N900   H901    1.031   .     S
C902   H905    1.106   .     S
C902   H904    1.113   .     S
C902   H903    1.110   .     S
C906   H907    1.084   .     S
C906   O908    1.221   .     D
N909   H910    1.024   .     S
N909   C996    1.451   .     S
C911   H913    1.108   .     S
C911   H914    1.110   .     S
C911   H912    1.110   .     S
N915   C917    1.446   .     S
N915   H916    1.032   .     S
C917   H918    1.111   .     S
C917   H919    1.110   .     S
C917   H920    1.107   .     S
N921   C923    1.450   .     S
N921   H922    1.030   .     S
C923   H924    1.110   .     S
C923   H925    1.109   .     S
C923   H926    1.108   .     S
C927   O929    1.220   .     D
C927   C109    1.481   1_556 S
C927   H1013   1.086   .     S
N930   C932    1.449   .     S
N930   H931    1.031   .     S
C932   H934    1.108   .     S
C932   H935    1.111   .     S
C932   H933    1.110   .     S
C936   O975    1.284   .     A
C936   O976    1.284   .     A
C936   C952    1.407   .     S
C937   C938    1.400   .     A
C937   C174    1.418   1_556 S
C937   C198    1.424   1_556 S
C938   C942    1.404   .     A
C938   C945    1.406   .     A
C939   C943    1.390   .     A
C940   C941    1.421   .     A
C940   C174    1.434   1_556 S
C940   C194    1.430   1_556 S
C941   N1006   1.430   .     S
C941   C942    1.395   .     A
C942   H972    1.081   .     S
C943   C960    1.382   .     A
C943   H968    1.076   .     S
C944   C960    1.391   .     A
C944   H964    1.080   .     S
C944   C959    1.399   .     A
C945   C961    1.400   .     A
C945   C947    1.456   .     S
C946   C952    1.396   .     A
C946   N1015   1.429   .     S
C946   C1203   1.386   .     S
C947   O978    1.298   .     A
C947   O977    1.293   .     A
C948   C949    1.410   .     A
C948   N985    1.423   .     S
C948   C1456   1.386   1_545 S
C949   C957    1.426   .     S
C949   C950    1.411   .     A
C950   C991    1.491   .     S
C950   C1461   1.382   1_545 S
C951   H965    1.085   .     S
C951   C952    1.391   .     A
C951   C1205   1.382   .     S
C953   N974    1.383   .     A
C953   N994    1.430   .     S
C953   C784    1.429   1_655 S
C954   H966    1.079   .     S
C954   N973    1.358   .     A
C955   N973    1.359   .     A
C955   H967    1.082   .     S
C956   N974    1.379   .     A
C956   N1000   1.418   .     S
C956   C785    1.420   1_655 S
C957   O979    1.292   .     A
C957   O980    1.283   .     A
C958   O981    1.296   .     A
C958   O982    1.296   .     A
C958   C960    1.453   .     S
C961   C962    1.387   .     A
C961   H969    1.083   .     S
C962   C198    1.393   1_556 S
C962   H206    1.083   1_556 S
C963   H970    1.076   .     S
N973   Zn983   2.021   .     S
N974   Zn984   2.021   .     S
O975   Zn983   2.003   .     S
O976   Zn984   1.979   .     S
O977   Zn983   1.955   .     S
O978   Zn984   1.899   .     S
O979   Zn983   1.979   .     S
O980   Zn984   2.003   .     S
O981   Zn983   1.899   .     S
O982   Zn984   1.955   .     S
N985   C987    1.455   .     S
N985   H986    1.031   .     S
C987   H990    1.106   .     S
C987   H989    1.113   .     S
C987   H988    1.110   .     S
C991   H992    1.084   .     S
C991   O993    1.221   .     D
N994   H995    1.024   .     S
N994   C826    1.451   1_655 S
C996   H998    1.108   .     S
C996   H999    1.110   .     S
C996   H997    1.110   .     S
N1000  C1002   1.446   .     S
N1000  H1001   1.032   .     S
C1002  H1003   1.111   .     S
C1002  H1004   1.110   .     S
C1002  H1005   1.107   .     S
N1006  C1008   1.450   .     S
N1006  H1007   1.030   .     S
C1008  H1009   1.110   .     S
C1008  H1010   1.109   .     S
C1008  H1011   1.108   .     S
C1012  O1014   1.220   .     D
C1012  C194    1.481   1_556 S
C1012  H843    1.086   1_655 S
N1015  C1017   1.449   .     S
N1015  H1016   1.031   .     S
C1017  H1019   1.108   .     S
C1017  H1020   1.111   .     S
C1017  H1018   1.110   .     S
C1021  O1060   1.284   .     A
C1021  O1061   1.284   .     A
C1021  C1037   1.407   .     S
C1022  C1023   1.400   .     A
C1022  C259    1.418   1_556 S
C1022  C283    1.424   1_556 S
C1023  C1027   1.404   .     A
C1023  C1030   1.406   .     A
C1024  C1028   1.390   .     A
C1025  C1026   1.421   .     A
C1025  C259    1.434   1_556 S
C1025  C279    1.430   1_556 S
C1026  N1091   1.430   .     S
C1026  C1027   1.395   .     A
C1027  H1057   1.081   .     S
C1028  C1045   1.382   .     A
C1028  H1053   1.076   .     S
C1029  C1045   1.391   .     A
C1029  H1049   1.080   .     S
C1029  C1044   1.399   .     A
C1030  C1046   1.400   .     A
C1030  C1032   1.456   .     S
C1031  C1037   1.396   .     A
C1031  N1100   1.429   .     S
C1031  C1288   1.386   .     S
C1032  O1063   1.298   .     A
C1032  O1062   1.293   .     A
C1033  C1034   1.410   .     A
C1033  N1070   1.423   .     S
C1034  C1042   1.426   .     S
C1034  C1035   1.411   .     A
C1035  C1076   1.491   .     S
C1036  H1050   1.085   .     S
C1036  C1037   1.391   .     A
C1036  C1290   1.382   .     S
C1038  N1059   1.383   .     A
C1038  N1079   1.430   .     S
C1038  C1124   1.429   .     S
C1039  H1051   1.079   .     S
C1039  N1058   1.358   .     A
C1039  C1208   1.429   1_455 S
C1040  N1058   1.359   .     A
C1040  H1052   1.082   .     S
C1040  C1211   1.420   1_455 S
C1041  N1059   1.379   .     A
C1041  N1085   1.418   .     S
C1041  C1125   1.420   .     S
C1042  O1064   1.292   .     A
C1042  O1065   1.283   .     A
C1043  O1066   1.296   .     A
C1043  O1067   1.296   .     A
C1043  C1045   1.453   .     S
C1046  C1047   1.387   .     A
C1046  H1054   1.083   .     S
C1047  C283    1.393   1_556 S
C1047  H291    1.083   1_556 S
C1048  H1055   1.076   .     S
N1058  Zn1068  2.021   .     S
N1059  Zn1069  2.021   .     S
O1060  Zn1068  2.003   .     S
O1061  Zn1069  1.979   .     S
O1062  Zn1068  1.955   .     S
O1063  Zn1069  1.899   .     S
O1064  Zn1068  1.979   .     S
O1065  Zn1069  2.003   .     S
O1066  Zn1068  1.899   .     S
O1067  Zn1069  1.955   .     S
N1070  C1072   1.455   .     S
N1070  H1071   1.031   .     S
C1072  H1075   1.106   .     S
C1072  H1074   1.113   .     S
C1072  H1073   1.110   .     S
C1076  H1077   1.084   .     S
C1076  O1078   1.221   .     D
N1079  H1080   1.024   .     S
N1079  C1166   1.451   .     S
C1081  H1083   1.108   .     S
C1081  H1084   1.110   .     S
C1081  H1082   1.110   .     S
C1081  N1249   1.451   1_455 S
N1085  C1087   1.446   .     S
N1085  H1086   1.032   .     S
C1087  H1088   1.111   .     S
C1087  H1089   1.110   .     S
C1087  H1090   1.107   .     S
N1091  C1093   1.450   .     S
N1091  H1092   1.030   .     S
C1093  H1094   1.110   .     S
C1093  H1095   1.109   .     S
C1093  H1096   1.108   .     S
C1097  O1099   1.220   .     D
C1097  C279    1.481   1_556 S
C1097  H1183   1.086   .     S
H1098  C1267   1.086   1_455 S
N1100  C1102   1.449   .     S
N1100  H1101   1.031   .     S
C1102  H1104   1.108   .     S
C1102  H1105   1.111   .     S
C1102  H1103   1.110   .     S
C1106  O1145   1.284   .     A
C1106  O1146   1.284   .     A
C1106  C1122   1.407   .     S
C1107  C1108   1.400   .     A
C1107  C344    1.418   1_556 S
C1107  C368    1.424   1_556 S
C1108  C1112   1.404   .     A
C1108  C1115   1.406   .     A
C1109  C1113   1.390   .     A
C1110  C1111   1.421   .     A
C1110  C344    1.434   1_556 S
C1110  C364    1.430   1_556 S
C1111  N1176   1.430   .     S
C1111  C1112   1.395   .     A
C1112  H1142   1.081   .     S
C1113  C1130   1.382   .     A
C1113  H1138   1.076   .     S
C1114  C1130   1.391   .     A
C1114  H1134   1.080   .     S
C1114  C1129   1.399   .     A
C1115  C1131   1.400   .     A
C1115  C1117   1.456   .     S
C1116  C1122   1.396   .     A
C1116  N1185   1.429   .     S
C1116  C1373   1.386   .     S
C1117  O1148   1.298   .     A
C1117  O1147   1.293   .     A
C1118  C1119   1.410   .     A
C1118  N1155   1.423   .     S
C1119  C1127   1.426   .     S
C1119  C1120   1.411   .     A
C1120  C1161   1.491   .     S
C1121  H1135   1.085   .     S
C1121  C1122   1.391   .     A
C1121  C1375   1.382   .     S
C1123  N1144   1.383   .     A
C1123  N1164   1.430   .     S
C1123  C1209   1.429   .     S
C1124  H1136   1.079   .     S
C1124  N1143   1.358   .     A
C1125  N1143   1.359   .     A
C1125  H1137   1.082   .     S
C1126  N1144   1.379   .     A
C1126  N1170   1.418   .     S
C1126  C1210   1.420   .     S
C1127  O1149   1.292   .     A
C1127  O1150   1.283   .     A
C1128  O1151   1.296   .     A
C1128  O1152   1.296   .     A
C1128  C1130   1.453   .     S
C1131  C1132   1.387   .     A
C1131  H1139   1.083   .     S
C1132  C368    1.393   1_556 S
C1132  H376    1.083   1_556 S
C1133  H1140   1.076   .     S
N1143  Zn1153  2.021   .     S
N1144  Zn1154  2.021   .     S
O1145  Zn1153  2.003   .     S
O1146  Zn1154  1.979   .     S
O1147  Zn1153  1.955   .     S
O1148  Zn1154  1.899   .     S
O1149  Zn1153  1.979   .     S
O1150  Zn1154  2.003   .     S
O1151  Zn1153  1.899   .     S
O1152  Zn1154  1.955   .     S
N1155  C1157   1.455   .     S
N1155  H1156   1.031   .     S
C1157  H1160   1.106   .     S
C1157  H1159   1.113   .     S
C1157  H1158   1.110   .     S
C1161  H1162   1.084   .     S
C1161  O1163   1.221   .     D
N1164  H1165   1.024   .     S
N1164  C1251   1.451   .     S
C1166  H1168   1.108   .     S
C1166  H1169   1.110   .     S
C1166  H1167   1.110   .     S
N1170  C1172   1.446   .     S
N1170  H1171   1.032   .     S
C1172  H1173   1.111   .     S
C1172  H1174   1.110   .     S
C1172  H1175   1.107   .     S
N1176  C1178   1.450   .     S
N1176  H1177   1.030   .     S
C1178  H1179   1.110   .     S
C1178  H1180   1.109   .     S
C1178  H1181   1.108   .     S
C1182  O1184   1.220   .     D
C1182  C364    1.481   1_556 S
C1182  H1268   1.086   .     S
N1185  C1187   1.449   .     S
N1185  H1186   1.031   .     S
C1187  H1189   1.108   .     S
C1187  H1190   1.111   .     S
C1187  H1188   1.110   .     S
C1191  O1230   1.284   .     A
C1191  O1231   1.284   .     A
C1191  C1207   1.407   .     S
C1192  C1193   1.400   .     A
C1192  C429    1.418   1_556 S
C1192  C453    1.424   1_556 S
C1193  C1197   1.404   .     A
C1193  C1200   1.406   .     A
C1194  C1198   1.390   .     A
C1195  C1196   1.421   .     A
C1195  C429    1.434   1_556 S
C1195  C449    1.430   1_556 S
C1196  N1261   1.430   .     S
C1196  C1197   1.395   .     A
C1197  H1227   1.081   .     S
C1198  C1215   1.382   .     A
C1198  H1223   1.076   .     S
C1199  C1215   1.391   .     A
C1199  H1219   1.080   .     S
C1199  C1214   1.399   .     A
C1200  C1216   1.400   .     A
C1200  C1202   1.456   .     S
C1201  C1207   1.396   .     A
C1201  N1270   1.429   .     S
C1201  C1458   1.386   .     S
C1202  O1233   1.298   .     A
C1202  O1232   1.293   .     A
C1203  C1204   1.410   .     A
C1203  N1240   1.423   .     S
C1204  C1212   1.426   .     S
C1204  C1205   1.411   .     A
C1205  C1246   1.491   .     S
C1206  H1220   1.085   .     S
C1206  C1207   1.391   .     A
C1206  C1460   1.382   .     S
C1208  N1229   1.383   .     A
C1208  N1249   1.430   .     S
C1208  C1039   1.429   1_655 S
C1209  H1221   1.079   .     S
C1209  N1228   1.358   .     A
C1210  N1228   1.359   .     A
C1210  H1222   1.082   .     S
C1211  N1229   1.379   .     A
C1211  N1255   1.418   .     S
C1211  C1040   1.420   1_655 S
C1212  O1234   1.292   .     A
C1212  O1235   1.283   .     A
C1213  O1236   1.296   .     A
C1213  O1237   1.296   .     A
C1213  C1215   1.453   .     S
C1216  C1217   1.387   .     A
C1216  H1224   1.083   .     S
C1217  C453    1.393   1_556 S
C1217  H461    1.083   1_556 S
C1218  H1225   1.076   .     S
N1228  Zn1238  2.021   .     S
N1229  Zn1239  2.021   .     S
O1230  Zn1238  2.003   .     S
O1231  Zn1239  1.979   .     S
O1232  Zn1238  1.955   .     S
O1233  Zn1239  1.899   .     S
O1234  Zn1238  1.979   .     S
O1235  Zn1239  2.003   .     S
O1236  Zn1238  1.899   .     S
O1237  Zn1239  1.955   .     S
N1240  C1242   1.455   .     S
N1240  H1241   1.031   .     S
C1242  H1245   1.106   .     S
C1242  H1244   1.113   .     S
C1242  H1243   1.110   .     S
C1246  H1247   1.084   .     S
C1246  O1248   1.221   .     D
N1249  H1250   1.024   .     S
N1249  C1081   1.451   1_655 S
C1251  H1253   1.108   .     S
C1251  H1254   1.110   .     S
C1251  H1252   1.110   .     S
N1255  C1257   1.446   .     S
N1255  H1256   1.032   .     S
C1257  H1258   1.111   .     S
C1257  H1259   1.110   .     S
C1257  H1260   1.107   .     S
N1261  C1263   1.450   .     S
N1261  H1262   1.030   .     S
C1263  H1264   1.110   .     S
C1263  H1265   1.109   .     S
C1263  H1266   1.108   .     S
C1267  O1269   1.220   .     D
C1267  C449    1.481   1_556 S
C1267  H1098   1.086   1_655 S
N1270  C1272   1.449   .     S
N1270  H1271   1.031   .     S
C1272  H1274   1.108   .     S
C1272  H1275   1.111   .     S
C1272  H1273   1.110   .     S
C1276  O1315   1.284   .     A
C1276  O1316   1.284   .     A
C1276  C1292   1.407   .     S
C1277  C1278   1.400   .     A
C1277  C514    1.418   1_556 S
C1277  C538    1.424   1_556 S
C1278  C1282   1.404   .     A
C1278  C1285   1.406   .     A
C1279  C1283   1.390   .     A
C1280  C1281   1.421   .     A
C1280  C514    1.434   1_556 S
C1280  C534    1.430   1_556 S
C1281  N1346   1.430   .     S
C1281  C1282   1.395   .     A
C1282  H1312   1.081   .     S
C1283  C1300   1.382   .     A
C1283  H1308   1.076   .     S
C1284  C1300   1.391   .     A
C1284  H1304   1.080   .     S
C1284  C1299   1.399   .     A
C1285  C1301   1.400   .     A
C1285  C1287   1.456   .     S
C1286  C1292   1.396   .     A
C1286  N1355   1.429   .     S
C1286  C778    1.386   1_565 S
C1287  O1318   1.298   .     A
C1287  O1317   1.293   .     A
C1288  C1289   1.410   .     A
C1288  N1325   1.423   .     S
C1289  C1297   1.426   .     S
C1289  C1290   1.411   .     A
C1290  C1331   1.491   .     S
C1291  H1305   1.085   .     S
C1291  C1292   1.391   .     A
C1291  C780    1.382   1_565 S
C1293  N1314   1.383   .     A
C1293  N1334   1.430   .     S
C1293  C1379   1.429   .     S
C1294  H1306   1.079   .     S
C1294  N1313   1.358   .     A
C1294  C1463   1.429   1_455 S
C1295  N1313   1.359   .     A
C1295  H1307   1.082   .     S
C1295  C1466   1.420   1_455 S
C1296  N1314   1.379   .     A
C1296  N1340   1.418   .     S
C1296  C1380   1.420   .     S
C1297  O1319   1.292   .     A
C1297  O1320   1.283   .     A
C1298  O1321   1.296   .     A
C1298  O1322   1.296   .     A
C1298  C1300   1.453   .     S
C1301  C1302   1.387   .     A
C1301  H1309   1.083   .     S
C1302  C538    1.393   1_556 S
C1302  H546    1.083   1_556 S
C1303  H1310   1.076   .     S
N1313  Zn1323  2.021   .     S
N1314  Zn1324  2.021   .     S
O1315  Zn1323  2.003   .     S
O1316  Zn1324  1.979   .     S
O1317  Zn1323  1.955   .     S
O1318  Zn1324  1.899   .     S
O1319  Zn1323  1.979   .     S
O1320  Zn1324  2.003   .     S
O1321  Zn1323  1.899   .     S
O1322  Zn1324  1.955   .     S
N1325  C1327   1.455   .     S
N1325  H1326   1.031   .     S
C1327  H1330   1.106   .     S
C1327  H1329   1.113   .     S
C1327  H1328   1.110   .     S
C1331  H1332   1.084   .     S
C1331  O1333   1.221   .     D
N1334  H1335   1.024   .     S
N1334  C1421   1.451   .     S
C1336  H1338   1.108   .     S
C1336  H1339   1.110   .     S
C1336  H1337   1.110   .     S
C1336  N1504   1.451   1_455 S
N1340  C1342   1.446   .     S
N1340  H1341   1.032   .     S
C1342  H1343   1.111   .     S
C1342  H1344   1.110   .     S
C1342  H1345   1.107   .     S
N1346  C1348   1.450   .     S
N1346  H1347   1.030   .     S
C1348  H1349   1.110   .     S
C1348  H1350   1.109   .     S
C1348  H1351   1.108   .     S
C1352  O1354   1.220   .     D
C1352  C534    1.481   1_556 S
C1352  H1438   1.086   .     S
H1353  C1522   1.086   1_455 S
N1355  C1357   1.449   .     S
N1355  H1356   1.031   .     S
C1357  H1359   1.108   .     S
C1357  H1360   1.111   .     S
C1357  H1358   1.110   .     S
C1361  O1400   1.284   .     A
C1361  O1401   1.284   .     A
C1361  C1377   1.407   .     S
C1362  C1363   1.400   .     A
C1362  C599    1.418   1_556 S
C1362  C623    1.424   1_556 S
C1363  C1367   1.404   .     A
C1363  C1370   1.406   .     A
C1364  C1368   1.390   .     A
C1365  C1366   1.421   .     A
C1365  C599    1.434   1_556 S
C1365  C619    1.430   1_556 S
C1366  N1431   1.430   .     S
C1366  C1367   1.395   .     A
C1367  H1397   1.081   .     S
C1368  C1385   1.382   .     A
C1368  H1393   1.076   .     S
C1369  C1385   1.391   .     A
C1369  H1389   1.080   .     S
C1369  C1384   1.399   .     A
C1370  C1386   1.400   .     A
C1370  C1372   1.456   .     S
C1371  C1377   1.396   .     A
C1371  N1440   1.429   .     S
C1371  C863    1.386   1_565 S
C1372  O1403   1.298   .     A
C1372  O1402   1.293   .     A
C1373  C1374   1.410   .     A
C1373  N1410   1.423   .     S
C1374  C1382   1.426   .     S
C1374  C1375   1.411   .     A
C1375  C1416   1.491   .     S
C1376  H1390   1.085   .     S
C1376  C1377   1.391   .     A
C1376  C865    1.382   1_565 S
C1378  N1399   1.383   .     A
C1378  N1419   1.430   .     S
C1378  C1464   1.429   .     S
C1379  H1391   1.079   .     S
C1379  N1398   1.358   .     A
C1380  N1398   1.359   .     A
C1380  H1392   1.082   .     S
C1381  N1399   1.379   .     A
C1381  N1425   1.418   .     S
C1381  C1465   1.420   .     S
C1382  O1404   1.292   .     A
C1382  O1405   1.283   .     A
C1383  O1406   1.296   .     A
C1383  O1407   1.296   .     A
C1383  C1385   1.453   .     S
C1386  C1387   1.387   .     A
C1386  H1394   1.083   .     S
C1387  C623    1.393   1_556 S
C1387  H631    1.083   1_556 S
C1388  H1395   1.076   .     S
N1398  Zn1408  2.021   .     S
N1399  Zn1409  2.021   .     S
O1400  Zn1408  2.003   .     S
O1401  Zn1409  1.979   .     S
O1402  Zn1408  1.955   .     S
O1403  Zn1409  1.899   .     S
O1404  Zn1408  1.979   .     S
O1405  Zn1409  2.003   .     S
O1406  Zn1408  1.899   .     S
O1407  Zn1409  1.955   .     S
N1410  C1412   1.455   .     S
N1410  H1411   1.031   .     S
C1412  H1415   1.106   .     S
C1412  H1414   1.113   .     S
C1412  H1413   1.110   .     S
C1416  H1417   1.084   .     S
C1416  O1418   1.221   .     D
N1419  H1420   1.024   .     S
N1419  C1506   1.451   .     S
C1421  H1423   1.108   .     S
C1421  H1424   1.110   .     S
C1421  H1422   1.110   .     S
N1425  C1427   1.446   .     S
N1425  H1426   1.032   .     S
C1427  H1428   1.111   .     S
C1427  H1429   1.110   .     S
C1427  H1430   1.107   .     S
N1431  C1433   1.450   .     S
N1431  H1432   1.030   .     S
C1433  H1434   1.110   .     S
C1433  H1435   1.109   .     S
C1433  H1436   1.108   .     S
C1437  O1439   1.220   .     D
C1437  C619    1.481   1_556 S
C1437  H1523   1.086   .     S
N1440  C1442   1.449   .     S
N1440  H1441   1.031   .     S
C1442  H1444   1.108   .     S
C1442  H1445   1.111   .     S
C1442  H1443   1.110   .     S
C1446  O1485   1.284   .     A
C1446  O1486   1.284   .     A
C1446  C1462   1.407   .     S
C1447  C1448   1.400   .     A
C1447  C684    1.418   1_556 S
C1447  C708    1.424   1_556 S
C1448  C1452   1.404   .     A
C1448  C1455   1.406   .     A
C1449  C1453   1.390   .     A
C1450  C1451   1.421   .     A
C1450  C684    1.434   1_556 S
C1450  C704    1.430   1_556 S
C1451  N1516   1.430   .     S
C1451  C1452   1.395   .     A
C1452  H1482   1.081   .     S
C1453  C1470   1.382   .     A
C1453  H1478   1.076   .     S
C1454  C1470   1.391   .     A
C1454  H1474   1.080   .     S
C1454  C1469   1.399   .     A
C1455  C1471   1.400   .     A
C1455  C1457   1.456   .     S
C1456  C1462   1.396   .     A
C1456  N1525   1.429   .     S
C1456  C948    1.386   1_565 S
C1457  O1488   1.298   .     A
C1457  O1487   1.293   .     A
C1458  C1459   1.410   .     A
C1458  N1495   1.423   .     S
C1459  C1467   1.426   .     S
C1459  C1460   1.411   .     A
C1460  C1501   1.491   .     S
C1461  H1475   1.085   .     S
C1461  C1462   1.391   .     A
C1461  C950    1.382   1_565 S
C1463  N1484   1.383   .     A
C1463  N1504   1.430   .     S
C1463  C1294   1.429   1_655 S
C1464  H1476   1.079   .     S
C1464  N1483   1.358   .     A
C1465  N1483   1.359   .     A
C1465  H1477   1.082   .     S
C1466  N1484   1.379   .     A
C1466  N1510   1.418   .     S
C1466  C1295   1.420   1_655 S
C1467  O1489   1.292   .     A
C1467  O1490   1.283   .     A
C1468  O1491   1.296   .     A
C1468  O1492   1.296   .     A
C1468  C1470   1.453   .     S
C1471  C1472   1.387   .     A
C1471  H1479   1.083   .     S
C1472  C708    1.393   1_556 S
C1472  H716    1.083   1_556 S
C1473  H1480   1.076   .     S
N1483  Zn1493  2.021   .     S
N1484  Zn1494  2.021   .     S
O1485  Zn1493  2.003   .     S
O1486  Zn1494  1.979   .     S
O1487  Zn1493  1.955   .     S
O1488  Zn1494  1.899   .     S
O1489  Zn1493  1.979   .     S
O1490  Zn1494  2.003   .     S
O1491  Zn1493  1.899   .     S
O1492  Zn1494  1.955   .     S
N1495  C1497   1.455   .     S
N1495  H1496   1.031   .     S
C1497  H1500   1.106   .     S
C1497  H1499   1.113   .     S
C1497  H1498   1.110   .     S
C1501  H1502   1.084   .     S
C1501  O1503   1.221   .     D
N1504  H1505   1.024   .     S
N1504  C1336   1.451   1_655 S
C1506  H1508   1.108   .     S
C1506  H1509   1.110   .     S
C1506  H1507   1.110   .     S
N1510  C1512   1.446   .     S
N1510  H1511   1.032   .     S
C1512  H1513   1.111   .     S
C1512  H1514   1.110   .     S
C1512  H1515   1.107   .     S
N1516  C1518   1.450   .     S
N1516  H1517   1.030   .     S
C1518  H1519   1.110   .     S
C1518  H1520   1.109   .     S
C1518  H1521   1.108   .     S
C1522  O1524   1.220   .     D
C1522  C704    1.481   1_556 S
C1522  H1353   1.086   1_655 S
N1525  C1527   1.449   .     S
N1525  H1526   1.031   .     S
C1527  H1529   1.108   .     S
C1527  H1530   1.111   .     S
C1527  H1528   1.110   .     S
