data_str_m3_o1_o16_pcu_sym.28
_audit_creation_date              2020-01-03
_audit_creation_method            'Materials Studio'
_symmetry_space_group_name_H-M    'P1'
_symmetry_Int_Tables_number       1
_symmetry_cell_setting            triclinic
loop_
_symmetry_equiv_pos_as_xyz
  x,y,z
_cell_length_a                    29.6450
_cell_length_b                    32.2315
_cell_length_c                    26.2246
_cell_angle_alpha                 90.5886
_cell_angle_beta                  69.8467
_cell_angle_gamma                 89.9835
loop_
_atom_site_label
_atom_site_type_symbol
_atom_site_fract_x
_atom_site_fract_y
_atom_site_fract_z
_atom_site_U_iso_or_equiv
_atom_site_adp_type
_atom_site_occupancy
O1     O     0.12846   0.22775   0.25001   0.00000  Uiso   1.00
O2     O     0.20490   0.22774   0.25001   0.00000  Uiso   1.00
C3     C     0.16676   0.24657   0.24948   0.00000  Uiso   1.00
O4     O     0.10947   0.16666   0.32681   0.00000  Uiso   1.00
O5     O     0.18591   0.16665   0.32681   0.00000  Uiso   1.00
C6     C     0.13972   0.16445   0.35236   0.00000  Uiso   1.00
Zn7    Zn    0.11562   0.16667   0.25000   0.00000  Uiso   1.00
Zn8    Zn    0.21771   0.16666   0.25000   0.00000  Uiso   1.00
O9     O     0.12843   0.10559   0.24999   0.00000  Uiso   1.00
O10    O     0.20488   0.10558   0.24999   0.00000  Uiso   1.00
O11    O     0.14742   0.16668   0.17319   0.00000  Uiso   1.00
O12    O     0.22387   0.16667   0.17319   0.00000  Uiso   1.00
C13    C     0.16732   0.08663   0.24859   0.00000  Uiso   1.00
C14    C     0.19345   0.16635   0.14786   0.00000  Uiso   1.00
C15    C     0.25758   0.12165   0.00967   0.00000  Uiso   1.00
H16    H     0.27574   0.12744   0.08193   0.00000  Uiso   1.00
H17    H     0.25808   0.09305   0.41346   0.00000  Uiso   1.00
H18    H     0.28897   0.10287   0.48878   0.00000  Uiso   1.00
C19    C     0.20997   0.16027   0.08946   0.00000  Uiso   1.00
C20    C     0.07512   0.17525   0.44377   0.00000  Uiso   1.00
C21    C     0.06329   0.18118   0.49978   0.00000  Uiso   1.00
C22    C     0.09826   0.17429   0.02350   0.00000  Uiso   1.00
C23    C     0.14421   0.15865   0.49248   0.00000  Uiso   1.00
C24    C     0.15320   0.14687   0.43814   0.00000  Uiso   1.00
C25    C     0.18116   0.15320   0.01434   0.00000  Uiso   1.00
C26    C     0.22247   0.12917   0.48604   0.00000  Uiso   1.00
C27    C     0.22743   0.11238   0.43526   0.00000  Uiso   1.00
C28    C     0.19345   0.12142   0.41136   0.00000  Uiso   1.00
C29    C     0.17807   0.17131   0.06376   0.00000  Uiso   1.00
C30    C     0.25074   0.13637   0.06204   0.00000  Uiso   1.00
C31    C     0.12157   0.16060   0.41202   0.00000  Uiso   1.00
H32    H     0.14957   0.19281   0.08457   0.00000  Uiso   1.00
H33    H     0.08777   0.17909   0.06682   0.00000  Uiso   1.00
H34    H     0.19851   0.10766   0.37207   0.00000  Uiso   1.00
C35    C     0.19736   0.31161   0.26942   0.00000  Uiso   1.00
H36    H     0.22007   0.29533   0.28706   0.00000  Uiso   1.00
C37    C     0.19881   0.02066   0.26875   0.00000  Uiso   1.00
C38    C     0.16944   0.04230   0.24520   0.00000  Uiso   1.00
C39    C     0.14083   0.02069   0.22031   0.00000  Uiso   1.00
C40    C     0.13889   0.31127   0.22354   0.00000  Uiso   1.00
H41    H     0.11711   0.29413   0.20482   0.00000  Uiso   1.00
C42    C     0.16714   0.29053   0.24800   0.00000  Uiso   1.00
C43    C     0.32186   0.14802   0.20877   0.00000  Uiso   1.00
H44    H     0.31386   0.13309   0.17576   0.00000  Uiso   1.00
C45    C     0.03633   0.14780   0.20896   0.00000  Uiso   1.00
H46    H     0.06426   0.13260   0.17604   0.00000  Uiso   1.00
N47    N     0.04760   0.16668   0.25002   0.00000  Uiso   1.00
C48    C     0.01207   0.18540   0.29082   0.00000  Uiso   1.00
H49    H     0.02100   0.20106   0.32268   0.00000  Uiso   1.00
C50    C     0.29745   0.18513   0.29177   0.00000  Uiso   1.00
N51    N     0.28573   0.16665   0.25000   0.00000  Uiso   1.00
N52    N     0.22998   0.04067   0.29278   0.00000  Uiso   1.00
O53    O     0.22506   0.03239   0.34287   0.00000  Uiso   1.00
O54    O     0.27096   0.05514   0.26118   0.00000  Uiso   1.00
N55    N     0.11587   0.04131   0.18943   0.00000  Uiso   1.00
O56    O     0.13838   0.06806   0.15261   0.00000  Uiso   1.00
O57    O     0.07368   0.02842   0.19145   0.00000  Uiso   1.00
N58    N     0.26194   0.20417   0.33773   0.00000  Uiso   1.00
O59    O     0.23721   0.23541   0.33084   0.00000  Uiso   1.00
O60    O     0.26358   0.19815   0.38604   0.00000  Uiso   1.00
N61    N     0.03894   0.18268   0.42019   0.00000  Uiso   1.00
O62    O     0.01746   0.21856   0.42691   0.00000  Uiso   1.00
O63    O     0.02061   0.15136   0.40256   0.00000  Uiso   1.00
O64    O     0.01735   0.19407   0.03032   0.00000  Uiso   1.00
H65    H     0.01452   0.19637   0.06904   0.00000  Uiso   1.00
O66    O     0.46179   0.22775   0.25001   0.00000  Uiso   1.00
O67    O     0.53823   0.22774   0.25001   0.00000  Uiso   1.00
C68    C     0.50009   0.24657   0.24948   0.00000  Uiso   1.00
O69    O     0.44280   0.16666   0.32681   0.00000  Uiso   1.00
O70    O     0.51924   0.16665   0.32681   0.00000  Uiso   1.00
C71    C     0.47305   0.16445   0.35236   0.00000  Uiso   1.00
Zn72   Zn    0.44896   0.16667   0.25000   0.00000  Uiso   1.00
Zn73   Zn    0.55104   0.16666   0.25000   0.00000  Uiso   1.00
O74    O     0.46177   0.10559   0.24999   0.00000  Uiso   1.00
O75    O     0.53821   0.10558   0.24999   0.00000  Uiso   1.00
O76    O     0.48076   0.16668   0.17319   0.00000  Uiso   1.00
O77    O     0.55720   0.16667   0.17319   0.00000  Uiso   1.00
C78    C     0.50065   0.08663   0.24859   0.00000  Uiso   1.00
C79    C     0.52678   0.16635   0.14786   0.00000  Uiso   1.00
C80    C     0.59091   0.12165   0.00967   0.00000  Uiso   1.00
H81    H     0.60908   0.12744   0.08193   0.00000  Uiso   1.00
H82    H     0.59141   0.09305   0.41346   0.00000  Uiso   1.00
H83    H     0.62230   0.10287   0.48878   0.00000  Uiso   1.00
C84    C     0.54331   0.16027   0.08946   0.00000  Uiso   1.00
C85    C     0.40845   0.17525   0.44377   0.00000  Uiso   1.00
C86    C     0.39663   0.18118   0.49978   0.00000  Uiso   1.00
C87    C     0.43159   0.17429   0.02350   0.00000  Uiso   1.00
C88    C     0.47755   0.15865   0.49248   0.00000  Uiso   1.00
C89    C     0.48653   0.14687   0.43814   0.00000  Uiso   1.00
C90    C     0.51450   0.15320   0.01434   0.00000  Uiso   1.00
C91    C     0.55581   0.12917   0.48604   0.00000  Uiso   1.00
C92    C     0.56076   0.11238   0.43526   0.00000  Uiso   1.00
C93    C     0.52678   0.12142   0.41136   0.00000  Uiso   1.00
C94    C     0.51141   0.17131   0.06376   0.00000  Uiso   1.00
C95    C     0.58407   0.13637   0.06204   0.00000  Uiso   1.00
C96    C     0.45490   0.16060   0.41202   0.00000  Uiso   1.00
H97    H     0.48291   0.19281   0.08457   0.00000  Uiso   1.00
H98    H     0.42110   0.17909   0.06682   0.00000  Uiso   1.00
H99    H     0.53184   0.10766   0.37207   0.00000  Uiso   1.00
C100   C     0.53069   0.31161   0.26942   0.00000  Uiso   1.00
H101   H     0.55340   0.29533   0.28706   0.00000  Uiso   1.00
C102   C     0.53215   0.02066   0.26875   0.00000  Uiso   1.00
C103   C     0.50278   0.04230   0.24520   0.00000  Uiso   1.00
C104   C     0.47416   0.02069   0.22031   0.00000  Uiso   1.00
C105   C     0.47223   0.31127   0.22354   0.00000  Uiso   1.00
H106   H     0.45045   0.29413   0.20482   0.00000  Uiso   1.00
C107   C     0.50047   0.29053   0.24800   0.00000  Uiso   1.00
C108   C     0.65520   0.14802   0.20877   0.00000  Uiso   1.00
H109   H     0.64719   0.13309   0.17576   0.00000  Uiso   1.00
C110   C     0.36966   0.14780   0.20896   0.00000  Uiso   1.00
H111   H     0.39759   0.13260   0.17604   0.00000  Uiso   1.00
N112   N     0.38093   0.16668   0.25002   0.00000  Uiso   1.00
C113   C     0.34541   0.18540   0.29082   0.00000  Uiso   1.00
H114   H     0.35434   0.20106   0.32268   0.00000  Uiso   1.00
C115   C     0.63079   0.18513   0.29177   0.00000  Uiso   1.00
N116   N     0.61906   0.16665   0.25000   0.00000  Uiso   1.00
N117   N     0.56331   0.04067   0.29278   0.00000  Uiso   1.00
O118   O     0.55839   0.03239   0.34287   0.00000  Uiso   1.00
O119   O     0.60429   0.05514   0.26118   0.00000  Uiso   1.00
N120   N     0.44920   0.04131   0.18943   0.00000  Uiso   1.00
O121   O     0.47171   0.06806   0.15261   0.00000  Uiso   1.00
O122   O     0.40702   0.02842   0.19145   0.00000  Uiso   1.00
N123   N     0.59527   0.20417   0.33773   0.00000  Uiso   1.00
O124   O     0.57054   0.23541   0.33084   0.00000  Uiso   1.00
O125   O     0.59691   0.19815   0.38604   0.00000  Uiso   1.00
N126   N     0.37227   0.18268   0.42019   0.00000  Uiso   1.00
O127   O     0.35079   0.21856   0.42691   0.00000  Uiso   1.00
O128   O     0.35395   0.15136   0.40256   0.00000  Uiso   1.00
O129   O     0.35069   0.19407   0.03032   0.00000  Uiso   1.00
H130   H     0.34785   0.19637   0.06904   0.00000  Uiso   1.00
O131   O     0.79512   0.22775   0.25001   0.00000  Uiso   1.00
O132   O     0.87157   0.22774   0.25001   0.00000  Uiso   1.00
C133   C     0.83343   0.24657   0.24948   0.00000  Uiso   1.00
O134   O     0.77613   0.16666   0.32681   0.00000  Uiso   1.00
O135   O     0.85258   0.16665   0.32681   0.00000  Uiso   1.00
C136   C     0.80638   0.16445   0.35236   0.00000  Uiso   1.00
Zn137  Zn    0.78229   0.16667   0.25000   0.00000  Uiso   1.00
Zn138  Zn    0.88438   0.16666   0.25000   0.00000  Uiso   1.00
O139   O     0.79510   0.10559   0.24999   0.00000  Uiso   1.00
O140   O     0.87154   0.10558   0.24999   0.00000  Uiso   1.00
O141   O     0.81409   0.16668   0.17319   0.00000  Uiso   1.00
O142   O     0.89053   0.16667   0.17319   0.00000  Uiso   1.00
C143   C     0.83398   0.08663   0.24859   0.00000  Uiso   1.00
C144   C     0.86012   0.16635   0.14786   0.00000  Uiso   1.00
C145   C     0.92424   0.12165   0.00967   0.00000  Uiso   1.00
H146   H     0.94241   0.12744   0.08193   0.00000  Uiso   1.00
H147   H     0.92474   0.09305   0.41346   0.00000  Uiso   1.00
H148   H     0.95563   0.10287   0.48878   0.00000  Uiso   1.00
C149   C     0.87664   0.16027   0.08946   0.00000  Uiso   1.00
C150   C     0.74178   0.17525   0.44377   0.00000  Uiso   1.00
C151   C     0.72996   0.18118   0.49978   0.00000  Uiso   1.00
C152   C     0.76493   0.17429   0.02350   0.00000  Uiso   1.00
C153   C     0.81088   0.15865   0.49248   0.00000  Uiso   1.00
C154   C     0.81987   0.14687   0.43814   0.00000  Uiso   1.00
C155   C     0.84783   0.15320   0.01434   0.00000  Uiso   1.00
C156   C     0.88914   0.12917   0.48604   0.00000  Uiso   1.00
C157   C     0.89409   0.11238   0.43526   0.00000  Uiso   1.00
C158   C     0.86012   0.12142   0.41136   0.00000  Uiso   1.00
C159   C     0.84474   0.17131   0.06376   0.00000  Uiso   1.00
C160   C     0.91741   0.13637   0.06204   0.00000  Uiso   1.00
C161   C     0.78823   0.16060   0.41202   0.00000  Uiso   1.00
H162   H     0.81624   0.19281   0.08457   0.00000  Uiso   1.00
H163   H     0.75444   0.17909   0.06682   0.00000  Uiso   1.00
H164   H     0.86518   0.10766   0.37207   0.00000  Uiso   1.00
C165   C     0.86403   0.31161   0.26942   0.00000  Uiso   1.00
H166   H     0.88674   0.29533   0.28706   0.00000  Uiso   1.00
C167   C     0.86548   0.02066   0.26875   0.00000  Uiso   1.00
C168   C     0.83611   0.04230   0.24520   0.00000  Uiso   1.00
C169   C     0.80750   0.02069   0.22031   0.00000  Uiso   1.00
C170   C     0.80556   0.31127   0.22354   0.00000  Uiso   1.00
H171   H     0.78378   0.29413   0.20482   0.00000  Uiso   1.00
C172   C     0.83380   0.29053   0.24800   0.00000  Uiso   1.00
C173   C     0.98853   0.14802   0.20877   0.00000  Uiso   1.00
H174   H     0.98053   0.13309   0.17576   0.00000  Uiso   1.00
C175   C     0.70300   0.14780   0.20896   0.00000  Uiso   1.00
H176   H     0.73093   0.13260   0.17604   0.00000  Uiso   1.00
N177   N     0.71426   0.16668   0.25002   0.00000  Uiso   1.00
C178   C     0.67874   0.18540   0.29082   0.00000  Uiso   1.00
H179   H     0.68767   0.20106   0.32268   0.00000  Uiso   1.00
C180   C     0.96412   0.18513   0.29177   0.00000  Uiso   1.00
N181   N     0.95239   0.16665   0.25000   0.00000  Uiso   1.00
N182   N     0.89665   0.04067   0.29278   0.00000  Uiso   1.00
O183   O     0.89172   0.03239   0.34287   0.00000  Uiso   1.00
O184   O     0.93763   0.05514   0.26118   0.00000  Uiso   1.00
N185   N     0.78253   0.04131   0.18943   0.00000  Uiso   1.00
O186   O     0.80505   0.06806   0.15261   0.00000  Uiso   1.00
O187   O     0.74035   0.02842   0.19145   0.00000  Uiso   1.00
N188   N     0.92861   0.20417   0.33773   0.00000  Uiso   1.00
O189   O     0.90388   0.23541   0.33084   0.00000  Uiso   1.00
O190   O     0.93025   0.19815   0.38604   0.00000  Uiso   1.00
N191   N     0.70561   0.18268   0.42019   0.00000  Uiso   1.00
O192   O     0.68412   0.21856   0.42691   0.00000  Uiso   1.00
O193   O     0.68728   0.15136   0.40256   0.00000  Uiso   1.00
O194   O     0.68402   0.19407   0.03032   0.00000  Uiso   1.00
H195   H     0.68119   0.19637   0.06904   0.00000  Uiso   1.00
O196   O     0.12846   0.56108   0.25001   0.00000  Uiso   1.00
O197   O     0.20490   0.56107   0.25001   0.00000  Uiso   1.00
C198   C     0.16676   0.57990   0.24948   0.00000  Uiso   1.00
O199   O     0.10947   0.50000   0.32681   0.00000  Uiso   1.00
O200   O     0.18591   0.49999   0.32681   0.00000  Uiso   1.00
C201   C     0.13972   0.49778   0.35236   0.00000  Uiso   1.00
Zn202  Zn    0.11562   0.50001   0.25000   0.00000  Uiso   1.00
Zn203  Zn    0.21771   0.49999   0.25000   0.00000  Uiso   1.00
O204   O     0.12843   0.43893   0.24999   0.00000  Uiso   1.00
O205   O     0.20488   0.43892   0.24999   0.00000  Uiso   1.00
O206   O     0.14742   0.50001   0.17319   0.00000  Uiso   1.00
O207   O     0.22387   0.50000   0.17319   0.00000  Uiso   1.00
C208   C     0.16732   0.41996   0.24859   0.00000  Uiso   1.00
C209   C     0.19345   0.49969   0.14786   0.00000  Uiso   1.00
C210   C     0.25758   0.45499   0.00967   0.00000  Uiso   1.00
H211   H     0.27574   0.46077   0.08193   0.00000  Uiso   1.00
H212   H     0.25808   0.42638   0.41346   0.00000  Uiso   1.00
H213   H     0.28897   0.43621   0.48878   0.00000  Uiso   1.00
C214   C     0.20997   0.49360   0.08946   0.00000  Uiso   1.00
C215   C     0.07512   0.50858   0.44377   0.00000  Uiso   1.00
C216   C     0.06329   0.51451   0.49978   0.00000  Uiso   1.00
C217   C     0.09826   0.50762   0.02350   0.00000  Uiso   1.00
C218   C     0.14421   0.49198   0.49248   0.00000  Uiso   1.00
C219   C     0.15320   0.48020   0.43814   0.00000  Uiso   1.00
C220   C     0.18116   0.48654   0.01434   0.00000  Uiso   1.00
C221   C     0.22247   0.46251   0.48604   0.00000  Uiso   1.00
C222   C     0.22743   0.44571   0.43526   0.00000  Uiso   1.00
C223   C     0.19345   0.45475   0.41136   0.00000  Uiso   1.00
C224   C     0.17807   0.50464   0.06376   0.00000  Uiso   1.00
C225   C     0.25074   0.46970   0.06204   0.00000  Uiso   1.00
C226   C     0.12157   0.49394   0.41202   0.00000  Uiso   1.00
H227   H     0.14957   0.52615   0.08457   0.00000  Uiso   1.00
H228   H     0.08777   0.51242   0.06682   0.00000  Uiso   1.00
H229   H     0.19851   0.44099   0.37207   0.00000  Uiso   1.00
C230   C     0.19736   0.64494   0.26942   0.00000  Uiso   1.00
H231   H     0.22007   0.62866   0.28706   0.00000  Uiso   1.00
C232   C     0.19881   0.35399   0.26875   0.00000  Uiso   1.00
C233   C     0.16944   0.37563   0.24520   0.00000  Uiso   1.00
C234   C     0.14083   0.35403   0.22031   0.00000  Uiso   1.00
C235   C     0.13889   0.64461   0.22354   0.00000  Uiso   1.00
H236   H     0.11711   0.62746   0.20482   0.00000  Uiso   1.00
C237   C     0.16714   0.62387   0.24800   0.00000  Uiso   1.00
C238   C     0.32186   0.48135   0.20877   0.00000  Uiso   1.00
H239   H     0.31386   0.46642   0.17576   0.00000  Uiso   1.00
C240   C     0.03633   0.48114   0.20896   0.00000  Uiso   1.00
H241   H     0.06426   0.46594   0.17604   0.00000  Uiso   1.00
N242   N     0.04760   0.50001   0.25002   0.00000  Uiso   1.00
C243   C     0.01207   0.51873   0.29082   0.00000  Uiso   1.00
H244   H     0.02100   0.53440   0.32268   0.00000  Uiso   1.00
C245   C     0.29745   0.51846   0.29177   0.00000  Uiso   1.00
N246   N     0.28573   0.49998   0.25000   0.00000  Uiso   1.00
N247   N     0.22998   0.37400   0.29278   0.00000  Uiso   1.00
O248   O     0.22506   0.36572   0.34287   0.00000  Uiso   1.00
O249   O     0.27096   0.38847   0.26118   0.00000  Uiso   1.00
N250   N     0.11587   0.37464   0.18943   0.00000  Uiso   1.00
O251   O     0.13838   0.40139   0.15261   0.00000  Uiso   1.00
O252   O     0.07368   0.36175   0.19145   0.00000  Uiso   1.00
N253   N     0.26194   0.53750   0.33773   0.00000  Uiso   1.00
O254   O     0.23721   0.56874   0.33084   0.00000  Uiso   1.00
O255   O     0.26358   0.53149   0.38604   0.00000  Uiso   1.00
N256   N     0.03894   0.51602   0.42019   0.00000  Uiso   1.00
O257   O     0.01746   0.55190   0.42691   0.00000  Uiso   1.00
O258   O     0.02061   0.48469   0.40256   0.00000  Uiso   1.00
O259   O     0.01735   0.52741   0.03032   0.00000  Uiso   1.00
H260   H     0.01452   0.52971   0.06904   0.00000  Uiso   1.00
O261   O     0.46179   0.56108   0.25001   0.00000  Uiso   1.00
O262   O     0.53823   0.56107   0.25001   0.00000  Uiso   1.00
C263   C     0.50009   0.57990   0.24948   0.00000  Uiso   1.00
O264   O     0.44280   0.50000   0.32681   0.00000  Uiso   1.00
O265   O     0.51924   0.49999   0.32681   0.00000  Uiso   1.00
C266   C     0.47305   0.49778   0.35236   0.00000  Uiso   1.00
Zn267  Zn    0.44896   0.50001   0.25000   0.00000  Uiso   1.00
Zn268  Zn    0.55104   0.49999   0.25000   0.00000  Uiso   1.00
O269   O     0.46177   0.43893   0.24999   0.00000  Uiso   1.00
O270   O     0.53821   0.43892   0.24999   0.00000  Uiso   1.00
O271   O     0.48076   0.50001   0.17319   0.00000  Uiso   1.00
O272   O     0.55720   0.50000   0.17319   0.00000  Uiso   1.00
C273   C     0.50065   0.41996   0.24859   0.00000  Uiso   1.00
C274   C     0.52678   0.49969   0.14786   0.00000  Uiso   1.00
C275   C     0.59091   0.45499   0.00967   0.00000  Uiso   1.00
H276   H     0.60908   0.46077   0.08193   0.00000  Uiso   1.00
H277   H     0.59141   0.42638   0.41346   0.00000  Uiso   1.00
H278   H     0.62230   0.43621   0.48878   0.00000  Uiso   1.00
C279   C     0.54331   0.49360   0.08946   0.00000  Uiso   1.00
C280   C     0.40845   0.50858   0.44377   0.00000  Uiso   1.00
C281   C     0.39663   0.51451   0.49978   0.00000  Uiso   1.00
C282   C     0.43159   0.50762   0.02350   0.00000  Uiso   1.00
C283   C     0.47755   0.49198   0.49248   0.00000  Uiso   1.00
C284   C     0.48653   0.48020   0.43814   0.00000  Uiso   1.00
C285   C     0.51450   0.48654   0.01434   0.00000  Uiso   1.00
C286   C     0.55581   0.46251   0.48604   0.00000  Uiso   1.00
C287   C     0.56076   0.44571   0.43526   0.00000  Uiso   1.00
C288   C     0.52678   0.45475   0.41136   0.00000  Uiso   1.00
C289   C     0.51141   0.50464   0.06376   0.00000  Uiso   1.00
C290   C     0.58407   0.46970   0.06204   0.00000  Uiso   1.00
C291   C     0.45490   0.49394   0.41202   0.00000  Uiso   1.00
H292   H     0.48291   0.52615   0.08457   0.00000  Uiso   1.00
H293   H     0.42110   0.51242   0.06682   0.00000  Uiso   1.00
H294   H     0.53184   0.44099   0.37207   0.00000  Uiso   1.00
C295   C     0.53069   0.64494   0.26942   0.00000  Uiso   1.00
H296   H     0.55340   0.62866   0.28706   0.00000  Uiso   1.00
C297   C     0.53215   0.35399   0.26875   0.00000  Uiso   1.00
C298   C     0.50278   0.37563   0.24520   0.00000  Uiso   1.00
C299   C     0.47416   0.35403   0.22031   0.00000  Uiso   1.00
C300   C     0.47223   0.64461   0.22354   0.00000  Uiso   1.00
H301   H     0.45045   0.62746   0.20482   0.00000  Uiso   1.00
C302   C     0.50047   0.62387   0.24800   0.00000  Uiso   1.00
C303   C     0.65520   0.48135   0.20877   0.00000  Uiso   1.00
H304   H     0.64719   0.46642   0.17576   0.00000  Uiso   1.00
C305   C     0.36966   0.48114   0.20896   0.00000  Uiso   1.00
H306   H     0.39759   0.46594   0.17604   0.00000  Uiso   1.00
N307   N     0.38093   0.50001   0.25002   0.00000  Uiso   1.00
C308   C     0.34541   0.51873   0.29082   0.00000  Uiso   1.00
H309   H     0.35434   0.53440   0.32268   0.00000  Uiso   1.00
C310   C     0.63079   0.51846   0.29177   0.00000  Uiso   1.00
N311   N     0.61906   0.49998   0.25000   0.00000  Uiso   1.00
N312   N     0.56331   0.37400   0.29278   0.00000  Uiso   1.00
O313   O     0.55839   0.36572   0.34287   0.00000  Uiso   1.00
O314   O     0.60429   0.38847   0.26118   0.00000  Uiso   1.00
N315   N     0.44920   0.37464   0.18943   0.00000  Uiso   1.00
O316   O     0.47171   0.40139   0.15261   0.00000  Uiso   1.00
O317   O     0.40702   0.36175   0.19145   0.00000  Uiso   1.00
N318   N     0.59527   0.53750   0.33773   0.00000  Uiso   1.00
O319   O     0.57054   0.56874   0.33084   0.00000  Uiso   1.00
O320   O     0.59691   0.53149   0.38604   0.00000  Uiso   1.00
N321   N     0.37227   0.51602   0.42019   0.00000  Uiso   1.00
O322   O     0.35079   0.55190   0.42691   0.00000  Uiso   1.00
O323   O     0.35395   0.48469   0.40256   0.00000  Uiso   1.00
O324   O     0.35069   0.52741   0.03032   0.00000  Uiso   1.00
H325   H     0.34785   0.52971   0.06904   0.00000  Uiso   1.00
O326   O     0.79512   0.56108   0.25001   0.00000  Uiso   1.00
O327   O     0.87157   0.56107   0.25001   0.00000  Uiso   1.00
C328   C     0.83343   0.57990   0.24948   0.00000  Uiso   1.00
O329   O     0.77613   0.50000   0.32681   0.00000  Uiso   1.00
O330   O     0.85258   0.49999   0.32681   0.00000  Uiso   1.00
C331   C     0.80638   0.49778   0.35236   0.00000  Uiso   1.00
Zn332  Zn    0.78229   0.50001   0.25000   0.00000  Uiso   1.00
Zn333  Zn    0.88438   0.49999   0.25000   0.00000  Uiso   1.00
O334   O     0.79510   0.43893   0.24999   0.00000  Uiso   1.00
O335   O     0.87154   0.43892   0.24999   0.00000  Uiso   1.00
O336   O     0.81409   0.50001   0.17319   0.00000  Uiso   1.00
O337   O     0.89053   0.50000   0.17319   0.00000  Uiso   1.00
C338   C     0.83398   0.41996   0.24859   0.00000  Uiso   1.00
C339   C     0.86012   0.49969   0.14786   0.00000  Uiso   1.00
C340   C     0.92424   0.45499   0.00967   0.00000  Uiso   1.00
H341   H     0.94241   0.46077   0.08193   0.00000  Uiso   1.00
H342   H     0.92474   0.42638   0.41346   0.00000  Uiso   1.00
H343   H     0.95563   0.43621   0.48878   0.00000  Uiso   1.00
C344   C     0.87664   0.49360   0.08946   0.00000  Uiso   1.00
C345   C     0.74178   0.50858   0.44377   0.00000  Uiso   1.00
C346   C     0.72996   0.51451   0.49978   0.00000  Uiso   1.00
C347   C     0.76493   0.50762   0.02350   0.00000  Uiso   1.00
C348   C     0.81088   0.49198   0.49248   0.00000  Uiso   1.00
C349   C     0.81987   0.48020   0.43814   0.00000  Uiso   1.00
C350   C     0.84783   0.48654   0.01434   0.00000  Uiso   1.00
C351   C     0.88914   0.46251   0.48604   0.00000  Uiso   1.00
C352   C     0.89409   0.44571   0.43526   0.00000  Uiso   1.00
C353   C     0.86012   0.45475   0.41136   0.00000  Uiso   1.00
C354   C     0.84474   0.50464   0.06376   0.00000  Uiso   1.00
C355   C     0.91741   0.46970   0.06204   0.00000  Uiso   1.00
C356   C     0.78823   0.49394   0.41202   0.00000  Uiso   1.00
H357   H     0.81624   0.52615   0.08457   0.00000  Uiso   1.00
H358   H     0.75444   0.51242   0.06682   0.00000  Uiso   1.00
H359   H     0.86518   0.44099   0.37207   0.00000  Uiso   1.00
C360   C     0.86403   0.64494   0.26942   0.00000  Uiso   1.00
H361   H     0.88674   0.62866   0.28706   0.00000  Uiso   1.00
C362   C     0.86548   0.35399   0.26875   0.00000  Uiso   1.00
C363   C     0.83611   0.37563   0.24520   0.00000  Uiso   1.00
C364   C     0.80750   0.35403   0.22031   0.00000  Uiso   1.00
C365   C     0.80556   0.64461   0.22354   0.00000  Uiso   1.00
H366   H     0.78378   0.62746   0.20482   0.00000  Uiso   1.00
C367   C     0.83380   0.62387   0.24800   0.00000  Uiso   1.00
C368   C     0.98853   0.48135   0.20877   0.00000  Uiso   1.00
H369   H     0.98053   0.46642   0.17576   0.00000  Uiso   1.00
C370   C     0.70300   0.48114   0.20896   0.00000  Uiso   1.00
H371   H     0.73093   0.46594   0.17604   0.00000  Uiso   1.00
N372   N     0.71426   0.50001   0.25002   0.00000  Uiso   1.00
C373   C     0.67874   0.51873   0.29082   0.00000  Uiso   1.00
H374   H     0.68767   0.53440   0.32268   0.00000  Uiso   1.00
C375   C     0.96412   0.51846   0.29177   0.00000  Uiso   1.00
N376   N     0.95239   0.49998   0.25000   0.00000  Uiso   1.00
N377   N     0.89665   0.37400   0.29278   0.00000  Uiso   1.00
O378   O     0.89172   0.36572   0.34287   0.00000  Uiso   1.00
O379   O     0.93763   0.38847   0.26118   0.00000  Uiso   1.00
N380   N     0.78253   0.37464   0.18943   0.00000  Uiso   1.00
O381   O     0.80505   0.40139   0.15261   0.00000  Uiso   1.00
O382   O     0.74035   0.36175   0.19145   0.00000  Uiso   1.00
N383   N     0.92861   0.53750   0.33773   0.00000  Uiso   1.00
O384   O     0.90388   0.56874   0.33084   0.00000  Uiso   1.00
O385   O     0.93025   0.53149   0.38604   0.00000  Uiso   1.00
N386   N     0.70561   0.51602   0.42019   0.00000  Uiso   1.00
O387   O     0.68412   0.55190   0.42691   0.00000  Uiso   1.00
O388   O     0.68728   0.48469   0.40256   0.00000  Uiso   1.00
O389   O     0.68402   0.52741   0.03032   0.00000  Uiso   1.00
H390   H     0.68119   0.52971   0.06904   0.00000  Uiso   1.00
O391   O     0.12846   0.89442   0.25001   0.00000  Uiso   1.00
O392   O     0.20490   0.89441   0.25001   0.00000  Uiso   1.00
C393   C     0.16676   0.91323   0.24948   0.00000  Uiso   1.00
O394   O     0.10947   0.83333   0.32681   0.00000  Uiso   1.00
O395   O     0.18591   0.83332   0.32681   0.00000  Uiso   1.00
C396   C     0.13972   0.83112   0.35236   0.00000  Uiso   1.00
Zn397  Zn    0.11562   0.83334   0.25000   0.00000  Uiso   1.00
Zn398  Zn    0.21771   0.83333   0.25000   0.00000  Uiso   1.00
O399   O     0.12843   0.77226   0.24999   0.00000  Uiso   1.00
O400   O     0.20488   0.77225   0.24999   0.00000  Uiso   1.00
O401   O     0.14742   0.83335   0.17319   0.00000  Uiso   1.00
O402   O     0.22387   0.83334   0.17319   0.00000  Uiso   1.00
C403   C     0.16732   0.75330   0.24859   0.00000  Uiso   1.00
C404   C     0.19345   0.83302   0.14786   0.00000  Uiso   1.00
C405   C     0.25758   0.78832   0.00967   0.00000  Uiso   1.00
H406   H     0.27574   0.79411   0.08193   0.00000  Uiso   1.00
H407   H     0.25808   0.75972   0.41346   0.00000  Uiso   1.00
H408   H     0.28897   0.76954   0.48878   0.00000  Uiso   1.00
C409   C     0.20997   0.82693   0.08946   0.00000  Uiso   1.00
C410   C     0.07512   0.84192   0.44377   0.00000  Uiso   1.00
C411   C     0.06329   0.84785   0.49978   0.00000  Uiso   1.00
C412   C     0.09826   0.84096   0.02350   0.00000  Uiso   1.00
C413   C     0.14421   0.82532   0.49248   0.00000  Uiso   1.00
C414   C     0.15320   0.81353   0.43814   0.00000  Uiso   1.00
C415   C     0.18116   0.81987   0.01434   0.00000  Uiso   1.00
C416   C     0.22247   0.79584   0.48604   0.00000  Uiso   1.00
C417   C     0.22743   0.77904   0.43526   0.00000  Uiso   1.00
C418   C     0.19345   0.78809   0.41136   0.00000  Uiso   1.00
C419   C     0.17807   0.83797   0.06376   0.00000  Uiso   1.00
C420   C     0.25074   0.80303   0.06204   0.00000  Uiso   1.00
C421   C     0.12157   0.82727   0.41202   0.00000  Uiso   1.00
H422   H     0.14957   0.85948   0.08457   0.00000  Uiso   1.00
H423   H     0.08777   0.84576   0.06682   0.00000  Uiso   1.00
H424   H     0.19851   0.77433   0.37207   0.00000  Uiso   1.00
C425   C     0.19736   0.97827   0.26942   0.00000  Uiso   1.00
H426   H     0.22007   0.96200   0.28706   0.00000  Uiso   1.00
C427   C     0.19881   0.68732   0.26875   0.00000  Uiso   1.00
C428   C     0.16944   0.70896   0.24520   0.00000  Uiso   1.00
C429   C     0.14083   0.68736   0.22031   0.00000  Uiso   1.00
C430   C     0.13889   0.97794   0.22354   0.00000  Uiso   1.00
H431   H     0.11711   0.96080   0.20482   0.00000  Uiso   1.00
C432   C     0.16714   0.95720   0.24800   0.00000  Uiso   1.00
C433   C     0.32186   0.81468   0.20877   0.00000  Uiso   1.00
H434   H     0.31386   0.79975   0.17576   0.00000  Uiso   1.00
C435   C     0.03633   0.81447   0.20896   0.00000  Uiso   1.00
H436   H     0.06426   0.79927   0.17604   0.00000  Uiso   1.00
N437   N     0.04760   0.83334   0.25002   0.00000  Uiso   1.00
C438   C     0.01207   0.85207   0.29082   0.00000  Uiso   1.00
H439   H     0.02100   0.86773   0.32268   0.00000  Uiso   1.00
C440   C     0.29745   0.85180   0.29177   0.00000  Uiso   1.00
N441   N     0.28573   0.83331   0.25000   0.00000  Uiso   1.00
N442   N     0.22998   0.70734   0.29278   0.00000  Uiso   1.00
O443   O     0.22506   0.69906   0.34287   0.00000  Uiso   1.00
O444   O     0.27096   0.72180   0.26118   0.00000  Uiso   1.00
N445   N     0.11587   0.70797   0.18943   0.00000  Uiso   1.00
O446   O     0.13838   0.73473   0.15261   0.00000  Uiso   1.00
O447   O     0.07368   0.69509   0.19145   0.00000  Uiso   1.00
N448   N     0.26194   0.87083   0.33773   0.00000  Uiso   1.00
O449   O     0.23721   0.90207   0.33084   0.00000  Uiso   1.00
O450   O     0.26358   0.86482   0.38604   0.00000  Uiso   1.00
N451   N     0.03894   0.84935   0.42019   0.00000  Uiso   1.00
O452   O     0.01746   0.88523   0.42691   0.00000  Uiso   1.00
O453   O     0.02061   0.81802   0.40256   0.00000  Uiso   1.00
O454   O     0.01735   0.86074   0.03032   0.00000  Uiso   1.00
H455   H     0.01452   0.86304   0.06904   0.00000  Uiso   1.00
O456   O     0.46179   0.89442   0.25001   0.00000  Uiso   1.00
O457   O     0.53823   0.89441   0.25001   0.00000  Uiso   1.00
C458   C     0.50009   0.91323   0.24948   0.00000  Uiso   1.00
O459   O     0.44280   0.83333   0.32681   0.00000  Uiso   1.00
O460   O     0.51924   0.83332   0.32681   0.00000  Uiso   1.00
C461   C     0.47305   0.83112   0.35236   0.00000  Uiso   1.00
Zn462  Zn    0.44896   0.83334   0.25000   0.00000  Uiso   1.00
Zn463  Zn    0.55104   0.83333   0.25000   0.00000  Uiso   1.00
O464   O     0.46177   0.77226   0.24999   0.00000  Uiso   1.00
O465   O     0.53821   0.77225   0.24999   0.00000  Uiso   1.00
O466   O     0.48076   0.83335   0.17319   0.00000  Uiso   1.00
O467   O     0.55720   0.83334   0.17319   0.00000  Uiso   1.00
C468   C     0.50065   0.75330   0.24859   0.00000  Uiso   1.00
C469   C     0.52678   0.83302   0.14786   0.00000  Uiso   1.00
C470   C     0.59091   0.78832   0.00967   0.00000  Uiso   1.00
H471   H     0.60908   0.79411   0.08193   0.00000  Uiso   1.00
H472   H     0.59141   0.75972   0.41346   0.00000  Uiso   1.00
H473   H     0.62230   0.76954   0.48878   0.00000  Uiso   1.00
C474   C     0.54331   0.82693   0.08946   0.00000  Uiso   1.00
C475   C     0.40845   0.84192   0.44377   0.00000  Uiso   1.00
C476   C     0.39663   0.84785   0.49978   0.00000  Uiso   1.00
C477   C     0.43159   0.84096   0.02350   0.00000  Uiso   1.00
C478   C     0.47755   0.82532   0.49248   0.00000  Uiso   1.00
C479   C     0.48653   0.81353   0.43814   0.00000  Uiso   1.00
C480   C     0.51450   0.81987   0.01434   0.00000  Uiso   1.00
C481   C     0.55581   0.79584   0.48604   0.00000  Uiso   1.00
C482   C     0.56076   0.77904   0.43526   0.00000  Uiso   1.00
C483   C     0.52678   0.78809   0.41136   0.00000  Uiso   1.00
C484   C     0.51141   0.83797   0.06376   0.00000  Uiso   1.00
C485   C     0.58407   0.80303   0.06204   0.00000  Uiso   1.00
C486   C     0.45490   0.82727   0.41202   0.00000  Uiso   1.00
H487   H     0.48291   0.85948   0.08457   0.00000  Uiso   1.00
H488   H     0.42110   0.84576   0.06682   0.00000  Uiso   1.00
H489   H     0.53184   0.77433   0.37207   0.00000  Uiso   1.00
C490   C     0.53069   0.97827   0.26942   0.00000  Uiso   1.00
H491   H     0.55340   0.96200   0.28706   0.00000  Uiso   1.00
C492   C     0.53215   0.68732   0.26875   0.00000  Uiso   1.00
C493   C     0.50278   0.70896   0.24520   0.00000  Uiso   1.00
C494   C     0.47416   0.68736   0.22031   0.00000  Uiso   1.00
C495   C     0.47223   0.97794   0.22354   0.00000  Uiso   1.00
H496   H     0.45045   0.96080   0.20482   0.00000  Uiso   1.00
C497   C     0.50047   0.95720   0.24800   0.00000  Uiso   1.00
C498   C     0.65520   0.81468   0.20877   0.00000  Uiso   1.00
H499   H     0.64719   0.79975   0.17576   0.00000  Uiso   1.00
C500   C     0.36966   0.81447   0.20896   0.00000  Uiso   1.00
H501   H     0.39759   0.79927   0.17604   0.00000  Uiso   1.00
N502   N     0.38093   0.83334   0.25002   0.00000  Uiso   1.00
C503   C     0.34541   0.85207   0.29082   0.00000  Uiso   1.00
H504   H     0.35434   0.86773   0.32268   0.00000  Uiso   1.00
C505   C     0.63079   0.85180   0.29177   0.00000  Uiso   1.00
N506   N     0.61906   0.83331   0.25000   0.00000  Uiso   1.00
N507   N     0.56331   0.70734   0.29278   0.00000  Uiso   1.00
O508   O     0.55839   0.69906   0.34287   0.00000  Uiso   1.00
O509   O     0.60429   0.72180   0.26118   0.00000  Uiso   1.00
N510   N     0.44920   0.70797   0.18943   0.00000  Uiso   1.00
O511   O     0.47171   0.73473   0.15261   0.00000  Uiso   1.00
O512   O     0.40702   0.69509   0.19145   0.00000  Uiso   1.00
N513   N     0.59527   0.87083   0.33773   0.00000  Uiso   1.00
O514   O     0.57054   0.90207   0.33084   0.00000  Uiso   1.00
O515   O     0.59691   0.86482   0.38604   0.00000  Uiso   1.00
N516   N     0.37227   0.84935   0.42019   0.00000  Uiso   1.00
O517   O     0.35079   0.88523   0.42691   0.00000  Uiso   1.00
O518   O     0.35395   0.81802   0.40256   0.00000  Uiso   1.00
O519   O     0.35069   0.86074   0.03032   0.00000  Uiso   1.00
H520   H     0.34785   0.86304   0.06904   0.00000  Uiso   1.00
O521   O     0.79512   0.89442   0.25001   0.00000  Uiso   1.00
O522   O     0.87157   0.89441   0.25001   0.00000  Uiso   1.00
C523   C     0.83343   0.91323   0.24948   0.00000  Uiso   1.00
O524   O     0.77613   0.83333   0.32681   0.00000  Uiso   1.00
O525   O     0.85258   0.83332   0.32681   0.00000  Uiso   1.00
C526   C     0.80638   0.83112   0.35236   0.00000  Uiso   1.00
Zn527  Zn    0.78229   0.83334   0.25000   0.00000  Uiso   1.00
Zn528  Zn    0.88438   0.83333   0.25000   0.00000  Uiso   1.00
O529   O     0.79510   0.77226   0.24999   0.00000  Uiso   1.00
O530   O     0.87154   0.77225   0.24999   0.00000  Uiso   1.00
O531   O     0.81409   0.83335   0.17319   0.00000  Uiso   1.00
O532   O     0.89053   0.83334   0.17319   0.00000  Uiso   1.00
C533   C     0.83398   0.75330   0.24859   0.00000  Uiso   1.00
C534   C     0.86012   0.83302   0.14786   0.00000  Uiso   1.00
C535   C     0.92424   0.78832   0.00967   0.00000  Uiso   1.00
H536   H     0.94241   0.79411   0.08193   0.00000  Uiso   1.00
H537   H     0.92474   0.75972   0.41346   0.00000  Uiso   1.00
H538   H     0.95563   0.76954   0.48878   0.00000  Uiso   1.00
C539   C     0.87664   0.82693   0.08946   0.00000  Uiso   1.00
C540   C     0.74178   0.84192   0.44377   0.00000  Uiso   1.00
C541   C     0.72996   0.84785   0.49978   0.00000  Uiso   1.00
C542   C     0.76493   0.84096   0.02350   0.00000  Uiso   1.00
C543   C     0.81088   0.82532   0.49248   0.00000  Uiso   1.00
C544   C     0.81987   0.81353   0.43814   0.00000  Uiso   1.00
C545   C     0.84783   0.81987   0.01434   0.00000  Uiso   1.00
C546   C     0.88914   0.79584   0.48604   0.00000  Uiso   1.00
C547   C     0.89409   0.77904   0.43526   0.00000  Uiso   1.00
C548   C     0.86012   0.78809   0.41136   0.00000  Uiso   1.00
C549   C     0.84474   0.83797   0.06376   0.00000  Uiso   1.00
C550   C     0.91741   0.80303   0.06204   0.00000  Uiso   1.00
C551   C     0.78823   0.82727   0.41202   0.00000  Uiso   1.00
H552   H     0.81624   0.85948   0.08457   0.00000  Uiso   1.00
H553   H     0.75444   0.84576   0.06682   0.00000  Uiso   1.00
H554   H     0.86518   0.77433   0.37207   0.00000  Uiso   1.00
C555   C     0.86403   0.97827   0.26942   0.00000  Uiso   1.00
H556   H     0.88674   0.96200   0.28706   0.00000  Uiso   1.00
C557   C     0.86548   0.68732   0.26875   0.00000  Uiso   1.00
C558   C     0.83611   0.70896   0.24520   0.00000  Uiso   1.00
C559   C     0.80750   0.68736   0.22031   0.00000  Uiso   1.00
C560   C     0.80556   0.97794   0.22354   0.00000  Uiso   1.00
H561   H     0.78378   0.96080   0.20482   0.00000  Uiso   1.00
C562   C     0.83380   0.95720   0.24800   0.00000  Uiso   1.00
C563   C     0.98853   0.81468   0.20877   0.00000  Uiso   1.00
H564   H     0.98053   0.79975   0.17576   0.00000  Uiso   1.00
C565   C     0.70300   0.81447   0.20896   0.00000  Uiso   1.00
H566   H     0.73093   0.79927   0.17604   0.00000  Uiso   1.00
N567   N     0.71426   0.83334   0.25002   0.00000  Uiso   1.00
C568   C     0.67874   0.85207   0.29082   0.00000  Uiso   1.00
H569   H     0.68767   0.86773   0.32268   0.00000  Uiso   1.00
C570   C     0.96412   0.85180   0.29177   0.00000  Uiso   1.00
N571   N     0.95239   0.83331   0.25000   0.00000  Uiso   1.00
N572   N     0.89665   0.70734   0.29278   0.00000  Uiso   1.00
O573   O     0.89172   0.69906   0.34287   0.00000  Uiso   1.00
O574   O     0.93763   0.72180   0.26118   0.00000  Uiso   1.00
N575   N     0.78253   0.70797   0.18943   0.00000  Uiso   1.00
O576   O     0.80505   0.73473   0.15261   0.00000  Uiso   1.00
O577   O     0.74035   0.69509   0.19145   0.00000  Uiso   1.00
N578   N     0.92861   0.87083   0.33773   0.00000  Uiso   1.00
O579   O     0.90388   0.90207   0.33084   0.00000  Uiso   1.00
O580   O     0.93025   0.86482   0.38604   0.00000  Uiso   1.00
N581   N     0.70561   0.84935   0.42019   0.00000  Uiso   1.00
O582   O     0.68412   0.88523   0.42691   0.00000  Uiso   1.00
O583   O     0.68728   0.81802   0.40256   0.00000  Uiso   1.00
O584   O     0.68402   0.86074   0.03032   0.00000  Uiso   1.00
H585   H     0.68119   0.86304   0.06904   0.00000  Uiso   1.00
O586   O     0.12846   0.22775   0.75001   0.00000  Uiso   1.00
O587   O     0.20490   0.22774   0.75001   0.00000  Uiso   1.00
C588   C     0.16676   0.24657   0.74948   0.00000  Uiso   1.00
O589   O     0.10947   0.16666   0.82681   0.00000  Uiso   1.00
O590   O     0.18591   0.16665   0.82681   0.00000  Uiso   1.00
C591   C     0.13972   0.16445   0.85236   0.00000  Uiso   1.00
Zn592  Zn    0.11562   0.16667   0.75000   0.00000  Uiso   1.00
Zn593  Zn    0.21771   0.16666   0.75000   0.00000  Uiso   1.00
O594   O     0.12843   0.10559   0.74999   0.00000  Uiso   1.00
O595   O     0.20488   0.10558   0.74999   0.00000  Uiso   1.00
O596   O     0.14742   0.16668   0.67319   0.00000  Uiso   1.00
O597   O     0.22387   0.16667   0.67319   0.00000  Uiso   1.00
C598   C     0.16732   0.08663   0.74859   0.00000  Uiso   1.00
C599   C     0.19345   0.16635   0.64786   0.00000  Uiso   1.00
C600   C     0.25758   0.12165   0.50967   0.00000  Uiso   1.00
H601   H     0.27574   0.12744   0.58193   0.00000  Uiso   1.00
H602   H     0.25808   0.09305   0.91346   0.00000  Uiso   1.00
H603   H     0.28897   0.10287   0.98878   0.00000  Uiso   1.00
C604   C     0.20997   0.16027   0.58946   0.00000  Uiso   1.00
C605   C     0.07512   0.17525   0.94377   0.00000  Uiso   1.00
C606   C     0.06329   0.18118   0.99978   0.00000  Uiso   1.00
C607   C     0.09826   0.17429   0.52350   0.00000  Uiso   1.00
C608   C     0.14421   0.15865   0.99248   0.00000  Uiso   1.00
C609   C     0.15320   0.14687   0.93814   0.00000  Uiso   1.00
C610   C     0.18116   0.15320   0.51434   0.00000  Uiso   1.00
C611   C     0.22247   0.12917   0.98604   0.00000  Uiso   1.00
C612   C     0.22743   0.11238   0.93526   0.00000  Uiso   1.00
C613   C     0.19345   0.12142   0.91136   0.00000  Uiso   1.00
C614   C     0.17807   0.17131   0.56376   0.00000  Uiso   1.00
C615   C     0.25074   0.13637   0.56204   0.00000  Uiso   1.00
C616   C     0.12157   0.16060   0.91202   0.00000  Uiso   1.00
H617   H     0.14957   0.19281   0.58457   0.00000  Uiso   1.00
H618   H     0.08777   0.17909   0.56682   0.00000  Uiso   1.00
H619   H     0.19851   0.10766   0.87207   0.00000  Uiso   1.00
C620   C     0.19736   0.31161   0.76942   0.00000  Uiso   1.00
H621   H     0.22007   0.29533   0.78706   0.00000  Uiso   1.00
C622   C     0.19881   0.02066   0.76875   0.00000  Uiso   1.00
C623   C     0.16944   0.04230   0.74520   0.00000  Uiso   1.00
C624   C     0.14083   0.02069   0.72031   0.00000  Uiso   1.00
C625   C     0.13889   0.31127   0.72354   0.00000  Uiso   1.00
H626   H     0.11711   0.29413   0.70482   0.00000  Uiso   1.00
C627   C     0.16714   0.29053   0.74800   0.00000  Uiso   1.00
C628   C     0.32186   0.14802   0.70877   0.00000  Uiso   1.00
H629   H     0.31386   0.13309   0.67576   0.00000  Uiso   1.00
C630   C     0.03633   0.14780   0.70896   0.00000  Uiso   1.00
H631   H     0.06426   0.13260   0.67604   0.00000  Uiso   1.00
N632   N     0.04760   0.16668   0.75002   0.00000  Uiso   1.00
C633   C     0.01207   0.18540   0.79082   0.00000  Uiso   1.00
H634   H     0.02100   0.20106   0.82268   0.00000  Uiso   1.00
C635   C     0.29745   0.18513   0.79177   0.00000  Uiso   1.00
N636   N     0.28573   0.16665   0.75000   0.00000  Uiso   1.00
N637   N     0.22998   0.04067   0.79278   0.00000  Uiso   1.00
O638   O     0.22506   0.03239   0.84287   0.00000  Uiso   1.00
O639   O     0.27096   0.05514   0.76118   0.00000  Uiso   1.00
N640   N     0.11587   0.04131   0.68943   0.00000  Uiso   1.00
O641   O     0.13838   0.06806   0.65261   0.00000  Uiso   1.00
O642   O     0.07368   0.02842   0.69145   0.00000  Uiso   1.00
N643   N     0.26194   0.20417   0.83773   0.00000  Uiso   1.00
O644   O     0.23721   0.23541   0.83084   0.00000  Uiso   1.00
O645   O     0.26358   0.19815   0.88604   0.00000  Uiso   1.00
N646   N     0.03894   0.18268   0.92019   0.00000  Uiso   1.00
O647   O     0.01746   0.21856   0.92691   0.00000  Uiso   1.00
O648   O     0.02061   0.15136   0.90256   0.00000  Uiso   1.00
O649   O     0.01735   0.19407   0.53032   0.00000  Uiso   1.00
H650   H     0.01452   0.19637   0.56904   0.00000  Uiso   1.00
O651   O     0.46179   0.22775   0.75001   0.00000  Uiso   1.00
O652   O     0.53823   0.22774   0.75001   0.00000  Uiso   1.00
C653   C     0.50009   0.24657   0.74948   0.00000  Uiso   1.00
O654   O     0.44280   0.16666   0.82681   0.00000  Uiso   1.00
O655   O     0.51924   0.16665   0.82681   0.00000  Uiso   1.00
C656   C     0.47305   0.16445   0.85236   0.00000  Uiso   1.00
Zn657  Zn    0.44896   0.16667   0.75000   0.00000  Uiso   1.00
Zn658  Zn    0.55104   0.16666   0.75000   0.00000  Uiso   1.00
O659   O     0.46177   0.10559   0.74999   0.00000  Uiso   1.00
O660   O     0.53821   0.10558   0.74999   0.00000  Uiso   1.00
O661   O     0.48076   0.16668   0.67319   0.00000  Uiso   1.00
O662   O     0.55720   0.16667   0.67319   0.00000  Uiso   1.00
C663   C     0.50065   0.08663   0.74859   0.00000  Uiso   1.00
C664   C     0.52678   0.16635   0.64786   0.00000  Uiso   1.00
C665   C     0.59091   0.12165   0.50967   0.00000  Uiso   1.00
H666   H     0.60908   0.12744   0.58193   0.00000  Uiso   1.00
H667   H     0.59141   0.09305   0.91346   0.00000  Uiso   1.00
H668   H     0.62230   0.10287   0.98878   0.00000  Uiso   1.00
C669   C     0.54331   0.16027   0.58946   0.00000  Uiso   1.00
C670   C     0.40845   0.17525   0.94377   0.00000  Uiso   1.00
C671   C     0.39663   0.18118   0.99978   0.00000  Uiso   1.00
C672   C     0.43159   0.17429   0.52350   0.00000  Uiso   1.00
C673   C     0.47755   0.15865   0.99248   0.00000  Uiso   1.00
C674   C     0.48653   0.14687   0.93814   0.00000  Uiso   1.00
C675   C     0.51450   0.15320   0.51434   0.00000  Uiso   1.00
C676   C     0.55581   0.12917   0.98604   0.00000  Uiso   1.00
C677   C     0.56076   0.11238   0.93526   0.00000  Uiso   1.00
C678   C     0.52678   0.12142   0.91136   0.00000  Uiso   1.00
C679   C     0.51141   0.17131   0.56376   0.00000  Uiso   1.00
C680   C     0.58407   0.13637   0.56204   0.00000  Uiso   1.00
C681   C     0.45490   0.16060   0.91202   0.00000  Uiso   1.00
H682   H     0.48291   0.19281   0.58457   0.00000  Uiso   1.00
H683   H     0.42110   0.17909   0.56682   0.00000  Uiso   1.00
H684   H     0.53184   0.10766   0.87207   0.00000  Uiso   1.00
C685   C     0.53069   0.31161   0.76942   0.00000  Uiso   1.00
H686   H     0.55340   0.29533   0.78706   0.00000  Uiso   1.00
C687   C     0.53215   0.02066   0.76875   0.00000  Uiso   1.00
C688   C     0.50278   0.04230   0.74520   0.00000  Uiso   1.00
C689   C     0.47416   0.02069   0.72031   0.00000  Uiso   1.00
C690   C     0.47223   0.31127   0.72354   0.00000  Uiso   1.00
H691   H     0.45045   0.29413   0.70482   0.00000  Uiso   1.00
C692   C     0.50047   0.29053   0.74800   0.00000  Uiso   1.00
C693   C     0.65520   0.14802   0.70877   0.00000  Uiso   1.00
H694   H     0.64719   0.13309   0.67576   0.00000  Uiso   1.00
C695   C     0.36966   0.14780   0.70896   0.00000  Uiso   1.00
H696   H     0.39759   0.13260   0.67604   0.00000  Uiso   1.00
N697   N     0.38093   0.16668   0.75002   0.00000  Uiso   1.00
C698   C     0.34541   0.18540   0.79082   0.00000  Uiso   1.00
H699   H     0.35434   0.20106   0.82268   0.00000  Uiso   1.00
C700   C     0.63079   0.18513   0.79177   0.00000  Uiso   1.00
N701   N     0.61906   0.16665   0.75000   0.00000  Uiso   1.00
N702   N     0.56331   0.04067   0.79278   0.00000  Uiso   1.00
O703   O     0.55839   0.03239   0.84287   0.00000  Uiso   1.00
O704   O     0.60429   0.05514   0.76118   0.00000  Uiso   1.00
N705   N     0.44920   0.04131   0.68943   0.00000  Uiso   1.00
O706   O     0.47171   0.06806   0.65261   0.00000  Uiso   1.00
O707   O     0.40702   0.02842   0.69145   0.00000  Uiso   1.00
N708   N     0.59527   0.20417   0.83773   0.00000  Uiso   1.00
O709   O     0.57054   0.23541   0.83084   0.00000  Uiso   1.00
O710   O     0.59691   0.19815   0.88604   0.00000  Uiso   1.00
N711   N     0.37227   0.18268   0.92019   0.00000  Uiso   1.00
O712   O     0.35079   0.21856   0.92691   0.00000  Uiso   1.00
O713   O     0.35395   0.15136   0.90256   0.00000  Uiso   1.00
O714   O     0.35069   0.19407   0.53032   0.00000  Uiso   1.00
H715   H     0.34785   0.19637   0.56904   0.00000  Uiso   1.00
O716   O     0.79512   0.22775   0.75001   0.00000  Uiso   1.00
O717   O     0.87157   0.22774   0.75001   0.00000  Uiso   1.00
C718   C     0.83343   0.24657   0.74948   0.00000  Uiso   1.00
O719   O     0.77613   0.16666   0.82681   0.00000  Uiso   1.00
O720   O     0.85258   0.16665   0.82681   0.00000  Uiso   1.00
C721   C     0.80638   0.16445   0.85236   0.00000  Uiso   1.00
Zn722  Zn    0.78229   0.16667   0.75000   0.00000  Uiso   1.00
Zn723  Zn    0.88438   0.16666   0.75000   0.00000  Uiso   1.00
O724   O     0.79510   0.10559   0.74999   0.00000  Uiso   1.00
O725   O     0.87154   0.10558   0.74999   0.00000  Uiso   1.00
O726   O     0.81409   0.16668   0.67319   0.00000  Uiso   1.00
O727   O     0.89053   0.16667   0.67319   0.00000  Uiso   1.00
C728   C     0.83398   0.08663   0.74859   0.00000  Uiso   1.00
C729   C     0.86012   0.16635   0.64786   0.00000  Uiso   1.00
C730   C     0.92424   0.12165   0.50967   0.00000  Uiso   1.00
H731   H     0.94241   0.12744   0.58193   0.00000  Uiso   1.00
H732   H     0.92474   0.09305   0.91346   0.00000  Uiso   1.00
H733   H     0.95563   0.10287   0.98878   0.00000  Uiso   1.00
C734   C     0.87664   0.16027   0.58946   0.00000  Uiso   1.00
C735   C     0.74178   0.17525   0.94377   0.00000  Uiso   1.00
C736   C     0.72996   0.18118   0.99978   0.00000  Uiso   1.00
C737   C     0.76493   0.17429   0.52350   0.00000  Uiso   1.00
C738   C     0.81088   0.15865   0.99248   0.00000  Uiso   1.00
C739   C     0.81987   0.14687   0.93814   0.00000  Uiso   1.00
C740   C     0.84783   0.15320   0.51434   0.00000  Uiso   1.00
C741   C     0.88914   0.12917   0.98604   0.00000  Uiso   1.00
C742   C     0.89409   0.11238   0.93526   0.00000  Uiso   1.00
C743   C     0.86012   0.12142   0.91136   0.00000  Uiso   1.00
C744   C     0.84474   0.17131   0.56376   0.00000  Uiso   1.00
C745   C     0.91741   0.13637   0.56204   0.00000  Uiso   1.00
C746   C     0.78823   0.16060   0.91202   0.00000  Uiso   1.00
H747   H     0.81624   0.19281   0.58457   0.00000  Uiso   1.00
H748   H     0.75444   0.17909   0.56682   0.00000  Uiso   1.00
H749   H     0.86518   0.10766   0.87207   0.00000  Uiso   1.00
C750   C     0.86403   0.31161   0.76942   0.00000  Uiso   1.00
H751   H     0.88674   0.29533   0.78706   0.00000  Uiso   1.00
C752   C     0.86548   0.02066   0.76875   0.00000  Uiso   1.00
C753   C     0.83611   0.04230   0.74520   0.00000  Uiso   1.00
C754   C     0.80750   0.02069   0.72031   0.00000  Uiso   1.00
C755   C     0.80556   0.31127   0.72354   0.00000  Uiso   1.00
H756   H     0.78378   0.29413   0.70482   0.00000  Uiso   1.00
C757   C     0.83380   0.29053   0.74800   0.00000  Uiso   1.00
C758   C     0.98853   0.14802   0.70877   0.00000  Uiso   1.00
H759   H     0.98053   0.13309   0.67576   0.00000  Uiso   1.00
C760   C     0.70300   0.14780   0.70896   0.00000  Uiso   1.00
H761   H     0.73093   0.13260   0.67604   0.00000  Uiso   1.00
N762   N     0.71426   0.16668   0.75002   0.00000  Uiso   1.00
C763   C     0.67874   0.18540   0.79082   0.00000  Uiso   1.00
H764   H     0.68767   0.20106   0.82268   0.00000  Uiso   1.00
C765   C     0.96412   0.18513   0.79177   0.00000  Uiso   1.00
N766   N     0.95239   0.16665   0.75000   0.00000  Uiso   1.00
N767   N     0.89665   0.04067   0.79278   0.00000  Uiso   1.00
O768   O     0.89172   0.03239   0.84287   0.00000  Uiso   1.00
O769   O     0.93763   0.05514   0.76118   0.00000  Uiso   1.00
N770   N     0.78253   0.04131   0.68943   0.00000  Uiso   1.00
O771   O     0.80505   0.06806   0.65261   0.00000  Uiso   1.00
O772   O     0.74035   0.02842   0.69145   0.00000  Uiso   1.00
N773   N     0.92861   0.20417   0.83773   0.00000  Uiso   1.00
O774   O     0.90388   0.23541   0.83084   0.00000  Uiso   1.00
O775   O     0.93025   0.19815   0.88604   0.00000  Uiso   1.00
N776   N     0.70561   0.18268   0.92019   0.00000  Uiso   1.00
O777   O     0.68412   0.21856   0.92691   0.00000  Uiso   1.00
O778   O     0.68728   0.15136   0.90256   0.00000  Uiso   1.00
O779   O     0.68402   0.19407   0.53032   0.00000  Uiso   1.00
H780   H     0.68119   0.19637   0.56904   0.00000  Uiso   1.00
O781   O     0.12846   0.56108   0.75001   0.00000  Uiso   1.00
O782   O     0.20490   0.56107   0.75001   0.00000  Uiso   1.00
C783   C     0.16676   0.57990   0.74948   0.00000  Uiso   1.00
O784   O     0.10947   0.50000   0.82681   0.00000  Uiso   1.00
O785   O     0.18591   0.49999   0.82681   0.00000  Uiso   1.00
C786   C     0.13972   0.49778   0.85236   0.00000  Uiso   1.00
Zn787  Zn    0.11562   0.50001   0.75000   0.00000  Uiso   1.00
Zn788  Zn    0.21771   0.49999   0.75000   0.00000  Uiso   1.00
O789   O     0.12843   0.43893   0.74999   0.00000  Uiso   1.00
O790   O     0.20488   0.43892   0.74999   0.00000  Uiso   1.00
O791   O     0.14742   0.50001   0.67319   0.00000  Uiso   1.00
O792   O     0.22387   0.50000   0.67319   0.00000  Uiso   1.00
C793   C     0.16732   0.41996   0.74859   0.00000  Uiso   1.00
C794   C     0.19345   0.49969   0.64786   0.00000  Uiso   1.00
C795   C     0.25758   0.45499   0.50967   0.00000  Uiso   1.00
H796   H     0.27574   0.46077   0.58193   0.00000  Uiso   1.00
H797   H     0.25808   0.42638   0.91346   0.00000  Uiso   1.00
H798   H     0.28897   0.43621   0.98878   0.00000  Uiso   1.00
C799   C     0.20997   0.49360   0.58946   0.00000  Uiso   1.00
C800   C     0.07512   0.50858   0.94377   0.00000  Uiso   1.00
C801   C     0.06329   0.51451   0.99978   0.00000  Uiso   1.00
C802   C     0.09826   0.50762   0.52350   0.00000  Uiso   1.00
C803   C     0.14421   0.49198   0.99248   0.00000  Uiso   1.00
C804   C     0.15320   0.48020   0.93814   0.00000  Uiso   1.00
C805   C     0.18116   0.48654   0.51434   0.00000  Uiso   1.00
C806   C     0.22247   0.46251   0.98604   0.00000  Uiso   1.00
C807   C     0.22743   0.44571   0.93526   0.00000  Uiso   1.00
C808   C     0.19345   0.45475   0.91136   0.00000  Uiso   1.00
C809   C     0.17807   0.50464   0.56376   0.00000  Uiso   1.00
C810   C     0.25074   0.46970   0.56204   0.00000  Uiso   1.00
C811   C     0.12157   0.49394   0.91202   0.00000  Uiso   1.00
H812   H     0.14957   0.52615   0.58457   0.00000  Uiso   1.00
H813   H     0.08777   0.51242   0.56682   0.00000  Uiso   1.00
H814   H     0.19851   0.44099   0.87207   0.00000  Uiso   1.00
C815   C     0.19736   0.64494   0.76942   0.00000  Uiso   1.00
H816   H     0.22007   0.62866   0.78706   0.00000  Uiso   1.00
C817   C     0.19881   0.35399   0.76875   0.00000  Uiso   1.00
C818   C     0.16944   0.37563   0.74520   0.00000  Uiso   1.00
C819   C     0.14083   0.35403   0.72031   0.00000  Uiso   1.00
C820   C     0.13889   0.64461   0.72354   0.00000  Uiso   1.00
H821   H     0.11711   0.62746   0.70482   0.00000  Uiso   1.00
C822   C     0.16714   0.62387   0.74800   0.00000  Uiso   1.00
C823   C     0.32186   0.48135   0.70877   0.00000  Uiso   1.00
H824   H     0.31386   0.46642   0.67576   0.00000  Uiso   1.00
C825   C     0.03633   0.48114   0.70896   0.00000  Uiso   1.00
H826   H     0.06426   0.46594   0.67604   0.00000  Uiso   1.00
N827   N     0.04760   0.50001   0.75002   0.00000  Uiso   1.00
C828   C     0.01207   0.51873   0.79082   0.00000  Uiso   1.00
H829   H     0.02100   0.53440   0.82268   0.00000  Uiso   1.00
C830   C     0.29745   0.51846   0.79177   0.00000  Uiso   1.00
N831   N     0.28573   0.49998   0.75000   0.00000  Uiso   1.00
N832   N     0.22998   0.37400   0.79278   0.00000  Uiso   1.00
O833   O     0.22506   0.36572   0.84287   0.00000  Uiso   1.00
O834   O     0.27096   0.38847   0.76118   0.00000  Uiso   1.00
N835   N     0.11587   0.37464   0.68943   0.00000  Uiso   1.00
O836   O     0.13838   0.40139   0.65261   0.00000  Uiso   1.00
O837   O     0.07368   0.36175   0.69145   0.00000  Uiso   1.00
N838   N     0.26194   0.53750   0.83773   0.00000  Uiso   1.00
O839   O     0.23721   0.56874   0.83084   0.00000  Uiso   1.00
O840   O     0.26358   0.53149   0.88604   0.00000  Uiso   1.00
N841   N     0.03894   0.51602   0.92019   0.00000  Uiso   1.00
O842   O     0.01746   0.55190   0.92691   0.00000  Uiso   1.00
O843   O     0.02061   0.48469   0.90256   0.00000  Uiso   1.00
O844   O     0.01735   0.52741   0.53032   0.00000  Uiso   1.00
H845   H     0.01452   0.52971   0.56904   0.00000  Uiso   1.00
O846   O     0.46179   0.56108   0.75001   0.00000  Uiso   1.00
O847   O     0.53823   0.56107   0.75001   0.00000  Uiso   1.00
C848   C     0.50009   0.57990   0.74948   0.00000  Uiso   1.00
O849   O     0.44280   0.50000   0.82681   0.00000  Uiso   1.00
O850   O     0.51924   0.49999   0.82681   0.00000  Uiso   1.00
C851   C     0.47305   0.49778   0.85236   0.00000  Uiso   1.00
Zn852  Zn    0.44896   0.50001   0.75000   0.00000  Uiso   1.00
Zn853  Zn    0.55104   0.49999   0.75000   0.00000  Uiso   1.00
O854   O     0.46177   0.43893   0.74999   0.00000  Uiso   1.00
O855   O     0.53821   0.43892   0.74999   0.00000  Uiso   1.00
O856   O     0.48076   0.50001   0.67319   0.00000  Uiso   1.00
O857   O     0.55720   0.50000   0.67319   0.00000  Uiso   1.00
C858   C     0.50065   0.41996   0.74859   0.00000  Uiso   1.00
C859   C     0.52678   0.49969   0.64786   0.00000  Uiso   1.00
C860   C     0.59091   0.45499   0.50967   0.00000  Uiso   1.00
H861   H     0.60908   0.46077   0.58193   0.00000  Uiso   1.00
H862   H     0.59141   0.42638   0.91346   0.00000  Uiso   1.00
H863   H     0.62230   0.43621   0.98878   0.00000  Uiso   1.00
C864   C     0.54331   0.49360   0.58946   0.00000  Uiso   1.00
C865   C     0.40845   0.50858   0.94377   0.00000  Uiso   1.00
C866   C     0.39663   0.51451   0.99978   0.00000  Uiso   1.00
C867   C     0.43159   0.50762   0.52350   0.00000  Uiso   1.00
C868   C     0.47755   0.49198   0.99248   0.00000  Uiso   1.00
C869   C     0.48653   0.48020   0.93814   0.00000  Uiso   1.00
C870   C     0.51450   0.48654   0.51434   0.00000  Uiso   1.00
C871   C     0.55581   0.46251   0.98604   0.00000  Uiso   1.00
C872   C     0.56076   0.44571   0.93526   0.00000  Uiso   1.00
C873   C     0.52678   0.45475   0.91136   0.00000  Uiso   1.00
C874   C     0.51141   0.50464   0.56376   0.00000  Uiso   1.00
C875   C     0.58407   0.46970   0.56204   0.00000  Uiso   1.00
C876   C     0.45490   0.49394   0.91202   0.00000  Uiso   1.00
H877   H     0.48291   0.52615   0.58457   0.00000  Uiso   1.00
H878   H     0.42110   0.51242   0.56682   0.00000  Uiso   1.00
H879   H     0.53184   0.44099   0.87207   0.00000  Uiso   1.00
C880   C     0.53069   0.64494   0.76942   0.00000  Uiso   1.00
H881   H     0.55340   0.62866   0.78706   0.00000  Uiso   1.00
C882   C     0.53215   0.35399   0.76875   0.00000  Uiso   1.00
C883   C     0.50278   0.37563   0.74520   0.00000  Uiso   1.00
C884   C     0.47416   0.35403   0.72031   0.00000  Uiso   1.00
C885   C     0.47223   0.64461   0.72354   0.00000  Uiso   1.00
H886   H     0.45045   0.62746   0.70482   0.00000  Uiso   1.00
C887   C     0.50047   0.62387   0.74800   0.00000  Uiso   1.00
C888   C     0.65520   0.48135   0.70877   0.00000  Uiso   1.00
H889   H     0.64719   0.46642   0.67576   0.00000  Uiso   1.00
C890   C     0.36966   0.48114   0.70896   0.00000  Uiso   1.00
H891   H     0.39759   0.46594   0.67604   0.00000  Uiso   1.00
N892   N     0.38093   0.50001   0.75002   0.00000  Uiso   1.00
C893   C     0.34541   0.51873   0.79082   0.00000  Uiso   1.00
H894   H     0.35434   0.53440   0.82268   0.00000  Uiso   1.00
C895   C     0.63079   0.51846   0.79177   0.00000  Uiso   1.00
N896   N     0.61906   0.49998   0.75000   0.00000  Uiso   1.00
N897   N     0.56331   0.37400   0.79278   0.00000  Uiso   1.00
O898   O     0.55839   0.36572   0.84287   0.00000  Uiso   1.00
O899   O     0.60429   0.38847   0.76118   0.00000  Uiso   1.00
N900   N     0.44920   0.37464   0.68943   0.00000  Uiso   1.00
O901   O     0.47171   0.40139   0.65261   0.00000  Uiso   1.00
O902   O     0.40702   0.36175   0.69145   0.00000  Uiso   1.00
N903   N     0.59527   0.53750   0.83773   0.00000  Uiso   1.00
O904   O     0.57054   0.56874   0.83084   0.00000  Uiso   1.00
O905   O     0.59691   0.53149   0.88604   0.00000  Uiso   1.00
N906   N     0.37227   0.51602   0.92019   0.00000  Uiso   1.00
O907   O     0.35079   0.55190   0.92691   0.00000  Uiso   1.00
O908   O     0.35395   0.48469   0.90256   0.00000  Uiso   1.00
O909   O     0.35069   0.52741   0.53032   0.00000  Uiso   1.00
H910   H     0.34785   0.52971   0.56904   0.00000  Uiso   1.00
O911   O     0.79512   0.56108   0.75001   0.00000  Uiso   1.00
O912   O     0.87157   0.56107   0.75001   0.00000  Uiso   1.00
C913   C     0.83343   0.57990   0.74948   0.00000  Uiso   1.00
O914   O     0.77613   0.50000   0.82681   0.00000  Uiso   1.00
O915   O     0.85258   0.49999   0.82681   0.00000  Uiso   1.00
C916   C     0.80638   0.49778   0.85236   0.00000  Uiso   1.00
Zn917  Zn    0.78229   0.50001   0.75000   0.00000  Uiso   1.00
Zn918  Zn    0.88438   0.49999   0.75000   0.00000  Uiso   1.00
O919   O     0.79510   0.43893   0.74999   0.00000  Uiso   1.00
O920   O     0.87154   0.43892   0.74999   0.00000  Uiso   1.00
O921   O     0.81409   0.50001   0.67319   0.00000  Uiso   1.00
O922   O     0.89053   0.50000   0.67319   0.00000  Uiso   1.00
C923   C     0.83398   0.41996   0.74859   0.00000  Uiso   1.00
C924   C     0.86012   0.49969   0.64786   0.00000  Uiso   1.00
C925   C     0.92424   0.45499   0.50967   0.00000  Uiso   1.00
H926   H     0.94241   0.46077   0.58193   0.00000  Uiso   1.00
H927   H     0.92474   0.42638   0.91346   0.00000  Uiso   1.00
H928   H     0.95563   0.43621   0.98878   0.00000  Uiso   1.00
C929   C     0.87664   0.49360   0.58946   0.00000  Uiso   1.00
C930   C     0.74178   0.50858   0.94377   0.00000  Uiso   1.00
C931   C     0.72996   0.51451   0.99978   0.00000  Uiso   1.00
C932   C     0.76493   0.50762   0.52350   0.00000  Uiso   1.00
C933   C     0.81088   0.49198   0.99248   0.00000  Uiso   1.00
C934   C     0.81987   0.48020   0.93814   0.00000  Uiso   1.00
C935   C     0.84783   0.48654   0.51434   0.00000  Uiso   1.00
C936   C     0.88914   0.46251   0.98604   0.00000  Uiso   1.00
C937   C     0.89409   0.44571   0.93526   0.00000  Uiso   1.00
C938   C     0.86012   0.45475   0.91136   0.00000  Uiso   1.00
C939   C     0.84474   0.50464   0.56376   0.00000  Uiso   1.00
C940   C     0.91741   0.46970   0.56204   0.00000  Uiso   1.00
C941   C     0.78823   0.49394   0.91202   0.00000  Uiso   1.00
H942   H     0.81624   0.52615   0.58457   0.00000  Uiso   1.00
H943   H     0.75444   0.51242   0.56682   0.00000  Uiso   1.00
H944   H     0.86518   0.44099   0.87207   0.00000  Uiso   1.00
C945   C     0.86403   0.64494   0.76942   0.00000  Uiso   1.00
H946   H     0.88674   0.62866   0.78706   0.00000  Uiso   1.00
C947   C     0.86548   0.35399   0.76875   0.00000  Uiso   1.00
C948   C     0.83611   0.37563   0.74520   0.00000  Uiso   1.00
C949   C     0.80750   0.35403   0.72031   0.00000  Uiso   1.00
C950   C     0.80556   0.64461   0.72354   0.00000  Uiso   1.00
H951   H     0.78378   0.62746   0.70482   0.00000  Uiso   1.00
C952   C     0.83380   0.62387   0.74800   0.00000  Uiso   1.00
C953   C     0.98853   0.48135   0.70877   0.00000  Uiso   1.00
H954   H     0.98053   0.46642   0.67576   0.00000  Uiso   1.00
C955   C     0.70300   0.48114   0.70896   0.00000  Uiso   1.00
H956   H     0.73093   0.46594   0.67604   0.00000  Uiso   1.00
N957   N     0.71426   0.50001   0.75002   0.00000  Uiso   1.00
C958   C     0.67874   0.51873   0.79082   0.00000  Uiso   1.00
H959   H     0.68767   0.53440   0.82268   0.00000  Uiso   1.00
C960   C     0.96412   0.51846   0.79177   0.00000  Uiso   1.00
N961   N     0.95239   0.49998   0.75000   0.00000  Uiso   1.00
N962   N     0.89665   0.37400   0.79278   0.00000  Uiso   1.00
O963   O     0.89172   0.36572   0.84287   0.00000  Uiso   1.00
O964   O     0.93763   0.38847   0.76118   0.00000  Uiso   1.00
N965   N     0.78253   0.37464   0.68943   0.00000  Uiso   1.00
O966   O     0.80505   0.40139   0.65261   0.00000  Uiso   1.00
O967   O     0.74035   0.36175   0.69145   0.00000  Uiso   1.00
N968   N     0.92861   0.53750   0.83773   0.00000  Uiso   1.00
O969   O     0.90388   0.56874   0.83084   0.00000  Uiso   1.00
O970   O     0.93025   0.53149   0.88604   0.00000  Uiso   1.00
N971   N     0.70561   0.51602   0.92019   0.00000  Uiso   1.00
O972   O     0.68412   0.55190   0.92691   0.00000  Uiso   1.00
O973   O     0.68728   0.48469   0.90256   0.00000  Uiso   1.00
O974   O     0.68402   0.52741   0.53032   0.00000  Uiso   1.00
H975   H     0.68119   0.52971   0.56904   0.00000  Uiso   1.00
O976   O     0.12846   0.89442   0.75001   0.00000  Uiso   1.00
O977   O     0.20490   0.89441   0.75001   0.00000  Uiso   1.00
C978   C     0.16676   0.91323   0.74948   0.00000  Uiso   1.00
O979   O     0.10947   0.83333   0.82681   0.00000  Uiso   1.00
O980   O     0.18591   0.83332   0.82681   0.00000  Uiso   1.00
C981   C     0.13972   0.83112   0.85236   0.00000  Uiso   1.00
Zn982  Zn    0.11562   0.83334   0.75000   0.00000  Uiso   1.00
Zn983  Zn    0.21771   0.83333   0.75000   0.00000  Uiso   1.00
O984   O     0.12843   0.77226   0.74999   0.00000  Uiso   1.00
O985   O     0.20488   0.77225   0.74999   0.00000  Uiso   1.00
O986   O     0.14742   0.83335   0.67319   0.00000  Uiso   1.00
O987   O     0.22387   0.83334   0.67319   0.00000  Uiso   1.00
C988   C     0.16732   0.75330   0.74859   0.00000  Uiso   1.00
C989   C     0.19345   0.83302   0.64786   0.00000  Uiso   1.00
C990   C     0.25758   0.78832   0.50967   0.00000  Uiso   1.00
H991   H     0.27574   0.79411   0.58193   0.00000  Uiso   1.00
H992   H     0.25808   0.75972   0.91346   0.00000  Uiso   1.00
H993   H     0.28897   0.76954   0.98878   0.00000  Uiso   1.00
C994   C     0.20997   0.82693   0.58946   0.00000  Uiso   1.00
C995   C     0.07512   0.84192   0.94377   0.00000  Uiso   1.00
C996   C     0.06329   0.84785   0.99978   0.00000  Uiso   1.00
C997   C     0.09826   0.84096   0.52350   0.00000  Uiso   1.00
C998   C     0.14421   0.82532   0.99248   0.00000  Uiso   1.00
C999   C     0.15320   0.81353   0.93814   0.00000  Uiso   1.00
C1000  C     0.18116   0.81987   0.51434   0.00000  Uiso   1.00
C1001  C     0.22247   0.79584   0.98604   0.00000  Uiso   1.00
C1002  C     0.22743   0.77904   0.93526   0.00000  Uiso   1.00
C1003  C     0.19345   0.78809   0.91136   0.00000  Uiso   1.00
C1004  C     0.17807   0.83797   0.56376   0.00000  Uiso   1.00
C1005  C     0.25074   0.80303   0.56204   0.00000  Uiso   1.00
C1006  C     0.12157   0.82727   0.91202   0.00000  Uiso   1.00
H1007  H     0.14957   0.85948   0.58457   0.00000  Uiso   1.00
H1008  H     0.08777   0.84576   0.56682   0.00000  Uiso   1.00
H1009  H     0.19851   0.77433   0.87207   0.00000  Uiso   1.00
C1010  C     0.19736   0.97827   0.76942   0.00000  Uiso   1.00
H1011  H     0.22007   0.96200   0.78706   0.00000  Uiso   1.00
C1012  C     0.19881   0.68732   0.76875   0.00000  Uiso   1.00
C1013  C     0.16944   0.70896   0.74520   0.00000  Uiso   1.00
C1014  C     0.14083   0.68736   0.72031   0.00000  Uiso   1.00
C1015  C     0.13889   0.97794   0.72354   0.00000  Uiso   1.00
H1016  H     0.11711   0.96080   0.70482   0.00000  Uiso   1.00
C1017  C     0.16714   0.95720   0.74800   0.00000  Uiso   1.00
C1018  C     0.32186   0.81468   0.70877   0.00000  Uiso   1.00
H1019  H     0.31386   0.79975   0.67576   0.00000  Uiso   1.00
C1020  C     0.03633   0.81447   0.70896   0.00000  Uiso   1.00
H1021  H     0.06426   0.79927   0.67604   0.00000  Uiso   1.00
N1022  N     0.04760   0.83334   0.75002   0.00000  Uiso   1.00
C1023  C     0.01207   0.85207   0.79082   0.00000  Uiso   1.00
H1024  H     0.02100   0.86773   0.82268   0.00000  Uiso   1.00
C1025  C     0.29745   0.85180   0.79177   0.00000  Uiso   1.00
N1026  N     0.28573   0.83331   0.75000   0.00000  Uiso   1.00
N1027  N     0.22998   0.70734   0.79278   0.00000  Uiso   1.00
O1028  O     0.22506   0.69906   0.84287   0.00000  Uiso   1.00
O1029  O     0.27096   0.72180   0.76118   0.00000  Uiso   1.00
N1030  N     0.11587   0.70797   0.68943   0.00000  Uiso   1.00
O1031  O     0.13838   0.73473   0.65261   0.00000  Uiso   1.00
O1032  O     0.07368   0.69509   0.69145   0.00000  Uiso   1.00
N1033  N     0.26194   0.87083   0.83773   0.00000  Uiso   1.00
O1034  O     0.23721   0.90207   0.83084   0.00000  Uiso   1.00
O1035  O     0.26358   0.86482   0.88604   0.00000  Uiso   1.00
N1036  N     0.03894   0.84935   0.92019   0.00000  Uiso   1.00
O1037  O     0.01746   0.88523   0.92691   0.00000  Uiso   1.00
O1038  O     0.02061   0.81802   0.90256   0.00000  Uiso   1.00
O1039  O     0.01735   0.86074   0.53032   0.00000  Uiso   1.00
H1040  H     0.01452   0.86304   0.56904   0.00000  Uiso   1.00
O1041  O     0.46179   0.89442   0.75001   0.00000  Uiso   1.00
O1042  O     0.53823   0.89441   0.75001   0.00000  Uiso   1.00
C1043  C     0.50009   0.91323   0.74948   0.00000  Uiso   1.00
O1044  O     0.44280   0.83333   0.82681   0.00000  Uiso   1.00
O1045  O     0.51924   0.83332   0.82681   0.00000  Uiso   1.00
C1046  C     0.47305   0.83112   0.85236   0.00000  Uiso   1.00
Zn1047 Zn    0.44896   0.83334   0.75000   0.00000  Uiso   1.00
Zn1048 Zn    0.55104   0.83333   0.75000   0.00000  Uiso   1.00
O1049  O     0.46177   0.77226   0.74999   0.00000  Uiso   1.00
O1050  O     0.53821   0.77225   0.74999   0.00000  Uiso   1.00
O1051  O     0.48076   0.83335   0.67319   0.00000  Uiso   1.00
O1052  O     0.55720   0.83334   0.67319   0.00000  Uiso   1.00
C1053  C     0.50065   0.75330   0.74859   0.00000  Uiso   1.00
C1054  C     0.52678   0.83302   0.64786   0.00000  Uiso   1.00
C1055  C     0.59091   0.78832   0.50967   0.00000  Uiso   1.00
H1056  H     0.60908   0.79411   0.58193   0.00000  Uiso   1.00
H1057  H     0.59141   0.75972   0.91346   0.00000  Uiso   1.00
H1058  H     0.62230   0.76954   0.98878   0.00000  Uiso   1.00
C1059  C     0.54331   0.82693   0.58946   0.00000  Uiso   1.00
C1060  C     0.40845   0.84192   0.94377   0.00000  Uiso   1.00
C1061  C     0.39663   0.84785   0.99978   0.00000  Uiso   1.00
C1062  C     0.43159   0.84096   0.52350   0.00000  Uiso   1.00
C1063  C     0.47755   0.82532   0.99248   0.00000  Uiso   1.00
C1064  C     0.48653   0.81353   0.93814   0.00000  Uiso   1.00
C1065  C     0.51450   0.81987   0.51434   0.00000  Uiso   1.00
C1066  C     0.55581   0.79584   0.98604   0.00000  Uiso   1.00
C1067  C     0.56076   0.77904   0.93526   0.00000  Uiso   1.00
C1068  C     0.52678   0.78809   0.91136   0.00000  Uiso   1.00
C1069  C     0.51141   0.83797   0.56376   0.00000  Uiso   1.00
C1070  C     0.58407   0.80303   0.56204   0.00000  Uiso   1.00
C1071  C     0.45490   0.82727   0.91202   0.00000  Uiso   1.00
H1072  H     0.48291   0.85948   0.58457   0.00000  Uiso   1.00
H1073  H     0.42110   0.84576   0.56682   0.00000  Uiso   1.00
H1074  H     0.53184   0.77433   0.87207   0.00000  Uiso   1.00
C1075  C     0.53069   0.97827   0.76942   0.00000  Uiso   1.00
H1076  H     0.55340   0.96200   0.78706   0.00000  Uiso   1.00
C1077  C     0.53215   0.68732   0.76875   0.00000  Uiso   1.00
C1078  C     0.50278   0.70896   0.74520   0.00000  Uiso   1.00
C1079  C     0.47416   0.68736   0.72031   0.00000  Uiso   1.00
C1080  C     0.47223   0.97794   0.72354   0.00000  Uiso   1.00
H1081  H     0.45045   0.96080   0.70482   0.00000  Uiso   1.00
C1082  C     0.50047   0.95720   0.74800   0.00000  Uiso   1.00
C1083  C     0.65520   0.81468   0.70877   0.00000  Uiso   1.00
H1084  H     0.64719   0.79975   0.67576   0.00000  Uiso   1.00
C1085  C     0.36966   0.81447   0.70896   0.00000  Uiso   1.00
H1086  H     0.39759   0.79927   0.67604   0.00000  Uiso   1.00
N1087  N     0.38093   0.83334   0.75002   0.00000  Uiso   1.00
C1088  C     0.34541   0.85207   0.79082   0.00000  Uiso   1.00
H1089  H     0.35434   0.86773   0.82268   0.00000  Uiso   1.00
C1090  C     0.63079   0.85180   0.79177   0.00000  Uiso   1.00
N1091  N     0.61906   0.83331   0.75000   0.00000  Uiso   1.00
N1092  N     0.56331   0.70734   0.79278   0.00000  Uiso   1.00
O1093  O     0.55839   0.69906   0.84287   0.00000  Uiso   1.00
O1094  O     0.60429   0.72180   0.76118   0.00000  Uiso   1.00
N1095  N     0.44920   0.70797   0.68943   0.00000  Uiso   1.00
O1096  O     0.47171   0.73473   0.65261   0.00000  Uiso   1.00
O1097  O     0.40702   0.69509   0.69145   0.00000  Uiso   1.00
N1098  N     0.59527   0.87083   0.83773   0.00000  Uiso   1.00
O1099  O     0.57054   0.90207   0.83084   0.00000  Uiso   1.00
O1100  O     0.59691   0.86482   0.88604   0.00000  Uiso   1.00
N1101  N     0.37227   0.84935   0.92019   0.00000  Uiso   1.00
O1102  O     0.35079   0.88523   0.92691   0.00000  Uiso   1.00
O1103  O     0.35395   0.81802   0.90256   0.00000  Uiso   1.00
O1104  O     0.35069   0.86074   0.53032   0.00000  Uiso   1.00
H1105  H     0.34785   0.86304   0.56904   0.00000  Uiso   1.00
O1106  O     0.79512   0.89442   0.75001   0.00000  Uiso   1.00
O1107  O     0.87157   0.89441   0.75001   0.00000  Uiso   1.00
C1108  C     0.83343   0.91323   0.74948   0.00000  Uiso   1.00
O1109  O     0.77613   0.83333   0.82681   0.00000  Uiso   1.00
O1110  O     0.85258   0.83332   0.82681   0.00000  Uiso   1.00
C1111  C     0.80638   0.83112   0.85236   0.00000  Uiso   1.00
Zn1112 Zn    0.78229   0.83334   0.75000   0.00000  Uiso   1.00
Zn1113 Zn    0.88438   0.83333   0.75000   0.00000  Uiso   1.00
O1114  O     0.79510   0.77226   0.74999   0.00000  Uiso   1.00
O1115  O     0.87154   0.77225   0.74999   0.00000  Uiso   1.00
O1116  O     0.81409   0.83335   0.67319   0.00000  Uiso   1.00
O1117  O     0.89053   0.83334   0.67319   0.00000  Uiso   1.00
C1118  C     0.83398   0.75330   0.74859   0.00000  Uiso   1.00
C1119  C     0.86012   0.83302   0.64786   0.00000  Uiso   1.00
C1120  C     0.92424   0.78832   0.50967   0.00000  Uiso   1.00
H1121  H     0.94241   0.79411   0.58193   0.00000  Uiso   1.00
H1122  H     0.92474   0.75972   0.91346   0.00000  Uiso   1.00
H1123  H     0.95563   0.76954   0.98878   0.00000  Uiso   1.00
C1124  C     0.87664   0.82693   0.58946   0.00000  Uiso   1.00
C1125  C     0.74178   0.84192   0.94377   0.00000  Uiso   1.00
C1126  C     0.72996   0.84785   0.99978   0.00000  Uiso   1.00
C1127  C     0.76493   0.84096   0.52350   0.00000  Uiso   1.00
C1128  C     0.81088   0.82532   0.99248   0.00000  Uiso   1.00
C1129  C     0.81987   0.81353   0.93814   0.00000  Uiso   1.00
C1130  C     0.84783   0.81987   0.51434   0.00000  Uiso   1.00
C1131  C     0.88914   0.79584   0.98604   0.00000  Uiso   1.00
C1132  C     0.89409   0.77904   0.93526   0.00000  Uiso   1.00
C1133  C     0.86012   0.78809   0.91136   0.00000  Uiso   1.00
C1134  C     0.84474   0.83797   0.56376   0.00000  Uiso   1.00
C1135  C     0.91741   0.80303   0.56204   0.00000  Uiso   1.00
C1136  C     0.78823   0.82727   0.91202   0.00000  Uiso   1.00
H1137  H     0.81624   0.85948   0.58457   0.00000  Uiso   1.00
H1138  H     0.75444   0.84576   0.56682   0.00000  Uiso   1.00
H1139  H     0.86518   0.77433   0.87207   0.00000  Uiso   1.00
C1140  C     0.86403   0.97827   0.76942   0.00000  Uiso   1.00
H1141  H     0.88674   0.96200   0.78706   0.00000  Uiso   1.00
C1142  C     0.86548   0.68732   0.76875   0.00000  Uiso   1.00
C1143  C     0.83611   0.70896   0.74520   0.00000  Uiso   1.00
C1144  C     0.80750   0.68736   0.72031   0.00000  Uiso   1.00
C1145  C     0.80556   0.97794   0.72354   0.00000  Uiso   1.00
H1146  H     0.78378   0.96080   0.70482   0.00000  Uiso   1.00
C1147  C     0.83380   0.95720   0.74800   0.00000  Uiso   1.00
C1148  C     0.98853   0.81468   0.70877   0.00000  Uiso   1.00
H1149  H     0.98053   0.79975   0.67576   0.00000  Uiso   1.00
C1150  C     0.70300   0.81447   0.70896   0.00000  Uiso   1.00
H1151  H     0.73093   0.79927   0.67604   0.00000  Uiso   1.00
N1152  N     0.71426   0.83334   0.75002   0.00000  Uiso   1.00
C1153  C     0.67874   0.85207   0.79082   0.00000  Uiso   1.00
H1154  H     0.68767   0.86773   0.82268   0.00000  Uiso   1.00
C1155  C     0.96412   0.85180   0.79177   0.00000  Uiso   1.00
N1156  N     0.95239   0.83331   0.75000   0.00000  Uiso   1.00
N1157  N     0.89665   0.70734   0.79278   0.00000  Uiso   1.00
O1158  O     0.89172   0.69906   0.84287   0.00000  Uiso   1.00
O1159  O     0.93763   0.72180   0.76118   0.00000  Uiso   1.00
N1160  N     0.78253   0.70797   0.68943   0.00000  Uiso   1.00
O1161  O     0.80505   0.73473   0.65261   0.00000  Uiso   1.00
O1162  O     0.74035   0.69509   0.69145   0.00000  Uiso   1.00
N1163  N     0.92861   0.87083   0.83773   0.00000  Uiso   1.00
O1164  O     0.90388   0.90207   0.83084   0.00000  Uiso   1.00
O1165  O     0.93025   0.86482   0.88604   0.00000  Uiso   1.00
N1166  N     0.70561   0.84935   0.92019   0.00000  Uiso   1.00
O1167  O     0.68412   0.88523   0.92691   0.00000  Uiso   1.00
O1168  O     0.68728   0.81802   0.90256   0.00000  Uiso   1.00
O1169  O     0.68402   0.86074   0.53032   0.00000  Uiso   1.00
H1170  H     0.68119   0.86304   0.56904   0.00000  Uiso   1.00
loop_
_geom_bond_atom_site_label_1
_geom_bond_atom_site_label_2
_geom_bond_distance
_geom_bond_site_symmetry_2
_ccdc_geom_bond_type
O1     Zn7     2.005   .     S
O1     C3      1.283   .     A
O2     C3      1.287   .     A
O2     Zn8     2.005   .     S
C3     C42     1.418   .     S
O4     Zn7     1.959   .     S
O4     C6      1.293   .     A
O5     Zn8     1.907   .     S
O5     C6      1.303   .     A
C6     C31     1.475   .     S
Zn7    N47     2.017   .     S
Zn7    O11     1.907   .     S
Zn7    O9      2.005   .     S
Zn8    O12     1.959   .     S
Zn8    N51     2.016   .     S
Zn8    O10     2.005   .     S
O9     C13     1.294   .     A
O10    C13     1.282   .     A
O11    C14     1.296   .     A
O12    C14     1.291   .     A
C13    C38     1.431   .     S
C14    C19     1.449   .     S
C15    C30     1.395   .     A
C15    H603    1.084   1_554 S
C15    C611    1.405   1_554 S
H16    C30     1.083   .     S
H17    C27     1.084   .     S
H18    C600    1.084   .     S
C19    C29     1.385   .     A
C19    C30     1.400   .     A
C20    N61     1.432   .     S
C20    C21     1.398   .     A
C20    C31     1.419   .     A
C21    C607    1.399   .     S
C21    O649    1.382   .     S
C22    H33     1.079   .     S
C22    C606    1.399   1_554 S
C22    C608    1.414   1_554 S
C23    C24     1.405   .     A
C23    C607    1.414   .     S
C23    C610    1.412   .     S
C24    C31     1.412   .     A
C24    C28     1.414   .     A
C25    C29     1.390   .     A
C25    C608    1.412   1_554 S
C25    C611    1.418   1_554 S
C26    C27     1.392   .     A
C26    C600    1.405   .     S
C26    C610    1.418   .     S
C27    C28     1.390   .     A
C28    H34     1.079   .     S
C29    H32     1.080   .     S
C35    C42     1.385   .     A
C35    H36     1.078   .     S
C35    C232    1.367   .     S
C37    C38     1.416   .     A
C37    N52     1.435   .     S
C37    C425    1.367   1_545 S
C38    C39     1.415   .     A
C39    N55     1.438   .     S
C39    C430    1.381   1_545 S
C40    C42     1.392   .     A
C40    H41     1.084   .     S
C40    C234    1.381   .     S
C43    N51     1.366   .     A
C43    H44     1.082   .     S
C43    C110    1.419   .     S
C45    N47     1.369   .     A
C45    H46     1.081   .     S
C45    C173    1.419   1_455 S
N47    C48     1.352   .     A
C48    H49     1.080   .     S
C48    C180    1.413   1_455 S
C50    N51     1.387   .     A
C50    N58     1.431   .     S
C50    C113    1.413   .     S
N52    O53     1.301   .     A
N52    O54     1.302   .     A
N55    O56     1.302   .     A
N55    O57     1.302   .     A
N58    O59     1.296   .     A
N58    O60     1.301   .     A
N61    O62     1.301   .     A
N61    O63     1.301   .     A
O64    H65     0.992   .     S
O64    C606    1.382   1_554 S
O66    Zn72    2.005   .     S
O66    C68     1.283   .     A
O67    C68     1.287   .     A
O67    Zn73    2.005   .     S
C68    C107    1.418   .     S
O69    Zn72    1.959   .     S
O69    C71     1.293   .     A
O70    Zn73    1.907   .     S
O70    C71     1.303   .     A
C71    C96     1.475   .     S
Zn72   N112    2.017   .     S
Zn72   O76     1.907   .     S
Zn72   O74     2.005   .     S
Zn73   O77     1.959   .     S
Zn73   N116    2.016   .     S
Zn73   O75     2.005   .     S
O74    C78     1.294   .     A
O75    C78     1.282   .     A
O76    C79     1.296   .     A
O77    C79     1.291   .     A
C78    C103    1.431   .     S
C79    C84     1.449   .     S
C80    C95     1.395   .     A
C80    H668    1.084   1_554 S
C80    C676    1.405   1_554 S
H81    C95     1.083   .     S
H82    C92     1.084   .     S
H83    C665    1.084   .     S
C84    C94     1.385   .     A
C84    C95     1.400   .     A
C85    N126    1.432   .     S
C85    C86     1.398   .     A
C85    C96     1.419   .     A
C86    C672    1.399   .     S
C86    O714    1.382   .     S
C87    H98     1.079   .     S
C87    C671    1.399   1_554 S
C87    C673    1.414   1_554 S
C88    C89     1.405   .     A
C88    C672    1.414   .     S
C88    C675    1.412   .     S
C89    C96     1.412   .     A
C89    C93     1.414   .     A
C90    C94     1.390   .     A
C90    C673    1.412   1_554 S
C90    C676    1.418   1_554 S
C91    C92     1.392   .     A
C91    C665    1.405   .     S
C91    C675    1.418   .     S
C92    C93     1.390   .     A
C93    H99     1.079   .     S
C94    H97     1.080   .     S
C100   C107    1.385   .     A
C100   H101    1.078   .     S
C100   C297    1.367   .     S
C102   C103    1.416   .     A
C102   N117    1.435   .     S
C102   C490    1.367   1_545 S
C103   C104    1.415   .     A
C104   N120    1.438   .     S
C104   C495    1.381   1_545 S
C105   C107    1.392   .     A
C105   H106    1.084   .     S
C105   C299    1.381   .     S
C108   N116    1.366   .     A
C108   H109    1.082   .     S
C108   C175    1.419   .     S
C110   N112    1.369   .     A
C110   H111    1.081   .     S
N112   C113    1.352   .     A
C113   H114    1.080   .     S
C115   N116    1.387   .     A
C115   N123    1.431   .     S
C115   C178    1.413   .     S
N117   O118    1.301   .     A
N117   O119    1.302   .     A
N120   O121    1.302   .     A
N120   O122    1.302   .     A
N123   O124    1.296   .     A
N123   O125    1.301   .     A
N126   O127    1.301   .     A
N126   O128    1.301   .     A
O129   H130    0.992   .     S
O129   C671    1.382   1_554 S
O131   Zn137   2.005   .     S
O131   C133    1.283   .     A
O132   C133    1.287   .     A
O132   Zn138   2.005   .     S
C133   C172    1.418   .     S
O134   Zn137   1.959   .     S
O134   C136    1.293   .     A
O135   Zn138   1.907   .     S
O135   C136    1.303   .     A
C136   C161    1.475   .     S
Zn137  N177    2.017   .     S
Zn137  O141    1.907   .     S
Zn137  O139    2.005   .     S
Zn138  O142    1.959   .     S
Zn138  N181    2.016   .     S
Zn138  O140    2.005   .     S
O139   C143    1.294   .     A
O140   C143    1.282   .     A
O141   C144    1.296   .     A
O142   C144    1.291   .     A
C143   C168    1.431   .     S
C144   C149    1.449   .     S
C145   C160    1.395   .     A
C145   H733    1.084   1_554 S
C145   C741    1.405   1_554 S
H146   C160    1.083   .     S
H147   C157    1.084   .     S
H148   C730    1.084   .     S
C149   C159    1.385   .     A
C149   C160    1.400   .     A
C150   N191    1.432   .     S
C150   C151    1.398   .     A
C150   C161    1.419   .     A
C151   C737    1.399   .     S
C151   O779    1.382   .     S
C152   H163    1.079   .     S
C152   C736    1.399   1_554 S
C152   C738    1.414   1_554 S
C153   C154    1.405   .     A
C153   C737    1.414   .     S
C153   C740    1.412   .     S
C154   C161    1.412   .     A
C154   C158    1.414   .     A
C155   C159    1.390   .     A
C155   C738    1.412   1_554 S
C155   C741    1.418   1_554 S
C156   C157    1.392   .     A
C156   C730    1.405   .     S
C156   C740    1.418   .     S
C157   C158    1.390   .     A
C158   H164    1.079   .     S
C159   H162    1.080   .     S
C165   C172    1.385   .     A
C165   H166    1.078   .     S
C165   C362    1.367   .     S
C167   C168    1.416   .     A
C167   N182    1.435   .     S
C167   C555    1.367   1_545 S
C168   C169    1.415   .     A
C169   N185    1.438   .     S
C169   C560    1.381   1_545 S
C170   C172    1.392   .     A
C170   H171    1.084   .     S
C170   C364    1.381   .     S
C173   N181    1.366   .     A
C173   H174    1.082   .     S
C173   C45     1.419   1_655 S
C175   N177    1.369   .     A
C175   H176    1.081   .     S
N177   C178    1.352   .     A
C178   H179    1.080   .     S
C180   N181    1.387   .     A
C180   N188    1.431   .     S
C180   C48     1.413   1_655 S
N182   O183    1.301   .     A
N182   O184    1.302   .     A
N185   O186    1.302   .     A
N185   O187    1.302   .     A
N188   O189    1.296   .     A
N188   O190    1.301   .     A
N191   O192    1.301   .     A
N191   O193    1.301   .     A
O194   H195    0.992   .     S
O194   C736    1.382   1_554 S
O196   Zn202   2.005   .     S
O196   C198    1.283   .     A
O197   C198    1.287   .     A
O197   Zn203   2.005   .     S
C198   C237    1.418   .     S
O199   Zn202   1.959   .     S
O199   C201    1.293   .     A
O200   Zn203   1.907   .     S
O200   C201    1.303   .     A
C201   C226    1.475   .     S
Zn202  N242    2.017   .     S
Zn202  O206    1.907   .     S
Zn202  O204    2.005   .     S
Zn203  O207    1.959   .     S
Zn203  N246    2.016   .     S
Zn203  O205    2.005   .     S
O204   C208    1.294   .     A
O205   C208    1.282   .     A
O206   C209    1.296   .     A
O207   C209    1.291   .     A
C208   C233    1.431   .     S
C209   C214    1.449   .     S
C210   C225    1.395   .     A
C210   H798    1.084   1_554 S
C210   C806    1.405   1_554 S
H211   C225    1.083   .     S
H212   C222    1.084   .     S
H213   C795    1.084   .     S
C214   C224    1.385   .     A
C214   C225    1.400   .     A
C215   N256    1.432   .     S
C215   C216    1.398   .     A
C215   C226    1.419   .     A
C216   C802    1.399   .     S
C216   O844    1.382   .     S
C217   H228    1.079   .     S
C217   C801    1.399   1_554 S
C217   C803    1.414   1_554 S
C218   C219    1.405   .     A
C218   C802    1.414   .     S
C218   C805    1.412   .     S
C219   C226    1.412   .     A
C219   C223    1.414   .     A
C220   C224    1.390   .     A
C220   C803    1.412   1_554 S
C220   C806    1.418   1_554 S
C221   C222    1.392   .     A
C221   C795    1.405   .     S
C221   C805    1.418   .     S
C222   C223    1.390   .     A
C223   H229    1.079   .     S
C224   H227    1.080   .     S
C230   C237    1.385   .     A
C230   H231    1.078   .     S
C230   C427    1.367   .     S
C232   C233    1.416   .     A
C232   N247    1.435   .     S
C233   C234    1.415   .     A
C234   N250    1.438   .     S
C235   C237    1.392   .     A
C235   H236    1.084   .     S
C235   C429    1.381   .     S
C238   N246    1.366   .     A
C238   H239    1.082   .     S
C238   C305    1.419   .     S
C240   N242    1.369   .     A
C240   H241    1.081   .     S
C240   C368    1.419   1_455 S
N242   C243    1.352   .     A
C243   H244    1.080   .     S
C243   C375    1.413   1_455 S
C245   N246    1.387   .     A
C245   N253    1.431   .     S
C245   C308    1.413   .     S
N247   O248    1.301   .     A
N247   O249    1.302   .     A
N250   O251    1.302   .     A
N250   O252    1.302   .     A
N253   O254    1.296   .     A
N253   O255    1.301   .     A
N256   O257    1.301   .     A
N256   O258    1.301   .     A
O259   H260    0.992   .     S
O259   C801    1.382   1_554 S
O261   Zn267   2.005   .     S
O261   C263    1.283   .     A
O262   C263    1.287   .     A
O262   Zn268   2.005   .     S
C263   C302    1.418   .     S
O264   Zn267   1.959   .     S
O264   C266    1.293   .     A
O265   Zn268   1.907   .     S
O265   C266    1.303   .     A
C266   C291    1.475   .     S
Zn267  N307    2.017   .     S
Zn267  O271    1.907   .     S
Zn267  O269    2.005   .     S
Zn268  O272    1.959   .     S
Zn268  N311    2.016   .     S
Zn268  O270    2.005   .     S
O269   C273    1.294   .     A
O270   C273    1.282   .     A
O271   C274    1.296   .     A
O272   C274    1.291   .     A
C273   C298    1.431   .     S
C274   C279    1.449   .     S
C275   C290    1.395   .     A
C275   H863    1.084   1_554 S
C275   C871    1.405   1_554 S
H276   C290    1.083   .     S
H277   C287    1.084   .     S
H278   C860    1.084   .     S
C279   C289    1.385   .     A
C279   C290    1.400   .     A
C280   N321    1.432   .     S
C280   C281    1.398   .     A
C280   C291    1.419   .     A
C281   C867    1.399   .     S
C281   O909    1.382   .     S
C282   H293    1.079   .     S
C282   C866    1.399   1_554 S
C282   C868    1.414   1_554 S
C283   C284    1.405   .     A
C283   C867    1.414   .     S
C283   C870    1.412   .     S
C284   C291    1.412   .     A
C284   C288    1.414   .     A
C285   C289    1.390   .     A
C285   C868    1.412   1_554 S
C285   C871    1.418   1_554 S
C286   C287    1.392   .     A
C286   C860    1.405   .     S
C286   C870    1.418   .     S
C287   C288    1.390   .     A
C288   H294    1.079   .     S
C289   H292    1.080   .     S
C295   C302    1.385   .     A
C295   H296    1.078   .     S
C295   C492    1.367   .     S
C297   C298    1.416   .     A
C297   N312    1.435   .     S
C298   C299    1.415   .     A
C299   N315    1.438   .     S
C300   C302    1.392   .     A
C300   H301    1.084   .     S
C300   C494    1.381   .     S
C303   N311    1.366   .     A
C303   H304    1.082   .     S
C303   C370    1.419   .     S
C305   N307    1.369   .     A
C305   H306    1.081   .     S
N307   C308    1.352   .     A
C308   H309    1.080   .     S
C310   N311    1.387   .     A
C310   N318    1.431   .     S
C310   C373    1.413   .     S
N312   O313    1.301   .     A
N312   O314    1.302   .     A
N315   O316    1.302   .     A
N315   O317    1.302   .     A
N318   O319    1.296   .     A
N318   O320    1.301   .     A
N321   O322    1.301   .     A
N321   O323    1.301   .     A
O324   H325    0.992   .     S
O324   C866    1.382   1_554 S
O326   Zn332   2.005   .     S
O326   C328    1.283   .     A
O327   C328    1.287   .     A
O327   Zn333   2.005   .     S
C328   C367    1.418   .     S
O329   Zn332   1.959   .     S
O329   C331    1.293   .     A
O330   Zn333   1.907   .     S
O330   C331    1.303   .     A
C331   C356    1.475   .     S
Zn332  N372    2.017   .     S
Zn332  O336    1.907   .     S
Zn332  O334    2.005   .     S
Zn333  O337    1.959   .     S
Zn333  N376    2.016   .     S
Zn333  O335    2.005   .     S
O334   C338    1.294   .     A
O335   C338    1.282   .     A
O336   C339    1.296   .     A
O337   C339    1.291   .     A
C338   C363    1.431   .     S
C339   C344    1.449   .     S
C340   C355    1.395   .     A
C340   H928    1.084   1_554 S
C340   C936    1.405   1_554 S
H341   C355    1.083   .     S
H342   C352    1.084   .     S
H343   C925    1.084   .     S
C344   C354    1.385   .     A
C344   C355    1.400   .     A
C345   N386    1.432   .     S
C345   C346    1.398   .     A
C345   C356    1.419   .     A
C346   C932    1.399   .     S
C346   O974    1.382   .     S
C347   H358    1.079   .     S
C347   C931    1.399   1_554 S
C347   C933    1.414   1_554 S
C348   C349    1.405   .     A
C348   C932    1.414   .     S
C348   C935    1.412   .     S
C349   C356    1.412   .     A
C349   C353    1.414   .     A
C350   C354    1.390   .     A
C350   C933    1.412   1_554 S
C350   C936    1.418   1_554 S
C351   C352    1.392   .     A
C351   C925    1.405   .     S
C351   C935    1.418   .     S
C352   C353    1.390   .     A
C353   H359    1.079   .     S
C354   H357    1.080   .     S
C360   C367    1.385   .     A
C360   H361    1.078   .     S
C360   C557    1.367   .     S
C362   C363    1.416   .     A
C362   N377    1.435   .     S
C363   C364    1.415   .     A
C364   N380    1.438   .     S
C365   C367    1.392   .     A
C365   H366    1.084   .     S
C365   C559    1.381   .     S
C368   N376    1.366   .     A
C368   H369    1.082   .     S
C368   C240    1.419   1_655 S
C370   N372    1.369   .     A
C370   H371    1.081   .     S
N372   C373    1.352   .     A
C373   H374    1.080   .     S
C375   N376    1.387   .     A
C375   N383    1.431   .     S
C375   C243    1.413   1_655 S
N377   O378    1.301   .     A
N377   O379    1.302   .     A
N380   O381    1.302   .     A
N380   O382    1.302   .     A
N383   O384    1.296   .     A
N383   O385    1.301   .     A
N386   O387    1.301   .     A
N386   O388    1.301   .     A
O389   H390    0.992   .     S
O389   C931    1.382   1_554 S
O391   Zn397   2.005   .     S
O391   C393    1.283   .     A
O392   C393    1.287   .     A
O392   Zn398   2.005   .     S
C393   C432    1.418   .     S
O394   Zn397   1.959   .     S
O394   C396    1.293   .     A
O395   Zn398   1.907   .     S
O395   C396    1.303   .     A
C396   C421    1.475   .     S
Zn397  N437    2.017   .     S
Zn397  O401    1.907   .     S
Zn397  O399    2.005   .     S
Zn398  O402    1.959   .     S
Zn398  N441    2.016   .     S
Zn398  O400    2.005   .     S
O399   C403    1.294   .     A
O400   C403    1.282   .     A
O401   C404    1.296   .     A
O402   C404    1.291   .     A
C403   C428    1.431   .     S
C404   C409    1.449   .     S
C405   C420    1.395   .     A
C405   H993    1.084   1_554 S
C405   C1001   1.405   1_554 S
H406   C420    1.083   .     S
H407   C417    1.084   .     S
H408   C990    1.084   .     S
C409   C419    1.385   .     A
C409   C420    1.400   .     A
C410   N451    1.432   .     S
C410   C411    1.398   .     A
C410   C421    1.419   .     A
C411   C997    1.399   .     S
C411   O1039   1.382   .     S
C412   H423    1.079   .     S
C412   C996    1.399   1_554 S
C412   C998    1.414   1_554 S
C413   C414    1.405   .     A
C413   C997    1.414   .     S
C413   C1000   1.412   .     S
C414   C421    1.412   .     A
C414   C418    1.414   .     A
C415   C419    1.390   .     A
C415   C998    1.412   1_554 S
C415   C1001   1.418   1_554 S
C416   C417    1.392   .     A
C416   C990    1.405   .     S
C416   C1000   1.418   .     S
C417   C418    1.390   .     A
C418   H424    1.079   .     S
C419   H422    1.080   .     S
C425   C432    1.385   .     A
C425   H426    1.078   .     S
C425   C37     1.367   1_565 S
C427   C428    1.416   .     A
C427   N442    1.435   .     S
C428   C429    1.415   .     A
C429   N445    1.438   .     S
C430   C432    1.392   .     A
C430   H431    1.084   .     S
C430   C39     1.381   1_565 S
C433   N441    1.366   .     A
C433   H434    1.082   .     S
C433   C500    1.419   .     S
C435   N437    1.369   .     A
C435   H436    1.081   .     S
C435   C563    1.419   1_455 S
N437   C438    1.352   .     A
C438   H439    1.080   .     S
C438   C570    1.413   1_455 S
C440   N441    1.387   .     A
C440   N448    1.431   .     S
C440   C503    1.413   .     S
N442   O443    1.301   .     A
N442   O444    1.302   .     A
N445   O446    1.302   .     A
N445   O447    1.302   .     A
N448   O449    1.296   .     A
N448   O450    1.301   .     A
N451   O452    1.301   .     A
N451   O453    1.301   .     A
O454   H455    0.992   .     S
O454   C996    1.382   1_554 S
O456   Zn462   2.005   .     S
O456   C458    1.283   .     A
O457   C458    1.287   .     A
O457   Zn463   2.005   .     S
C458   C497    1.418   .     S
O459   Zn462   1.959   .     S
O459   C461    1.293   .     A
O460   Zn463   1.907   .     S
O460   C461    1.303   .     A
C461   C486    1.475   .     S
Zn462  N502    2.017   .     S
Zn462  O466    1.907   .     S
Zn462  O464    2.005   .     S
Zn463  O467    1.959   .     S
Zn463  N506    2.016   .     S
Zn463  O465    2.005   .     S
O464   C468    1.294   .     A
O465   C468    1.282   .     A
O466   C469    1.296   .     A
O467   C469    1.291   .     A
C468   C493    1.431   .     S
C469   C474    1.449   .     S
C470   C485    1.395   .     A
C470   H1058   1.084   1_554 S
C470   C1066   1.405   1_554 S
H471   C485    1.083   .     S
H472   C482    1.084   .     S
H473   C1055   1.084   .     S
C474   C484    1.385   .     A
C474   C485    1.400   .     A
C475   N516    1.432   .     S
C475   C476    1.398   .     A
C475   C486    1.419   .     A
C476   C1062   1.399   .     S
C476   O1104   1.382   .     S
C477   H488    1.079   .     S
C477   C1061   1.399   1_554 S
C477   C1063   1.414   1_554 S
C478   C479    1.405   .     A
C478   C1062   1.414   .     S
C478   C1065   1.412   .     S
C479   C486    1.412   .     A
C479   C483    1.414   .     A
C480   C484    1.390   .     A
C480   C1063   1.412   1_554 S
C480   C1066   1.418   1_554 S
C481   C482    1.392   .     A
C481   C1055   1.405   .     S
C481   C1065   1.418   .     S
C482   C483    1.390   .     A
C483   H489    1.079   .     S
C484   H487    1.080   .     S
C490   C497    1.385   .     A
C490   H491    1.078   .     S
C490   C102    1.367   1_565 S
C492   C493    1.416   .     A
C492   N507    1.435   .     S
C493   C494    1.415   .     A
C494   N510    1.438   .     S
C495   C497    1.392   .     A
C495   H496    1.084   .     S
C495   C104    1.381   1_565 S
C498   N506    1.366   .     A
C498   H499    1.082   .     S
C498   C565    1.419   .     S
C500   N502    1.369   .     A
C500   H501    1.081   .     S
N502   C503    1.352   .     A
C503   H504    1.080   .     S
C505   N506    1.387   .     A
C505   N513    1.431   .     S
C505   C568    1.413   .     S
N507   O508    1.301   .     A
N507   O509    1.302   .     A
N510   O511    1.302   .     A
N510   O512    1.302   .     A
N513   O514    1.296   .     A
N513   O515    1.301   .     A
N516   O517    1.301   .     A
N516   O518    1.301   .     A
O519   H520    0.992   .     S
O519   C1061   1.382   1_554 S
O521   Zn527   2.005   .     S
O521   C523    1.283   .     A
O522   C523    1.287   .     A
O522   Zn528   2.005   .     S
C523   C562    1.418   .     S
O524   Zn527   1.959   .     S
O524   C526    1.293   .     A
O525   Zn528   1.907   .     S
O525   C526    1.303   .     A
C526   C551    1.475   .     S
Zn527  N567    2.017   .     S
Zn527  O531    1.907   .     S
Zn527  O529    2.005   .     S
Zn528  O532    1.959   .     S
Zn528  N571    2.016   .     S
Zn528  O530    2.005   .     S
O529   C533    1.294   .     A
O530   C533    1.282   .     A
O531   C534    1.296   .     A
O532   C534    1.291   .     A
C533   C558    1.431   .     S
C534   C539    1.449   .     S
C535   C550    1.395   .     A
C535   H1123   1.084   1_554 S
C535   C1131   1.405   1_554 S
H536   C550    1.083   .     S
H537   C547    1.084   .     S
H538   C1120   1.084   .     S
C539   C549    1.385   .     A
C539   C550    1.400   .     A
C540   N581    1.432   .     S
C540   C541    1.398   .     A
C540   C551    1.419   .     A
C541   C1127   1.399   .     S
C541   O1169   1.382   .     S
C542   H553    1.079   .     S
C542   C1126   1.399   1_554 S
C542   C1128   1.414   1_554 S
C543   C544    1.405   .     A
C543   C1127   1.414   .     S
C543   C1130   1.412   .     S
C544   C551    1.412   .     A
C544   C548    1.414   .     A
C545   C549    1.390   .     A
C545   C1128   1.412   1_554 S
C545   C1131   1.418   1_554 S
C546   C547    1.392   .     A
C546   C1120   1.405   .     S
C546   C1130   1.418   .     S
C547   C548    1.390   .     A
C548   H554    1.079   .     S
C549   H552    1.080   .     S
C555   C562    1.385   .     A
C555   H556    1.078   .     S
C555   C167    1.367   1_565 S
C557   C558    1.416   .     A
C557   N572    1.435   .     S
C558   C559    1.415   .     A
C559   N575    1.438   .     S
C560   C562    1.392   .     A
C560   H561    1.084   .     S
C560   C169    1.381   1_565 S
C563   N571    1.366   .     A
C563   H564    1.082   .     S
C563   C435    1.419   1_655 S
C565   N567    1.369   .     A
C565   H566    1.081   .     S
N567   C568    1.352   .     A
C568   H569    1.080   .     S
C570   N571    1.387   .     A
C570   N578    1.431   .     S
C570   C438    1.413   1_655 S
N572   O573    1.301   .     A
N572   O574    1.302   .     A
N575   O576    1.302   .     A
N575   O577    1.302   .     A
N578   O579    1.296   .     A
N578   O580    1.301   .     A
N581   O582    1.301   .     A
N581   O583    1.301   .     A
O584   H585    0.992   .     S
O584   C1126   1.382   1_554 S
O586   Zn592   2.005   .     S
O586   C588    1.283   .     A
O587   C588    1.287   .     A
O587   Zn593   2.005   .     S
C588   C627    1.418   .     S
O589   Zn592   1.959   .     S
O589   C591    1.293   .     A
O590   Zn593   1.907   .     S
O590   C591    1.303   .     A
C591   C616    1.475   .     S
Zn592  N632    2.017   .     S
Zn592  O596    1.907   .     S
Zn592  O594    2.005   .     S
Zn593  O597    1.959   .     S
Zn593  N636    2.016   .     S
Zn593  O595    2.005   .     S
O594   C598    1.294   .     A
O595   C598    1.282   .     A
O596   C599    1.296   .     A
O597   C599    1.291   .     A
C598   C623    1.431   .     S
C599   C604    1.449   .     S
C600   C615    1.395   .     A
H601   C615    1.083   .     S
H602   C612    1.084   .     S
H603   C15     1.084   1_556 S
C604   C614    1.385   .     A
C604   C615    1.400   .     A
C605   N646    1.432   .     S
C605   C606    1.398   .     A
C605   C616    1.419   .     A
C606   C22     1.399   1_556 S
C606   O64     1.382   1_556 S
C607   H618    1.079   .     S
C608   C609    1.405   .     A
C608   C22     1.414   1_556 S
C608   C25     1.412   1_556 S
C609   C616    1.412   .     A
C609   C613    1.414   .     A
C610   C614    1.390   .     A
C611   C612    1.392   .     A
C611   C15     1.405   1_556 S
C611   C25     1.418   1_556 S
C612   C613    1.390   .     A
C613   H619    1.079   .     S
C614   H617    1.080   .     S
C620   C627    1.385   .     A
C620   H621    1.078   .     S
C620   C817    1.367   .     S
C622   C623    1.416   .     A
C622   N637    1.435   .     S
C622   C1010   1.367   1_545 S
C623   C624    1.415   .     A
C624   N640    1.438   .     S
C624   C1015   1.381   1_545 S
C625   C627    1.392   .     A
C625   H626    1.084   .     S
C625   C819    1.381   .     S
C628   N636    1.366   .     A
C628   H629    1.082   .     S
C628   C695    1.419   .     S
C630   N632    1.369   .     A
C630   H631    1.081   .     S
C630   C758    1.419   1_455 S
N632   C633    1.352   .     A
C633   H634    1.080   .     S
C633   C765    1.413   1_455 S
C635   N636    1.387   .     A
C635   N643    1.431   .     S
C635   C698    1.413   .     S
N637   O638    1.301   .     A
N637   O639    1.302   .     A
N640   O641    1.302   .     A
N640   O642    1.302   .     A
N643   O644    1.296   .     A
N643   O645    1.301   .     A
N646   O647    1.301   .     A
N646   O648    1.301   .     A
O649   H650    0.992   .     S
O651   Zn657   2.005   .     S
O651   C653    1.283   .     A
O652   C653    1.287   .     A
O652   Zn658   2.005   .     S
C653   C692    1.418   .     S
O654   Zn657   1.959   .     S
O654   C656    1.293   .     A
O655   Zn658   1.907   .     S
O655   C656    1.303   .     A
C656   C681    1.475   .     S
Zn657  N697    2.017   .     S
Zn657  O661    1.907   .     S
Zn657  O659    2.005   .     S
Zn658  O662    1.959   .     S
Zn658  N701    2.016   .     S
Zn658  O660    2.005   .     S
O659   C663    1.294   .     A
O660   C663    1.282   .     A
O661   C664    1.296   .     A
O662   C664    1.291   .     A
C663   C688    1.431   .     S
C664   C669    1.449   .     S
C665   C680    1.395   .     A
H666   C680    1.083   .     S
H667   C677    1.084   .     S
H668   C80     1.084   1_556 S
C669   C679    1.385   .     A
C669   C680    1.400   .     A
C670   N711    1.432   .     S
C670   C671    1.398   .     A
C670   C681    1.419   .     A
C671   C87     1.399   1_556 S
C671   O129    1.382   1_556 S
C672   H683    1.079   .     S
C673   C674    1.405   .     A
C673   C87     1.414   1_556 S
C673   C90     1.412   1_556 S
C674   C681    1.412   .     A
C674   C678    1.414   .     A
C675   C679    1.390   .     A
C676   C677    1.392   .     A
C676   C80     1.405   1_556 S
C676   C90     1.418   1_556 S
C677   C678    1.390   .     A
C678   H684    1.079   .     S
C679   H682    1.080   .     S
C685   C692    1.385   .     A
C685   H686    1.078   .     S
C685   C882    1.367   .     S
C687   C688    1.416   .     A
C687   N702    1.435   .     S
C687   C1075   1.367   1_545 S
C688   C689    1.415   .     A
C689   N705    1.438   .     S
C689   C1080   1.381   1_545 S
C690   C692    1.392   .     A
C690   H691    1.084   .     S
C690   C884    1.381   .     S
C693   N701    1.366   .     A
C693   H694    1.082   .     S
C693   C760    1.419   .     S
C695   N697    1.369   .     A
C695   H696    1.081   .     S
N697   C698    1.352   .     A
C698   H699    1.080   .     S
C700   N701    1.387   .     A
C700   N708    1.431   .     S
C700   C763    1.413   .     S
N702   O703    1.301   .     A
N702   O704    1.302   .     A
N705   O706    1.302   .     A
N705   O707    1.302   .     A
N708   O709    1.296   .     A
N708   O710    1.301   .     A
N711   O712    1.301   .     A
N711   O713    1.301   .     A
O714   H715    0.992   .     S
O716   Zn722   2.005   .     S
O716   C718    1.283   .     A
O717   C718    1.287   .     A
O717   Zn723   2.005   .     S
C718   C757    1.418   .     S
O719   Zn722   1.959   .     S
O719   C721    1.293   .     A
O720   Zn723   1.907   .     S
O720   C721    1.303   .     A
C721   C746    1.475   .     S
Zn722  N762    2.017   .     S
Zn722  O726    1.907   .     S
Zn722  O724    2.005   .     S
Zn723  O727    1.959   .     S
Zn723  N766    2.016   .     S
Zn723  O725    2.005   .     S
O724   C728    1.294   .     A
O725   C728    1.282   .     A
O726   C729    1.296   .     A
O727   C729    1.291   .     A
C728   C753    1.431   .     S
C729   C734    1.449   .     S
C730   C745    1.395   .     A
H731   C745    1.083   .     S
H732   C742    1.084   .     S
H733   C145    1.084   1_556 S
C734   C744    1.385   .     A
C734   C745    1.400   .     A
C735   N776    1.432   .     S
C735   C736    1.398   .     A
C735   C746    1.419   .     A
C736   C152    1.399   1_556 S
C736   O194    1.382   1_556 S
C737   H748    1.079   .     S
C738   C739    1.405   .     A
C738   C152    1.414   1_556 S
C738   C155    1.412   1_556 S
C739   C746    1.412   .     A
C739   C743    1.414   .     A
C740   C744    1.390   .     A
C741   C742    1.392   .     A
C741   C145    1.405   1_556 S
C741   C155    1.418   1_556 S
C742   C743    1.390   .     A
C743   H749    1.079   .     S
C744   H747    1.080   .     S
C750   C757    1.385   .     A
C750   H751    1.078   .     S
C750   C947    1.367   .     S
C752   C753    1.416   .     A
C752   N767    1.435   .     S
C752   C1140   1.367   1_545 S
C753   C754    1.415   .     A
C754   N770    1.438   .     S
C754   C1145   1.381   1_545 S
C755   C757    1.392   .     A
C755   H756    1.084   .     S
C755   C949    1.381   .     S
C758   N766    1.366   .     A
C758   H759    1.082   .     S
C758   C630    1.419   1_655 S
C760   N762    1.369   .     A
C760   H761    1.081   .     S
N762   C763    1.352   .     A
C763   H764    1.080   .     S
C765   N766    1.387   .     A
C765   N773    1.431   .     S
C765   C633    1.413   1_655 S
N767   O768    1.301   .     A
N767   O769    1.302   .     A
N770   O771    1.302   .     A
N770   O772    1.302   .     A
N773   O774    1.296   .     A
N773   O775    1.301   .     A
N776   O777    1.301   .     A
N776   O778    1.301   .     A
O779   H780    0.992   .     S
O781   Zn787   2.005   .     S
O781   C783    1.283   .     A
O782   C783    1.287   .     A
O782   Zn788   2.005   .     S
C783   C822    1.418   .     S
O784   Zn787   1.959   .     S
O784   C786    1.293   .     A
O785   Zn788   1.907   .     S
O785   C786    1.303   .     A
C786   C811    1.475   .     S
Zn787  N827    2.017   .     S
Zn787  O791    1.907   .     S
Zn787  O789    2.005   .     S
Zn788  O792    1.959   .     S
Zn788  N831    2.016   .     S
Zn788  O790    2.005   .     S
O789   C793    1.294   .     A
O790   C793    1.282   .     A
O791   C794    1.296   .     A
O792   C794    1.291   .     A
C793   C818    1.431   .     S
C794   C799    1.449   .     S
C795   C810    1.395   .     A
H796   C810    1.083   .     S
H797   C807    1.084   .     S
H798   C210    1.084   1_556 S
C799   C809    1.385   .     A
C799   C810    1.400   .     A
C800   N841    1.432   .     S
C800   C801    1.398   .     A
C800   C811    1.419   .     A
C801   C217    1.399   1_556 S
C801   O259    1.382   1_556 S
C802   H813    1.079   .     S
C803   C804    1.405   .     A
C803   C217    1.414   1_556 S
C803   C220    1.412   1_556 S
C804   C811    1.412   .     A
C804   C808    1.414   .     A
C805   C809    1.390   .     A
C806   C807    1.392   .     A
C806   C210    1.405   1_556 S
C806   C220    1.418   1_556 S
C807   C808    1.390   .     A
C808   H814    1.079   .     S
C809   H812    1.080   .     S
C815   C822    1.385   .     A
C815   H816    1.078   .     S
C815   C1012   1.367   .     S
C817   C818    1.416   .     A
C817   N832    1.435   .     S
C818   C819    1.415   .     A
C819   N835    1.438   .     S
C820   C822    1.392   .     A
C820   H821    1.084   .     S
C820   C1014   1.381   .     S
C823   N831    1.366   .     A
C823   H824    1.082   .     S
C823   C890    1.419   .     S
C825   N827    1.369   .     A
C825   H826    1.081   .     S
C825   C953    1.419   1_455 S
N827   C828    1.352   .     A
C828   H829    1.080   .     S
C828   C960    1.413   1_455 S
C830   N831    1.387   .     A
C830   N838    1.431   .     S
C830   C893    1.413   .     S
N832   O833    1.301   .     A
N832   O834    1.302   .     A
N835   O836    1.302   .     A
N835   O837    1.302   .     A
N838   O839    1.296   .     A
N838   O840    1.301   .     A
N841   O842    1.301   .     A
N841   O843    1.301   .     A
O844   H845    0.992   .     S
O846   Zn852   2.005   .     S
O846   C848    1.283   .     A
O847   C848    1.287   .     A
O847   Zn853   2.005   .     S
C848   C887    1.418   .     S
O849   Zn852   1.959   .     S
O849   C851    1.293   .     A
O850   Zn853   1.907   .     S
O850   C851    1.303   .     A
C851   C876    1.475   .     S
Zn852  N892    2.017   .     S
Zn852  O856    1.907   .     S
Zn852  O854    2.005   .     S
Zn853  O857    1.959   .     S
Zn853  N896    2.016   .     S
Zn853  O855    2.005   .     S
O854   C858    1.294   .     A
O855   C858    1.282   .     A
O856   C859    1.296   .     A
O857   C859    1.291   .     A
C858   C883    1.431   .     S
C859   C864    1.449   .     S
C860   C875    1.395   .     A
H861   C875    1.083   .     S
H862   C872    1.084   .     S
H863   C275    1.084   1_556 S
C864   C874    1.385   .     A
C864   C875    1.400   .     A
C865   N906    1.432   .     S
C865   C866    1.398   .     A
C865   C876    1.419   .     A
C866   C282    1.399   1_556 S
C866   O324    1.382   1_556 S
C867   H878    1.079   .     S
C868   C869    1.405   .     A
C868   C282    1.414   1_556 S
C868   C285    1.412   1_556 S
C869   C876    1.412   .     A
C869   C873    1.414   .     A
C870   C874    1.390   .     A
C871   C872    1.392   .     A
C871   C275    1.405   1_556 S
C871   C285    1.418   1_556 S
C872   C873    1.390   .     A
C873   H879    1.079   .     S
C874   H877    1.080   .     S
C880   C887    1.385   .     A
C880   H881    1.078   .     S
C880   C1077   1.367   .     S
C882   C883    1.416   .     A
C882   N897    1.435   .     S
C883   C884    1.415   .     A
C884   N900    1.438   .     S
C885   C887    1.392   .     A
C885   H886    1.084   .     S
C885   C1079   1.381   .     S
C888   N896    1.366   .     A
C888   H889    1.082   .     S
C888   C955    1.419   .     S
C890   N892    1.369   .     A
C890   H891    1.081   .     S
N892   C893    1.352   .     A
C893   H894    1.080   .     S
C895   N896    1.387   .     A
C895   N903    1.431   .     S
C895   C958    1.413   .     S
N897   O898    1.301   .     A
N897   O899    1.302   .     A
N900   O901    1.302   .     A
N900   O902    1.302   .     A
N903   O904    1.296   .     A
N903   O905    1.301   .     A
N906   O907    1.301   .     A
N906   O908    1.301   .     A
O909   H910    0.992   .     S
O911   Zn917   2.005   .     S
O911   C913    1.283   .     A
O912   C913    1.287   .     A
O912   Zn918   2.005   .     S
C913   C952    1.418   .     S
O914   Zn917   1.959   .     S
O914   C916    1.293   .     A
O915   Zn918   1.907   .     S
O915   C916    1.303   .     A
C916   C941    1.475   .     S
Zn917  N957    2.017   .     S
Zn917  O921    1.907   .     S
Zn917  O919    2.005   .     S
Zn918  O922    1.959   .     S
Zn918  N961    2.016   .     S
Zn918  O920    2.005   .     S
O919   C923    1.294   .     A
O920   C923    1.282   .     A
O921   C924    1.296   .     A
O922   C924    1.291   .     A
C923   C948    1.431   .     S
C924   C929    1.449   .     S
C925   C940    1.395   .     A
H926   C940    1.083   .     S
H927   C937    1.084   .     S
H928   C340    1.084   1_556 S
C929   C939    1.385   .     A
C929   C940    1.400   .     A
C930   N971    1.432   .     S
C930   C931    1.398   .     A
C930   C941    1.419   .     A
C931   C347    1.399   1_556 S
C931   O389    1.382   1_556 S
C932   H943    1.079   .     S
C933   C934    1.405   .     A
C933   C347    1.414   1_556 S
C933   C350    1.412   1_556 S
C934   C941    1.412   .     A
C934   C938    1.414   .     A
C935   C939    1.390   .     A
C936   C937    1.392   .     A
C936   C340    1.405   1_556 S
C936   C350    1.418   1_556 S
C937   C938    1.390   .     A
C938   H944    1.079   .     S
C939   H942    1.080   .     S
C945   C952    1.385   .     A
C945   H946    1.078   .     S
C945   C1142   1.367   .     S
C947   C948    1.416   .     A
C947   N962    1.435   .     S
C948   C949    1.415   .     A
C949   N965    1.438   .     S
C950   C952    1.392   .     A
C950   H951    1.084   .     S
C950   C1144   1.381   .     S
C953   N961    1.366   .     A
C953   H954    1.082   .     S
C953   C825    1.419   1_655 S
C955   N957    1.369   .     A
C955   H956    1.081   .     S
N957   C958    1.352   .     A
C958   H959    1.080   .     S
C960   N961    1.387   .     A
C960   N968    1.431   .     S
C960   C828    1.413   1_655 S
N962   O963    1.301   .     A
N962   O964    1.302   .     A
N965   O966    1.302   .     A
N965   O967    1.302   .     A
N968   O969    1.296   .     A
N968   O970    1.301   .     A
N971   O972    1.301   .     A
N971   O973    1.301   .     A
O974   H975    0.992   .     S
O976   Zn982   2.005   .     S
O976   C978    1.283   .     A
O977   C978    1.287   .     A
O977   Zn983   2.005   .     S
C978   C1017   1.418   .     S
O979   Zn982   1.959   .     S
O979   C981    1.293   .     A
O980   Zn983   1.907   .     S
O980   C981    1.303   .     A
C981   C1006   1.475   .     S
Zn982  N1022   2.017   .     S
Zn982  O986    1.907   .     S
Zn982  O984    2.005   .     S
Zn983  O987    1.959   .     S
Zn983  N1026   2.016   .     S
Zn983  O985    2.005   .     S
O984   C988    1.294   .     A
O985   C988    1.282   .     A
O986   C989    1.296   .     A
O987   C989    1.291   .     A
C988   C1013   1.431   .     S
C989   C994    1.449   .     S
C990   C1005   1.395   .     A
H991   C1005   1.083   .     S
H992   C1002   1.084   .     S
H993   C405    1.084   1_556 S
C994   C1004   1.385   .     A
C994   C1005   1.400   .     A
C995   N1036   1.432   .     S
C995   C996    1.398   .     A
C995   C1006   1.419   .     A
C996   C412    1.399   1_556 S
C996   O454    1.382   1_556 S
C997   H1008   1.079   .     S
C998   C999    1.405   .     A
C998   C412    1.414   1_556 S
C998   C415    1.412   1_556 S
C999   C1006   1.412   .     A
C999   C1003   1.414   .     A
C1000  C1004   1.390   .     A
C1001  C1002   1.392   .     A
C1001  C405    1.405   1_556 S
C1001  C415    1.418   1_556 S
C1002  C1003   1.390   .     A
C1003  H1009   1.079   .     S
C1004  H1007   1.080   .     S
C1010  C1017   1.385   .     A
C1010  H1011   1.078   .     S
C1010  C622    1.367   1_565 S
C1012  C1013   1.416   .     A
C1012  N1027   1.435   .     S
C1013  C1014   1.415   .     A
C1014  N1030   1.438   .     S
C1015  C1017   1.392   .     A
C1015  H1016   1.084   .     S
C1015  C624    1.381   1_565 S
C1018  N1026   1.366   .     A
C1018  H1019   1.082   .     S
C1018  C1085   1.419   .     S
C1020  N1022   1.369   .     A
C1020  H1021   1.081   .     S
C1020  C1148   1.419   1_455 S
N1022  C1023   1.352   .     A
C1023  H1024   1.080   .     S
C1023  C1155   1.413   1_455 S
C1025  N1026   1.387   .     A
C1025  N1033   1.431   .     S
C1025  C1088   1.413   .     S
N1027  O1028   1.301   .     A
N1027  O1029   1.302   .     A
N1030  O1031   1.302   .     A
N1030  O1032   1.302   .     A
N1033  O1034   1.296   .     A
N1033  O1035   1.301   .     A
N1036  O1037   1.301   .     A
N1036  O1038   1.301   .     A
O1039  H1040   0.992   .     S
O1041  Zn1047  2.005   .     S
O1041  C1043   1.283   .     A
O1042  C1043   1.287   .     A
O1042  Zn1048  2.005   .     S
C1043  C1082   1.418   .     S
O1044  Zn1047  1.959   .     S
O1044  C1046   1.293   .     A
O1045  Zn1048  1.907   .     S
O1045  C1046   1.303   .     A
C1046  C1071   1.475   .     S
Zn1047 N1087   2.017   .     S
Zn1047 O1051   1.907   .     S
Zn1047 O1049   2.005   .     S
Zn1048 O1052   1.959   .     S
Zn1048 N1091   2.016   .     S
Zn1048 O1050   2.005   .     S
O1049  C1053   1.294   .     A
O1050  C1053   1.282   .     A
O1051  C1054   1.296   .     A
O1052  C1054   1.291   .     A
C1053  C1078   1.431   .     S
C1054  C1059   1.449   .     S
C1055  C1070   1.395   .     A
H1056  C1070   1.083   .     S
H1057  C1067   1.084   .     S
H1058  C470    1.084   1_556 S
C1059  C1069   1.385   .     A
C1059  C1070   1.400   .     A
C1060  N1101   1.432   .     S
C1060  C1061   1.398   .     A
C1060  C1071   1.419   .     A
C1061  C477    1.399   1_556 S
C1061  O519    1.382   1_556 S
C1062  H1073   1.079   .     S
C1063  C1064   1.405   .     A
C1063  C477    1.414   1_556 S
C1063  C480    1.412   1_556 S
C1064  C1071   1.412   .     A
C1064  C1068   1.414   .     A
C1065  C1069   1.390   .     A
C1066  C1067   1.392   .     A
C1066  C470    1.405   1_556 S
C1066  C480    1.418   1_556 S
C1067  C1068   1.390   .     A
C1068  H1074   1.079   .     S
C1069  H1072   1.080   .     S
C1075  C1082   1.385   .     A
C1075  H1076   1.078   .     S
C1075  C687    1.367   1_565 S
C1077  C1078   1.416   .     A
C1077  N1092   1.435   .     S
C1078  C1079   1.415   .     A
C1079  N1095   1.438   .     S
C1080  C1082   1.392   .     A
C1080  H1081   1.084   .     S
C1080  C689    1.381   1_565 S
C1083  N1091   1.366   .     A
C1083  H1084   1.082   .     S
C1083  C1150   1.419   .     S
C1085  N1087   1.369   .     A
C1085  H1086   1.081   .     S
N1087  C1088   1.352   .     A
C1088  H1089   1.080   .     S
C1090  N1091   1.387   .     A
C1090  N1098   1.431   .     S
C1090  C1153   1.413   .     S
N1092  O1093   1.301   .     A
N1092  O1094   1.302   .     A
N1095  O1096   1.302   .     A
N1095  O1097   1.302   .     A
N1098  O1099   1.296   .     A
N1098  O1100   1.301   .     A
N1101  O1102   1.301   .     A
N1101  O1103   1.301   .     A
O1104  H1105   0.992   .     S
O1106  Zn1112  2.005   .     S
O1106  C1108   1.283   .     A
O1107  C1108   1.287   .     A
O1107  Zn1113  2.005   .     S
C1108  C1147   1.418   .     S
O1109  Zn1112  1.959   .     S
O1109  C1111   1.293   .     A
O1110  Zn1113  1.907   .     S
O1110  C1111   1.303   .     A
C1111  C1136   1.475   .     S
Zn1112 N1152   2.017   .     S
Zn1112 O1116   1.907   .     S
Zn1112 O1114   2.005   .     S
Zn1113 O1117   1.959   .     S
Zn1113 N1156   2.016   .     S
Zn1113 O1115   2.005   .     S
O1114  C1118   1.294   .     A
O1115  C1118   1.282   .     A
O1116  C1119   1.296   .     A
O1117  C1119   1.291   .     A
C1118  C1143   1.431   .     S
C1119  C1124   1.449   .     S
C1120  C1135   1.395   .     A
H1121  C1135   1.083   .     S
H1122  C1132   1.084   .     S
H1123  C535    1.084   1_556 S
C1124  C1134   1.385   .     A
C1124  C1135   1.400   .     A
C1125  N1166   1.432   .     S
C1125  C1126   1.398   .     A
C1125  C1136   1.419   .     A
C1126  C542    1.399   1_556 S
C1126  O584    1.382   1_556 S
C1127  H1138   1.079   .     S
C1128  C1129   1.405   .     A
C1128  C542    1.414   1_556 S
C1128  C545    1.412   1_556 S
C1129  C1136   1.412   .     A
C1129  C1133   1.414   .     A
C1130  C1134   1.390   .     A
C1131  C1132   1.392   .     A
C1131  C535    1.405   1_556 S
C1131  C545    1.418   1_556 S
C1132  C1133   1.390   .     A
C1133  H1139   1.079   .     S
C1134  H1137   1.080   .     S
C1140  C1147   1.385   .     A
C1140  H1141   1.078   .     S
C1140  C752    1.367   1_565 S
C1142  C1143   1.416   .     A
C1142  N1157   1.435   .     S
C1143  C1144   1.415   .     A
C1144  N1160   1.438   .     S
C1145  C1147   1.392   .     A
C1145  H1146   1.084   .     S
C1145  C754    1.381   1_565 S
C1148  N1156   1.366   .     A
C1148  H1149   1.082   .     S
C1148  C1020   1.419   1_655 S
C1150  N1152   1.369   .     A
C1150  H1151   1.081   .     S
N1152  C1153   1.352   .     A
C1153  H1154   1.080   .     S
C1155  N1156   1.387   .     A
C1155  N1163   1.431   .     S
C1155  C1023   1.413   1_655 S
N1157  O1158   1.301   .     A
N1157  O1159   1.302   .     A
N1160  O1161   1.302   .     A
N1160  O1162   1.302   .     A
N1163  O1164   1.296   .     A
N1163  O1165   1.301   .     A
N1166  O1167   1.301   .     A
N1166  O1168   1.301   .     A
O1169  H1170   0.992   .     S
