data_str_m3_o10_o17_pcu_sym.140
_audit_creation_date              2020-01-03
_audit_creation_method            'Materials Studio'
_symmetry_space_group_name_H-M    'P1'
_symmetry_Int_Tables_number       1
_symmetry_cell_setting            triclinic
loop_
_symmetry_equiv_pos_as_xyz
  x,y,z
_cell_length_a                    23.4222
_cell_length_b                    25.6386
_cell_length_c                    29.7785
_cell_angle_alpha                 91.6897
_cell_angle_beta                  85.3160
_cell_angle_gamma                 93.6246
loop_
_atom_site_label
_atom_site_type_symbol
_atom_site_fract_x
_atom_site_fract_y
_atom_site_fract_z
_atom_site_U_iso_or_equiv
_atom_site_adp_type
_atom_site_occupancy
C1     C     0.18186   0.26485   0.24884   0.00000  Uiso   1.00
C2     C     0.15215   0.21296   0.40893   0.00000  Uiso   1.00
C3     C     0.16442   0.16264   0.11610   0.00000  Uiso   1.00
C4     C     0.16845   0.16853   0.38391   0.00000  Uiso   1.00
C5     C     0.14934   0.20741   0.09592   0.00000  Uiso   1.00
C6     C     0.18475   0.12414   0.40387   0.00000  Uiso   1.00
C7     C     0.14992   0.20889   0.04965   0.00000  Uiso   1.00
C8     C     0.18354   0.12250   0.45020   0.00000  Uiso   1.00
C9     C     0.16579   0.16469   0.02339   0.00000  Uiso   1.00
C10    C     0.16707   0.16657   0.47651   0.00000  Uiso   1.00
C11    C     0.18031   0.11864   0.04394   0.00000  Uiso   1.00
C12    C     0.15147   0.06848   0.25115   0.00000  Uiso   1.00
C13    C     0.15176   0.21239   0.45597   0.00000  Uiso   1.00
C14    C     0.13552   0.25421   0.02940   0.00000  Uiso   1.00
C15    C     0.19804   0.07724   0.47045   0.00000  Uiso   1.00
C16    C     0.13628   0.25600   0.48288   0.00000  Uiso   1.00
C17    C     0.19636   0.07521   0.01700   0.00000  Uiso   1.00
C18    C     0.18987   0.31937   0.24811   0.00000  Uiso   1.00
C19    C     0.14346   0.01396   0.25182   0.00000  Uiso   1.00
C20    C     0.16725   0.16739   0.33632   0.00000  Uiso   1.00
C21    C     0.16595   0.16523   0.16369   0.00000  Uiso   1.00
C22    C     0.17878   0.11718   0.09096   0.00000  Uiso   1.00
H23    H     0.13818   0.24155   0.11648   0.00000  Uiso   1.00
H24    H     0.15699   0.04188   0.10634   0.00000  Uiso   1.00
H25    H     0.09493   0.26624   0.39691   0.00000  Uiso   1.00
H26    H     0.16483   0.28979   0.39365   0.00000  Uiso   1.00
H27    H     0.31198   0.10013   0.19389   0.00000  Uiso   1.00
H28    H     0.02135   0.23317   0.30614   0.00000  Uiso   1.00
H29    H     0.19696   0.09044   0.38316   0.00000  Uiso   1.00
H30    H     0.12359   0.28830   0.04958   0.00000  Uiso   1.00
H31    H     0.21052   0.04332   0.45028   0.00000  Uiso   1.00
H32    H     0.12466   0.29169   0.46843   0.00000  Uiso   1.00
H33    H     0.20806   0.03958   0.03156   0.00000  Uiso   1.00
H34    H     0.23371   0.00301   0.24451   0.00000  Uiso   1.00
H35    H     0.09962   0.33033   0.25540   0.00000  Uiso   1.00
H36    H     0.19076   0.07347   0.14704   0.00000  Uiso   1.00
N37    N     0.31678   0.15265   0.23783   0.00000  Uiso   1.00
N38    N     0.01656   0.18068   0.26217   0.00000  Uiso   1.00
N39    N     0.19060   0.06945   0.11213   0.00000  Uiso   1.00
N40    N     0.13697   0.25793   0.38585   0.00000  Uiso   1.00
O41    O     0.12975   0.24619   0.25299   0.00000  Uiso   1.00
O42    O     0.32341   0.21467   0.29039   0.00000  Uiso   1.00
O43    O     0.20358   0.08714   0.24702   0.00000  Uiso   1.00
O44    O     0.22613   0.23721   0.24519   0.00000  Uiso   1.00
O45    O     0.10720   0.09613   0.25482   0.00000  Uiso   1.00
O46    O     0.11847   0.17117   0.31998   0.00000  Uiso   1.00
O47    O     0.21486   0.16216   0.18003   0.00000  Uiso   1.00
O48    O     0.21485   0.16219   0.31218   0.00000  Uiso   1.00
O49    O     0.11848   0.17115   0.18783   0.00000  Uiso   1.00
O50    O     0.00992   0.11865   0.20962   0.00000  Uiso   1.00
Zn51   Zn    0.10231   0.17266   0.25521   0.00000  Uiso   1.00
Zn52   Zn    0.23102   0.16067   0.24479   0.00000  Uiso   1.00
C53    C     0.51520   0.26485   0.24884   0.00000  Uiso   1.00
C54    C     0.48549   0.21296   0.40893   0.00000  Uiso   1.00
C55    C     0.49776   0.16264   0.11610   0.00000  Uiso   1.00
C56    C     0.50178   0.16853   0.38391   0.00000  Uiso   1.00
C57    C     0.48267   0.20741   0.09592   0.00000  Uiso   1.00
C58    C     0.51809   0.12414   0.40387   0.00000  Uiso   1.00
C59    C     0.48326   0.20889   0.04965   0.00000  Uiso   1.00
C60    C     0.51687   0.12250   0.45020   0.00000  Uiso   1.00
C61    C     0.49913   0.16469   0.02339   0.00000  Uiso   1.00
C62    C     0.50040   0.16657   0.47651   0.00000  Uiso   1.00
C63    C     0.51364   0.11864   0.04394   0.00000  Uiso   1.00
C64    C     0.48480   0.06848   0.25115   0.00000  Uiso   1.00
C65    C     0.48509   0.21239   0.45597   0.00000  Uiso   1.00
C66    C     0.46885   0.25421   0.02940   0.00000  Uiso   1.00
C67    C     0.53137   0.07724   0.47045   0.00000  Uiso   1.00
C68    C     0.46961   0.25600   0.48288   0.00000  Uiso   1.00
C69    C     0.52969   0.07521   0.01700   0.00000  Uiso   1.00
C70    C     0.52320   0.31937   0.24811   0.00000  Uiso   1.00
C71    C     0.47680   0.01396   0.25182   0.00000  Uiso   1.00
C72    C     0.50059   0.16739   0.33632   0.00000  Uiso   1.00
C73    C     0.49928   0.16523   0.16369   0.00000  Uiso   1.00
C74    C     0.51211   0.11718   0.09096   0.00000  Uiso   1.00
H75    H     0.47151   0.24155   0.11648   0.00000  Uiso   1.00
H76    H     0.49032   0.04188   0.10634   0.00000  Uiso   1.00
H77    H     0.42827   0.26624   0.39691   0.00000  Uiso   1.00
H78    H     0.49817   0.28979   0.39365   0.00000  Uiso   1.00
H79    H     0.64531   0.10013   0.19389   0.00000  Uiso   1.00
H80    H     0.35468   0.23317   0.30614   0.00000  Uiso   1.00
H81    H     0.53029   0.09044   0.38316   0.00000  Uiso   1.00
H82    H     0.45692   0.28830   0.04958   0.00000  Uiso   1.00
H83    H     0.54385   0.04332   0.45028   0.00000  Uiso   1.00
H84    H     0.45799   0.29169   0.46843   0.00000  Uiso   1.00
H85    H     0.54140   0.03958   0.03156   0.00000  Uiso   1.00
H86    H     0.56705   0.00301   0.24451   0.00000  Uiso   1.00
H87    H     0.43295   0.33033   0.25540   0.00000  Uiso   1.00
H88    H     0.52409   0.07347   0.14704   0.00000  Uiso   1.00
N89    N     0.65011   0.15265   0.23783   0.00000  Uiso   1.00
N90    N     0.34989   0.18068   0.26217   0.00000  Uiso   1.00
N91    N     0.52394   0.06945   0.11213   0.00000  Uiso   1.00
N92    N     0.47030   0.25793   0.38585   0.00000  Uiso   1.00
O93    O     0.46308   0.24619   0.25299   0.00000  Uiso   1.00
O94    O     0.65674   0.21467   0.29039   0.00000  Uiso   1.00
O95    O     0.53692   0.08714   0.24702   0.00000  Uiso   1.00
O96    O     0.55946   0.23721   0.24519   0.00000  Uiso   1.00
O97    O     0.44054   0.09613   0.25482   0.00000  Uiso   1.00
O98    O     0.45181   0.17117   0.31998   0.00000  Uiso   1.00
O99    O     0.54819   0.16216   0.18003   0.00000  Uiso   1.00
O100   O     0.54819   0.16219   0.31218   0.00000  Uiso   1.00
O101   O     0.45181   0.17115   0.18783   0.00000  Uiso   1.00
O102   O     0.34326   0.11865   0.20962   0.00000  Uiso   1.00
Zn103  Zn    0.43565   0.17266   0.25521   0.00000  Uiso   1.00
Zn104  Zn    0.56435   0.16067   0.24479   0.00000  Uiso   1.00
C105   C     0.84853   0.26485   0.24884   0.00000  Uiso   1.00
C106   C     0.81882   0.21296   0.40893   0.00000  Uiso   1.00
C107   C     0.83109   0.16264   0.11610   0.00000  Uiso   1.00
C108   C     0.83512   0.16853   0.38391   0.00000  Uiso   1.00
C109   C     0.81601   0.20741   0.09592   0.00000  Uiso   1.00
C110   C     0.85142   0.12414   0.40387   0.00000  Uiso   1.00
C111   C     0.81659   0.20889   0.04965   0.00000  Uiso   1.00
C112   C     0.85020   0.12250   0.45020   0.00000  Uiso   1.00
C113   C     0.83246   0.16469   0.02339   0.00000  Uiso   1.00
C114   C     0.83373   0.16657   0.47651   0.00000  Uiso   1.00
C115   C     0.84697   0.11864   0.04394   0.00000  Uiso   1.00
C116   C     0.81814   0.06848   0.25115   0.00000  Uiso   1.00
C117   C     0.81843   0.21239   0.45597   0.00000  Uiso   1.00
C118   C     0.80218   0.25421   0.02940   0.00000  Uiso   1.00
C119   C     0.86470   0.07724   0.47045   0.00000  Uiso   1.00
C120   C     0.80294   0.25600   0.48288   0.00000  Uiso   1.00
C121   C     0.86302   0.07521   0.01700   0.00000  Uiso   1.00
C122   C     0.85653   0.31937   0.24811   0.00000  Uiso   1.00
C123   C     0.81013   0.01396   0.25182   0.00000  Uiso   1.00
C124   C     0.83392   0.16739   0.33632   0.00000  Uiso   1.00
C125   C     0.83262   0.16523   0.16369   0.00000  Uiso   1.00
C126   C     0.84544   0.11718   0.09096   0.00000  Uiso   1.00
H127   H     0.80484   0.24155   0.11648   0.00000  Uiso   1.00
H128   H     0.82365   0.04188   0.10634   0.00000  Uiso   1.00
H129   H     0.76160   0.26624   0.39691   0.00000  Uiso   1.00
H130   H     0.83150   0.28979   0.39365   0.00000  Uiso   1.00
H131   H     0.97864   0.10013   0.19389   0.00000  Uiso   1.00
H132   H     0.68802   0.23317   0.30614   0.00000  Uiso   1.00
H133   H     0.86363   0.09044   0.38316   0.00000  Uiso   1.00
H134   H     0.79025   0.28830   0.04958   0.00000  Uiso   1.00
H135   H     0.87719   0.04332   0.45028   0.00000  Uiso   1.00
H136   H     0.79132   0.29169   0.46843   0.00000  Uiso   1.00
H137   H     0.87473   0.03958   0.03156   0.00000  Uiso   1.00
H138   H     0.90038   0.00301   0.24451   0.00000  Uiso   1.00
H139   H     0.76628   0.33033   0.25540   0.00000  Uiso   1.00
H140   H     0.85743   0.07347   0.14704   0.00000  Uiso   1.00
N141   N     0.98344   0.15265   0.23783   0.00000  Uiso   1.00
N142   N     0.68322   0.18068   0.26217   0.00000  Uiso   1.00
N143   N     0.85727   0.06945   0.11213   0.00000  Uiso   1.00
N144   N     0.80364   0.25793   0.38585   0.00000  Uiso   1.00
O145   O     0.79642   0.24619   0.25299   0.00000  Uiso   1.00
O146   O     0.99008   0.21467   0.29039   0.00000  Uiso   1.00
O147   O     0.87025   0.08714   0.24702   0.00000  Uiso   1.00
O148   O     0.89280   0.23721   0.24519   0.00000  Uiso   1.00
O149   O     0.77387   0.09613   0.25482   0.00000  Uiso   1.00
O150   O     0.78514   0.17117   0.31998   0.00000  Uiso   1.00
O151   O     0.88153   0.16216   0.18003   0.00000  Uiso   1.00
O152   O     0.88152   0.16219   0.31218   0.00000  Uiso   1.00
O153   O     0.78515   0.17115   0.18783   0.00000  Uiso   1.00
O154   O     0.67659   0.11865   0.20962   0.00000  Uiso   1.00
Zn155  Zn    0.76898   0.17266   0.25521   0.00000  Uiso   1.00
Zn156  Zn    0.89769   0.16067   0.24479   0.00000  Uiso   1.00
C157   C     0.18186   0.59818   0.24884   0.00000  Uiso   1.00
C158   C     0.15215   0.54629   0.40893   0.00000  Uiso   1.00
C159   C     0.16442   0.49597   0.11610   0.00000  Uiso   1.00
C160   C     0.16845   0.50187   0.38391   0.00000  Uiso   1.00
C161   C     0.14934   0.54075   0.09592   0.00000  Uiso   1.00
C162   C     0.18475   0.45748   0.40387   0.00000  Uiso   1.00
C163   C     0.14992   0.54222   0.04965   0.00000  Uiso   1.00
C164   C     0.18354   0.45584   0.45020   0.00000  Uiso   1.00
C165   C     0.16579   0.49802   0.02339   0.00000  Uiso   1.00
C166   C     0.16707   0.49991   0.47651   0.00000  Uiso   1.00
C167   C     0.18031   0.45197   0.04394   0.00000  Uiso   1.00
C168   C     0.15147   0.40182   0.25115   0.00000  Uiso   1.00
C169   C     0.15176   0.54572   0.45597   0.00000  Uiso   1.00
C170   C     0.13552   0.58754   0.02940   0.00000  Uiso   1.00
C171   C     0.19804   0.41058   0.47045   0.00000  Uiso   1.00
C172   C     0.13628   0.58933   0.48288   0.00000  Uiso   1.00
C173   C     0.19636   0.40855   0.01700   0.00000  Uiso   1.00
C174   C     0.18987   0.65270   0.24811   0.00000  Uiso   1.00
C175   C     0.14346   0.34730   0.25182   0.00000  Uiso   1.00
C176   C     0.16725   0.50073   0.33632   0.00000  Uiso   1.00
C177   C     0.16595   0.49857   0.16369   0.00000  Uiso   1.00
C178   C     0.17878   0.45051   0.09096   0.00000  Uiso   1.00
H179   H     0.13818   0.57489   0.11648   0.00000  Uiso   1.00
H180   H     0.15699   0.37522   0.10634   0.00000  Uiso   1.00
H181   H     0.09493   0.59958   0.39691   0.00000  Uiso   1.00
H182   H     0.16483   0.62312   0.39365   0.00000  Uiso   1.00
H183   H     0.31198   0.43347   0.19389   0.00000  Uiso   1.00
H184   H     0.02135   0.56650   0.30614   0.00000  Uiso   1.00
H185   H     0.19696   0.42378   0.38316   0.00000  Uiso   1.00
H186   H     0.12359   0.62164   0.04958   0.00000  Uiso   1.00
H187   H     0.21052   0.37665   0.45028   0.00000  Uiso   1.00
H188   H     0.12466   0.62502   0.46843   0.00000  Uiso   1.00
H189   H     0.20806   0.37292   0.03156   0.00000  Uiso   1.00
H190   H     0.23371   0.33634   0.24451   0.00000  Uiso   1.00
H191   H     0.09962   0.66366   0.25540   0.00000  Uiso   1.00
H192   H     0.19076   0.40681   0.14704   0.00000  Uiso   1.00
N193   N     0.31678   0.48598   0.23783   0.00000  Uiso   1.00
N194   N     0.01656   0.51402   0.26217   0.00000  Uiso   1.00
N195   N     0.19060   0.40278   0.11213   0.00000  Uiso   1.00
N196   N     0.13697   0.59127   0.38585   0.00000  Uiso   1.00
O197   O     0.12975   0.57952   0.25299   0.00000  Uiso   1.00
O198   O     0.32341   0.54800   0.29039   0.00000  Uiso   1.00
O199   O     0.20358   0.42048   0.24702   0.00000  Uiso   1.00
O200   O     0.22613   0.57054   0.24519   0.00000  Uiso   1.00
O201   O     0.10720   0.42946   0.25482   0.00000  Uiso   1.00
O202   O     0.11847   0.50450   0.31998   0.00000  Uiso   1.00
O203   O     0.21486   0.49550   0.18003   0.00000  Uiso   1.00
O204   O     0.21485   0.49552   0.31218   0.00000  Uiso   1.00
O205   O     0.11848   0.50448   0.18783   0.00000  Uiso   1.00
O206   O     0.00992   0.45198   0.20962   0.00000  Uiso   1.00
Zn207  Zn    0.10231   0.50600   0.25521   0.00000  Uiso   1.00
Zn208  Zn    0.23102   0.49400   0.24479   0.00000  Uiso   1.00
C209   C     0.51520   0.59818   0.24884   0.00000  Uiso   1.00
C210   C     0.48549   0.54629   0.40893   0.00000  Uiso   1.00
C211   C     0.49776   0.49597   0.11610   0.00000  Uiso   1.00
C212   C     0.50178   0.50187   0.38391   0.00000  Uiso   1.00
C213   C     0.48267   0.54075   0.09592   0.00000  Uiso   1.00
C214   C     0.51809   0.45748   0.40387   0.00000  Uiso   1.00
C215   C     0.48326   0.54222   0.04965   0.00000  Uiso   1.00
C216   C     0.51687   0.45584   0.45020   0.00000  Uiso   1.00
C217   C     0.49913   0.49802   0.02339   0.00000  Uiso   1.00
C218   C     0.50040   0.49991   0.47651   0.00000  Uiso   1.00
C219   C     0.51364   0.45197   0.04394   0.00000  Uiso   1.00
C220   C     0.48480   0.40182   0.25115   0.00000  Uiso   1.00
C221   C     0.48509   0.54572   0.45597   0.00000  Uiso   1.00
C222   C     0.46885   0.58754   0.02940   0.00000  Uiso   1.00
C223   C     0.53137   0.41058   0.47045   0.00000  Uiso   1.00
C224   C     0.46961   0.58933   0.48288   0.00000  Uiso   1.00
C225   C     0.52969   0.40855   0.01700   0.00000  Uiso   1.00
C226   C     0.52320   0.65270   0.24811   0.00000  Uiso   1.00
C227   C     0.47680   0.34730   0.25182   0.00000  Uiso   1.00
C228   C     0.50059   0.50073   0.33632   0.00000  Uiso   1.00
C229   C     0.49928   0.49857   0.16369   0.00000  Uiso   1.00
C230   C     0.51211   0.45051   0.09096   0.00000  Uiso   1.00
H231   H     0.47151   0.57489   0.11648   0.00000  Uiso   1.00
H232   H     0.49032   0.37522   0.10634   0.00000  Uiso   1.00
H233   H     0.42827   0.59958   0.39691   0.00000  Uiso   1.00
H234   H     0.49817   0.62312   0.39365   0.00000  Uiso   1.00
H235   H     0.64531   0.43347   0.19389   0.00000  Uiso   1.00
H236   H     0.35468   0.56650   0.30614   0.00000  Uiso   1.00
H237   H     0.53029   0.42378   0.38316   0.00000  Uiso   1.00
H238   H     0.45692   0.62164   0.04958   0.00000  Uiso   1.00
H239   H     0.54385   0.37665   0.45028   0.00000  Uiso   1.00
H240   H     0.45799   0.62502   0.46843   0.00000  Uiso   1.00
H241   H     0.54140   0.37292   0.03156   0.00000  Uiso   1.00
H242   H     0.56705   0.33634   0.24451   0.00000  Uiso   1.00
H243   H     0.43295   0.66366   0.25540   0.00000  Uiso   1.00
H244   H     0.52409   0.40681   0.14704   0.00000  Uiso   1.00
N245   N     0.65011   0.48598   0.23783   0.00000  Uiso   1.00
N246   N     0.34989   0.51402   0.26217   0.00000  Uiso   1.00
N247   N     0.52394   0.40278   0.11213   0.00000  Uiso   1.00
N248   N     0.47030   0.59127   0.38585   0.00000  Uiso   1.00
O249   O     0.46308   0.57952   0.25299   0.00000  Uiso   1.00
O250   O     0.65674   0.54800   0.29039   0.00000  Uiso   1.00
O251   O     0.53692   0.42048   0.24702   0.00000  Uiso   1.00
O252   O     0.55946   0.57054   0.24519   0.00000  Uiso   1.00
O253   O     0.44054   0.42946   0.25482   0.00000  Uiso   1.00
O254   O     0.45181   0.50450   0.31998   0.00000  Uiso   1.00
O255   O     0.54819   0.49550   0.18003   0.00000  Uiso   1.00
O256   O     0.54819   0.49552   0.31218   0.00000  Uiso   1.00
O257   O     0.45181   0.50448   0.18783   0.00000  Uiso   1.00
O258   O     0.34326   0.45198   0.20962   0.00000  Uiso   1.00
Zn259  Zn    0.43565   0.50600   0.25521   0.00000  Uiso   1.00
Zn260  Zn    0.56435   0.49400   0.24479   0.00000  Uiso   1.00
C261   C     0.84853   0.59818   0.24884   0.00000  Uiso   1.00
C262   C     0.81882   0.54629   0.40893   0.00000  Uiso   1.00
C263   C     0.83109   0.49597   0.11610   0.00000  Uiso   1.00
C264   C     0.83512   0.50187   0.38391   0.00000  Uiso   1.00
C265   C     0.81601   0.54075   0.09592   0.00000  Uiso   1.00
C266   C     0.85142   0.45748   0.40387   0.00000  Uiso   1.00
C267   C     0.81659   0.54222   0.04965   0.00000  Uiso   1.00
C268   C     0.85020   0.45584   0.45020   0.00000  Uiso   1.00
C269   C     0.83246   0.49802   0.02339   0.00000  Uiso   1.00
C270   C     0.83373   0.49991   0.47651   0.00000  Uiso   1.00
C271   C     0.84697   0.45197   0.04394   0.00000  Uiso   1.00
C272   C     0.81814   0.40182   0.25115   0.00000  Uiso   1.00
C273   C     0.81843   0.54572   0.45597   0.00000  Uiso   1.00
C274   C     0.80218   0.58754   0.02940   0.00000  Uiso   1.00
C275   C     0.86470   0.41058   0.47045   0.00000  Uiso   1.00
C276   C     0.80294   0.58933   0.48288   0.00000  Uiso   1.00
C277   C     0.86302   0.40855   0.01700   0.00000  Uiso   1.00
C278   C     0.85653   0.65270   0.24811   0.00000  Uiso   1.00
C279   C     0.81013   0.34730   0.25182   0.00000  Uiso   1.00
C280   C     0.83392   0.50073   0.33632   0.00000  Uiso   1.00
C281   C     0.83262   0.49857   0.16369   0.00000  Uiso   1.00
C282   C     0.84544   0.45051   0.09096   0.00000  Uiso   1.00
H283   H     0.80484   0.57489   0.11648   0.00000  Uiso   1.00
H284   H     0.82365   0.37522   0.10634   0.00000  Uiso   1.00
H285   H     0.76160   0.59958   0.39691   0.00000  Uiso   1.00
H286   H     0.83150   0.62312   0.39365   0.00000  Uiso   1.00
H287   H     0.97864   0.43347   0.19389   0.00000  Uiso   1.00
H288   H     0.68802   0.56650   0.30614   0.00000  Uiso   1.00
H289   H     0.86363   0.42378   0.38316   0.00000  Uiso   1.00
H290   H     0.79025   0.62164   0.04958   0.00000  Uiso   1.00
H291   H     0.87719   0.37665   0.45028   0.00000  Uiso   1.00
H292   H     0.79132   0.62502   0.46843   0.00000  Uiso   1.00
H293   H     0.87473   0.37292   0.03156   0.00000  Uiso   1.00
H294   H     0.90038   0.33634   0.24451   0.00000  Uiso   1.00
H295   H     0.76628   0.66366   0.25540   0.00000  Uiso   1.00
H296   H     0.85743   0.40681   0.14704   0.00000  Uiso   1.00
N297   N     0.98344   0.48598   0.23783   0.00000  Uiso   1.00
N298   N     0.68322   0.51402   0.26217   0.00000  Uiso   1.00
N299   N     0.85727   0.40278   0.11213   0.00000  Uiso   1.00
N300   N     0.80364   0.59127   0.38585   0.00000  Uiso   1.00
O301   O     0.79642   0.57952   0.25299   0.00000  Uiso   1.00
O302   O     0.99008   0.54800   0.29039   0.00000  Uiso   1.00
O303   O     0.87025   0.42048   0.24702   0.00000  Uiso   1.00
O304   O     0.89280   0.57054   0.24519   0.00000  Uiso   1.00
O305   O     0.77387   0.42946   0.25482   0.00000  Uiso   1.00
O306   O     0.78514   0.50450   0.31998   0.00000  Uiso   1.00
O307   O     0.88153   0.49550   0.18003   0.00000  Uiso   1.00
O308   O     0.88152   0.49552   0.31218   0.00000  Uiso   1.00
O309   O     0.78515   0.50448   0.18783   0.00000  Uiso   1.00
O310   O     0.67659   0.45198   0.20962   0.00000  Uiso   1.00
Zn311  Zn    0.76898   0.50600   0.25521   0.00000  Uiso   1.00
Zn312  Zn    0.89769   0.49400   0.24479   0.00000  Uiso   1.00
C313   C     0.18186   0.93152   0.24884   0.00000  Uiso   1.00
C314   C     0.15215   0.87963   0.40893   0.00000  Uiso   1.00
C315   C     0.16442   0.82931   0.11610   0.00000  Uiso   1.00
C316   C     0.16845   0.83520   0.38391   0.00000  Uiso   1.00
C317   C     0.14934   0.87408   0.09592   0.00000  Uiso   1.00
C318   C     0.18475   0.79081   0.40387   0.00000  Uiso   1.00
C319   C     0.14992   0.87556   0.04965   0.00000  Uiso   1.00
C320   C     0.18354   0.78917   0.45020   0.00000  Uiso   1.00
C321   C     0.16579   0.83136   0.02339   0.00000  Uiso   1.00
C322   C     0.16707   0.83324   0.47651   0.00000  Uiso   1.00
C323   C     0.18031   0.78531   0.04394   0.00000  Uiso   1.00
C324   C     0.15147   0.73515   0.25115   0.00000  Uiso   1.00
C325   C     0.15176   0.87906   0.45597   0.00000  Uiso   1.00
C326   C     0.13552   0.92088   0.02940   0.00000  Uiso   1.00
C327   C     0.19804   0.74391   0.47045   0.00000  Uiso   1.00
C328   C     0.13628   0.92267   0.48288   0.00000  Uiso   1.00
C329   C     0.19636   0.74188   0.01700   0.00000  Uiso   1.00
C330   C     0.18987   0.98604   0.24811   0.00000  Uiso   1.00
C331   C     0.14346   0.68063   0.25182   0.00000  Uiso   1.00
C332   C     0.16725   0.83406   0.33632   0.00000  Uiso   1.00
C333   C     0.16595   0.83190   0.16369   0.00000  Uiso   1.00
C334   C     0.17878   0.78385   0.09096   0.00000  Uiso   1.00
H335   H     0.13818   0.90822   0.11648   0.00000  Uiso   1.00
H336   H     0.15699   0.70855   0.10634   0.00000  Uiso   1.00
H337   H     0.09493   0.93291   0.39691   0.00000  Uiso   1.00
H338   H     0.16483   0.95646   0.39365   0.00000  Uiso   1.00
H339   H     0.31198   0.76680   0.19389   0.00000  Uiso   1.00
H340   H     0.02135   0.89983   0.30614   0.00000  Uiso   1.00
H341   H     0.19696   0.75711   0.38316   0.00000  Uiso   1.00
H342   H     0.12359   0.95497   0.04958   0.00000  Uiso   1.00
H343   H     0.21052   0.70998   0.45028   0.00000  Uiso   1.00
H344   H     0.12466   0.95836   0.46843   0.00000  Uiso   1.00
H345   H     0.20806   0.70625   0.03156   0.00000  Uiso   1.00
H346   H     0.23371   0.66967   0.24451   0.00000  Uiso   1.00
H347   H     0.09962   0.99699   0.25540   0.00000  Uiso   1.00
H348   H     0.19076   0.74014   0.14704   0.00000  Uiso   1.00
N349   N     0.31678   0.81932   0.23783   0.00000  Uiso   1.00
N350   N     0.01656   0.84735   0.26217   0.00000  Uiso   1.00
N351   N     0.19060   0.73611   0.11213   0.00000  Uiso   1.00
N352   N     0.13697   0.92460   0.38585   0.00000  Uiso   1.00
O353   O     0.12975   0.91286   0.25299   0.00000  Uiso   1.00
O354   O     0.32341   0.88134   0.29039   0.00000  Uiso   1.00
O355   O     0.20358   0.75381   0.24702   0.00000  Uiso   1.00
O356   O     0.22613   0.90387   0.24519   0.00000  Uiso   1.00
O357   O     0.10720   0.76279   0.25482   0.00000  Uiso   1.00
O358   O     0.11847   0.83784   0.31998   0.00000  Uiso   1.00
O359   O     0.21486   0.82883   0.18003   0.00000  Uiso   1.00
O360   O     0.21485   0.82885   0.31218   0.00000  Uiso   1.00
O361   O     0.11848   0.83781   0.18783   0.00000  Uiso   1.00
O362   O     0.00992   0.78531   0.20962   0.00000  Uiso   1.00
Zn363  Zn    0.10231   0.83933   0.25521   0.00000  Uiso   1.00
Zn364  Zn    0.23102   0.82734   0.24479   0.00000  Uiso   1.00
C365   C     0.51520   0.93152   0.24884   0.00000  Uiso   1.00
C366   C     0.48549   0.87963   0.40893   0.00000  Uiso   1.00
C367   C     0.49776   0.82931   0.11610   0.00000  Uiso   1.00
C368   C     0.50178   0.83520   0.38391   0.00000  Uiso   1.00
C369   C     0.48267   0.87408   0.09592   0.00000  Uiso   1.00
C370   C     0.51809   0.79081   0.40387   0.00000  Uiso   1.00
C371   C     0.48326   0.87556   0.04965   0.00000  Uiso   1.00
C372   C     0.51687   0.78917   0.45020   0.00000  Uiso   1.00
C373   C     0.49913   0.83136   0.02339   0.00000  Uiso   1.00
C374   C     0.50040   0.83324   0.47651   0.00000  Uiso   1.00
C375   C     0.51364   0.78531   0.04394   0.00000  Uiso   1.00
C376   C     0.48480   0.73515   0.25115   0.00000  Uiso   1.00
C377   C     0.48509   0.87906   0.45597   0.00000  Uiso   1.00
C378   C     0.46885   0.92088   0.02940   0.00000  Uiso   1.00
C379   C     0.53137   0.74391   0.47045   0.00000  Uiso   1.00
C380   C     0.46961   0.92267   0.48288   0.00000  Uiso   1.00
C381   C     0.52969   0.74188   0.01700   0.00000  Uiso   1.00
C382   C     0.52320   0.98604   0.24811   0.00000  Uiso   1.00
C383   C     0.47680   0.68063   0.25182   0.00000  Uiso   1.00
C384   C     0.50059   0.83406   0.33632   0.00000  Uiso   1.00
C385   C     0.49928   0.83190   0.16369   0.00000  Uiso   1.00
C386   C     0.51211   0.78385   0.09096   0.00000  Uiso   1.00
H387   H     0.47151   0.90822   0.11648   0.00000  Uiso   1.00
H388   H     0.49032   0.70855   0.10634   0.00000  Uiso   1.00
H389   H     0.42827   0.93291   0.39691   0.00000  Uiso   1.00
H390   H     0.49817   0.95646   0.39365   0.00000  Uiso   1.00
H391   H     0.64531   0.76680   0.19389   0.00000  Uiso   1.00
H392   H     0.35468   0.89983   0.30614   0.00000  Uiso   1.00
H393   H     0.53029   0.75711   0.38316   0.00000  Uiso   1.00
H394   H     0.45692   0.95497   0.04958   0.00000  Uiso   1.00
H395   H     0.54385   0.70998   0.45028   0.00000  Uiso   1.00
H396   H     0.45799   0.95836   0.46843   0.00000  Uiso   1.00
H397   H     0.54140   0.70625   0.03156   0.00000  Uiso   1.00
H398   H     0.56705   0.66967   0.24451   0.00000  Uiso   1.00
H399   H     0.43295   0.99699   0.25540   0.00000  Uiso   1.00
H400   H     0.52409   0.74014   0.14704   0.00000  Uiso   1.00
N401   N     0.65011   0.81932   0.23783   0.00000  Uiso   1.00
N402   N     0.34989   0.84735   0.26217   0.00000  Uiso   1.00
N403   N     0.52394   0.73611   0.11213   0.00000  Uiso   1.00
N404   N     0.47030   0.92460   0.38585   0.00000  Uiso   1.00
O405   O     0.46308   0.91286   0.25299   0.00000  Uiso   1.00
O406   O     0.65674   0.88134   0.29039   0.00000  Uiso   1.00
O407   O     0.53692   0.75381   0.24702   0.00000  Uiso   1.00
O408   O     0.55946   0.90387   0.24519   0.00000  Uiso   1.00
O409   O     0.44054   0.76279   0.25482   0.00000  Uiso   1.00
O410   O     0.45181   0.83784   0.31998   0.00000  Uiso   1.00
O411   O     0.54819   0.82883   0.18003   0.00000  Uiso   1.00
O412   O     0.54819   0.82885   0.31218   0.00000  Uiso   1.00
O413   O     0.45181   0.83781   0.18783   0.00000  Uiso   1.00
O414   O     0.34326   0.78531   0.20962   0.00000  Uiso   1.00
Zn415  Zn    0.43565   0.83933   0.25521   0.00000  Uiso   1.00
Zn416  Zn    0.56435   0.82734   0.24479   0.00000  Uiso   1.00
C417   C     0.84853   0.93152   0.24884   0.00000  Uiso   1.00
C418   C     0.81882   0.87963   0.40893   0.00000  Uiso   1.00
C419   C     0.83109   0.82931   0.11610   0.00000  Uiso   1.00
C420   C     0.83512   0.83520   0.38391   0.00000  Uiso   1.00
C421   C     0.81601   0.87408   0.09592   0.00000  Uiso   1.00
C422   C     0.85142   0.79081   0.40387   0.00000  Uiso   1.00
C423   C     0.81659   0.87556   0.04965   0.00000  Uiso   1.00
C424   C     0.85020   0.78917   0.45020   0.00000  Uiso   1.00
C425   C     0.83246   0.83136   0.02339   0.00000  Uiso   1.00
C426   C     0.83373   0.83324   0.47651   0.00000  Uiso   1.00
C427   C     0.84697   0.78531   0.04394   0.00000  Uiso   1.00
C428   C     0.81814   0.73515   0.25115   0.00000  Uiso   1.00
C429   C     0.81843   0.87906   0.45597   0.00000  Uiso   1.00
C430   C     0.80218   0.92088   0.02940   0.00000  Uiso   1.00
C431   C     0.86470   0.74391   0.47045   0.00000  Uiso   1.00
C432   C     0.80294   0.92267   0.48288   0.00000  Uiso   1.00
C433   C     0.86302   0.74188   0.01700   0.00000  Uiso   1.00
C434   C     0.85653   0.98604   0.24811   0.00000  Uiso   1.00
C435   C     0.81013   0.68063   0.25182   0.00000  Uiso   1.00
C436   C     0.83392   0.83406   0.33632   0.00000  Uiso   1.00
C437   C     0.83262   0.83190   0.16369   0.00000  Uiso   1.00
C438   C     0.84544   0.78385   0.09096   0.00000  Uiso   1.00
H439   H     0.80484   0.90822   0.11648   0.00000  Uiso   1.00
H440   H     0.82365   0.70855   0.10634   0.00000  Uiso   1.00
H441   H     0.76160   0.93291   0.39691   0.00000  Uiso   1.00
H442   H     0.83150   0.95646   0.39365   0.00000  Uiso   1.00
H443   H     0.97864   0.76680   0.19389   0.00000  Uiso   1.00
H444   H     0.68802   0.89983   0.30614   0.00000  Uiso   1.00
H445   H     0.86363   0.75711   0.38316   0.00000  Uiso   1.00
H446   H     0.79025   0.95497   0.04958   0.00000  Uiso   1.00
H447   H     0.87719   0.70998   0.45028   0.00000  Uiso   1.00
H448   H     0.79132   0.95836   0.46843   0.00000  Uiso   1.00
H449   H     0.87473   0.70625   0.03156   0.00000  Uiso   1.00
H450   H     0.90038   0.66967   0.24451   0.00000  Uiso   1.00
H451   H     0.76628   0.99699   0.25540   0.00000  Uiso   1.00
H452   H     0.85743   0.74014   0.14704   0.00000  Uiso   1.00
N453   N     0.98344   0.81932   0.23783   0.00000  Uiso   1.00
N454   N     0.68322   0.84735   0.26217   0.00000  Uiso   1.00
N455   N     0.85727   0.73611   0.11213   0.00000  Uiso   1.00
N456   N     0.80364   0.92460   0.38585   0.00000  Uiso   1.00
O457   O     0.79642   0.91286   0.25299   0.00000  Uiso   1.00
O458   O     0.99008   0.88134   0.29039   0.00000  Uiso   1.00
O459   O     0.87025   0.75381   0.24702   0.00000  Uiso   1.00
O460   O     0.89280   0.90387   0.24519   0.00000  Uiso   1.00
O461   O     0.77387   0.76279   0.25482   0.00000  Uiso   1.00
O462   O     0.78514   0.83784   0.31998   0.00000  Uiso   1.00
O463   O     0.88153   0.82883   0.18003   0.00000  Uiso   1.00
O464   O     0.88152   0.82885   0.31218   0.00000  Uiso   1.00
O465   O     0.78515   0.83781   0.18783   0.00000  Uiso   1.00
O466   O     0.67659   0.78531   0.20962   0.00000  Uiso   1.00
Zn467  Zn    0.76898   0.83933   0.25521   0.00000  Uiso   1.00
Zn468  Zn    0.89769   0.82734   0.24479   0.00000  Uiso   1.00
C469   C     0.18186   0.26485   0.74884   0.00000  Uiso   1.00
C470   C     0.15215   0.21296   0.90893   0.00000  Uiso   1.00
C471   C     0.16442   0.16264   0.61610   0.00000  Uiso   1.00
C472   C     0.16845   0.16853   0.88391   0.00000  Uiso   1.00
C473   C     0.14934   0.20741   0.59592   0.00000  Uiso   1.00
C474   C     0.18475   0.12414   0.90387   0.00000  Uiso   1.00
C475   C     0.14992   0.20889   0.54965   0.00000  Uiso   1.00
C476   C     0.18354   0.12250   0.95020   0.00000  Uiso   1.00
C477   C     0.16579   0.16469   0.52339   0.00000  Uiso   1.00
C478   C     0.16707   0.16657   0.97651   0.00000  Uiso   1.00
C479   C     0.18031   0.11864   0.54394   0.00000  Uiso   1.00
C480   C     0.15147   0.06848   0.75115   0.00000  Uiso   1.00
C481   C     0.15176   0.21239   0.95597   0.00000  Uiso   1.00
C482   C     0.13552   0.25421   0.52940   0.00000  Uiso   1.00
C483   C     0.19804   0.07724   0.97045   0.00000  Uiso   1.00
C484   C     0.13628   0.25600   0.98288   0.00000  Uiso   1.00
C485   C     0.19636   0.07521   0.51700   0.00000  Uiso   1.00
C486   C     0.18987   0.31937   0.74811   0.00000  Uiso   1.00
C487   C     0.14346   0.01396   0.75182   0.00000  Uiso   1.00
C488   C     0.16725   0.16739   0.83632   0.00000  Uiso   1.00
C489   C     0.16595   0.16523   0.66369   0.00000  Uiso   1.00
C490   C     0.17878   0.11718   0.59096   0.00000  Uiso   1.00
H491   H     0.13818   0.24155   0.61648   0.00000  Uiso   1.00
H492   H     0.15699   0.04188   0.60634   0.00000  Uiso   1.00
H493   H     0.09493   0.26624   0.89691   0.00000  Uiso   1.00
H494   H     0.16483   0.28979   0.89365   0.00000  Uiso   1.00
H495   H     0.31198   0.10013   0.69389   0.00000  Uiso   1.00
H496   H     0.02135   0.23317   0.80614   0.00000  Uiso   1.00
H497   H     0.19696   0.09044   0.88316   0.00000  Uiso   1.00
H498   H     0.12359   0.28830   0.54958   0.00000  Uiso   1.00
H499   H     0.21052   0.04332   0.95028   0.00000  Uiso   1.00
H500   H     0.12466   0.29169   0.96843   0.00000  Uiso   1.00
H501   H     0.20806   0.03958   0.53156   0.00000  Uiso   1.00
H502   H     0.23371   0.00301   0.74451   0.00000  Uiso   1.00
H503   H     0.09962   0.33033   0.75540   0.00000  Uiso   1.00
H504   H     0.19076   0.07347   0.64704   0.00000  Uiso   1.00
N505   N     0.31678   0.15265   0.73783   0.00000  Uiso   1.00
N506   N     0.01656   0.18068   0.76217   0.00000  Uiso   1.00
N507   N     0.19060   0.06945   0.61213   0.00000  Uiso   1.00
N508   N     0.13697   0.25793   0.88585   0.00000  Uiso   1.00
O509   O     0.12975   0.24619   0.75299   0.00000  Uiso   1.00
O510   O     0.32341   0.21467   0.79039   0.00000  Uiso   1.00
O511   O     0.20358   0.08714   0.74702   0.00000  Uiso   1.00
O512   O     0.22613   0.23721   0.74519   0.00000  Uiso   1.00
O513   O     0.10720   0.09613   0.75482   0.00000  Uiso   1.00
O514   O     0.11847   0.17117   0.81998   0.00000  Uiso   1.00
O515   O     0.21486   0.16216   0.68003   0.00000  Uiso   1.00
O516   O     0.21485   0.16219   0.81218   0.00000  Uiso   1.00
O517   O     0.11848   0.17115   0.68783   0.00000  Uiso   1.00
O518   O     0.00992   0.11865   0.70962   0.00000  Uiso   1.00
Zn519  Zn    0.10231   0.17266   0.75521   0.00000  Uiso   1.00
Zn520  Zn    0.23102   0.16067   0.74479   0.00000  Uiso   1.00
C521   C     0.51520   0.26485   0.74884   0.00000  Uiso   1.00
C522   C     0.48549   0.21296   0.90893   0.00000  Uiso   1.00
C523   C     0.49776   0.16264   0.61610   0.00000  Uiso   1.00
C524   C     0.50178   0.16853   0.88391   0.00000  Uiso   1.00
C525   C     0.48267   0.20741   0.59592   0.00000  Uiso   1.00
C526   C     0.51809   0.12414   0.90387   0.00000  Uiso   1.00
C527   C     0.48326   0.20889   0.54965   0.00000  Uiso   1.00
C528   C     0.51687   0.12250   0.95020   0.00000  Uiso   1.00
C529   C     0.49913   0.16469   0.52339   0.00000  Uiso   1.00
C530   C     0.50040   0.16657   0.97651   0.00000  Uiso   1.00
C531   C     0.51364   0.11864   0.54394   0.00000  Uiso   1.00
C532   C     0.48480   0.06848   0.75115   0.00000  Uiso   1.00
C533   C     0.48509   0.21239   0.95597   0.00000  Uiso   1.00
C534   C     0.46885   0.25421   0.52940   0.00000  Uiso   1.00
C535   C     0.53137   0.07724   0.97045   0.00000  Uiso   1.00
C536   C     0.46961   0.25600   0.98288   0.00000  Uiso   1.00
C537   C     0.52969   0.07521   0.51700   0.00000  Uiso   1.00
C538   C     0.52320   0.31937   0.74811   0.00000  Uiso   1.00
C539   C     0.47680   0.01396   0.75182   0.00000  Uiso   1.00
C540   C     0.50059   0.16739   0.83632   0.00000  Uiso   1.00
C541   C     0.49928   0.16523   0.66369   0.00000  Uiso   1.00
C542   C     0.51211   0.11718   0.59096   0.00000  Uiso   1.00
H543   H     0.47151   0.24155   0.61648   0.00000  Uiso   1.00
H544   H     0.49032   0.04188   0.60634   0.00000  Uiso   1.00
H545   H     0.42827   0.26624   0.89691   0.00000  Uiso   1.00
H546   H     0.49817   0.28979   0.89365   0.00000  Uiso   1.00
H547   H     0.64531   0.10013   0.69389   0.00000  Uiso   1.00
H548   H     0.35468   0.23317   0.80614   0.00000  Uiso   1.00
H549   H     0.53029   0.09044   0.88316   0.00000  Uiso   1.00
H550   H     0.45692   0.28830   0.54958   0.00000  Uiso   1.00
H551   H     0.54385   0.04332   0.95028   0.00000  Uiso   1.00
H552   H     0.45799   0.29169   0.96843   0.00000  Uiso   1.00
H553   H     0.54140   0.03958   0.53156   0.00000  Uiso   1.00
H554   H     0.56705   0.00301   0.74451   0.00000  Uiso   1.00
H555   H     0.43295   0.33033   0.75540   0.00000  Uiso   1.00
H556   H     0.52409   0.07347   0.64704   0.00000  Uiso   1.00
N557   N     0.65011   0.15265   0.73783   0.00000  Uiso   1.00
N558   N     0.34989   0.18068   0.76217   0.00000  Uiso   1.00
N559   N     0.52394   0.06945   0.61213   0.00000  Uiso   1.00
N560   N     0.47030   0.25793   0.88585   0.00000  Uiso   1.00
O561   O     0.46308   0.24619   0.75299   0.00000  Uiso   1.00
O562   O     0.65674   0.21467   0.79039   0.00000  Uiso   1.00
O563   O     0.53692   0.08714   0.74702   0.00000  Uiso   1.00
O564   O     0.55946   0.23721   0.74519   0.00000  Uiso   1.00
O565   O     0.44054   0.09613   0.75482   0.00000  Uiso   1.00
O566   O     0.45181   0.17117   0.81998   0.00000  Uiso   1.00
O567   O     0.54819   0.16216   0.68003   0.00000  Uiso   1.00
O568   O     0.54819   0.16219   0.81218   0.00000  Uiso   1.00
O569   O     0.45181   0.17115   0.68783   0.00000  Uiso   1.00
O570   O     0.34326   0.11865   0.70962   0.00000  Uiso   1.00
Zn571  Zn    0.43565   0.17266   0.75521   0.00000  Uiso   1.00
Zn572  Zn    0.56435   0.16067   0.74479   0.00000  Uiso   1.00
C573   C     0.84853   0.26485   0.74884   0.00000  Uiso   1.00
C574   C     0.81882   0.21296   0.90893   0.00000  Uiso   1.00
C575   C     0.83109   0.16264   0.61610   0.00000  Uiso   1.00
C576   C     0.83512   0.16853   0.88391   0.00000  Uiso   1.00
C577   C     0.81601   0.20741   0.59592   0.00000  Uiso   1.00
C578   C     0.85142   0.12414   0.90387   0.00000  Uiso   1.00
C579   C     0.81659   0.20889   0.54965   0.00000  Uiso   1.00
C580   C     0.85020   0.12250   0.95020   0.00000  Uiso   1.00
C581   C     0.83246   0.16469   0.52339   0.00000  Uiso   1.00
C582   C     0.83373   0.16657   0.97651   0.00000  Uiso   1.00
C583   C     0.84697   0.11864   0.54394   0.00000  Uiso   1.00
C584   C     0.81814   0.06848   0.75115   0.00000  Uiso   1.00
C585   C     0.81843   0.21239   0.95597   0.00000  Uiso   1.00
C586   C     0.80218   0.25421   0.52940   0.00000  Uiso   1.00
C587   C     0.86470   0.07724   0.97045   0.00000  Uiso   1.00
C588   C     0.80294   0.25600   0.98288   0.00000  Uiso   1.00
C589   C     0.86302   0.07521   0.51700   0.00000  Uiso   1.00
C590   C     0.85653   0.31937   0.74811   0.00000  Uiso   1.00
C591   C     0.81013   0.01396   0.75182   0.00000  Uiso   1.00
C592   C     0.83392   0.16739   0.83632   0.00000  Uiso   1.00
C593   C     0.83262   0.16523   0.66369   0.00000  Uiso   1.00
C594   C     0.84544   0.11718   0.59096   0.00000  Uiso   1.00
H595   H     0.80484   0.24155   0.61648   0.00000  Uiso   1.00
H596   H     0.82365   0.04188   0.60634   0.00000  Uiso   1.00
H597   H     0.76160   0.26624   0.89691   0.00000  Uiso   1.00
H598   H     0.83150   0.28979   0.89365   0.00000  Uiso   1.00
H599   H     0.97864   0.10013   0.69389   0.00000  Uiso   1.00
H600   H     0.68802   0.23317   0.80614   0.00000  Uiso   1.00
H601   H     0.86363   0.09044   0.88316   0.00000  Uiso   1.00
H602   H     0.79025   0.28830   0.54958   0.00000  Uiso   1.00
H603   H     0.87719   0.04332   0.95028   0.00000  Uiso   1.00
H604   H     0.79132   0.29169   0.96843   0.00000  Uiso   1.00
H605   H     0.87473   0.03958   0.53156   0.00000  Uiso   1.00
H606   H     0.90038   0.00301   0.74451   0.00000  Uiso   1.00
H607   H     0.76628   0.33033   0.75540   0.00000  Uiso   1.00
H608   H     0.85743   0.07347   0.64704   0.00000  Uiso   1.00
N609   N     0.98344   0.15265   0.73783   0.00000  Uiso   1.00
N610   N     0.68322   0.18068   0.76217   0.00000  Uiso   1.00
N611   N     0.85727   0.06945   0.61213   0.00000  Uiso   1.00
N612   N     0.80364   0.25793   0.88585   0.00000  Uiso   1.00
O613   O     0.79642   0.24619   0.75299   0.00000  Uiso   1.00
O614   O     0.99008   0.21467   0.79039   0.00000  Uiso   1.00
O615   O     0.87025   0.08714   0.74702   0.00000  Uiso   1.00
O616   O     0.89280   0.23721   0.74519   0.00000  Uiso   1.00
O617   O     0.77387   0.09613   0.75482   0.00000  Uiso   1.00
O618   O     0.78514   0.17117   0.81998   0.00000  Uiso   1.00
O619   O     0.88153   0.16216   0.68003   0.00000  Uiso   1.00
O620   O     0.88152   0.16219   0.81218   0.00000  Uiso   1.00
O621   O     0.78515   0.17115   0.68783   0.00000  Uiso   1.00
O622   O     0.67659   0.11865   0.70962   0.00000  Uiso   1.00
Zn623  Zn    0.76898   0.17266   0.75521   0.00000  Uiso   1.00
Zn624  Zn    0.89769   0.16067   0.74479   0.00000  Uiso   1.00
C625   C     0.18186   0.59818   0.74884   0.00000  Uiso   1.00
C626   C     0.15215   0.54629   0.90893   0.00000  Uiso   1.00
C627   C     0.16442   0.49597   0.61610   0.00000  Uiso   1.00
C628   C     0.16845   0.50187   0.88391   0.00000  Uiso   1.00
C629   C     0.14934   0.54075   0.59592   0.00000  Uiso   1.00
C630   C     0.18475   0.45748   0.90387   0.00000  Uiso   1.00
C631   C     0.14992   0.54222   0.54965   0.00000  Uiso   1.00
C632   C     0.18354   0.45584   0.95020   0.00000  Uiso   1.00
C633   C     0.16579   0.49802   0.52339   0.00000  Uiso   1.00
C634   C     0.16707   0.49991   0.97651   0.00000  Uiso   1.00
C635   C     0.18031   0.45197   0.54394   0.00000  Uiso   1.00
C636   C     0.15147   0.40182   0.75115   0.00000  Uiso   1.00
C637   C     0.15176   0.54572   0.95597   0.00000  Uiso   1.00
C638   C     0.13552   0.58754   0.52940   0.00000  Uiso   1.00
C639   C     0.19804   0.41058   0.97045   0.00000  Uiso   1.00
C640   C     0.13628   0.58933   0.98288   0.00000  Uiso   1.00
C641   C     0.19636   0.40855   0.51700   0.00000  Uiso   1.00
C642   C     0.18987   0.65270   0.74811   0.00000  Uiso   1.00
C643   C     0.14346   0.34730   0.75182   0.00000  Uiso   1.00
C644   C     0.16725   0.50073   0.83632   0.00000  Uiso   1.00
C645   C     0.16595   0.49857   0.66369   0.00000  Uiso   1.00
C646   C     0.17878   0.45051   0.59096   0.00000  Uiso   1.00
H647   H     0.13818   0.57489   0.61648   0.00000  Uiso   1.00
H648   H     0.15699   0.37522   0.60634   0.00000  Uiso   1.00
H649   H     0.09493   0.59958   0.89691   0.00000  Uiso   1.00
H650   H     0.16483   0.62312   0.89365   0.00000  Uiso   1.00
H651   H     0.31198   0.43347   0.69389   0.00000  Uiso   1.00
H652   H     0.02135   0.56650   0.80614   0.00000  Uiso   1.00
H653   H     0.19696   0.42378   0.88316   0.00000  Uiso   1.00
H654   H     0.12359   0.62164   0.54958   0.00000  Uiso   1.00
H655   H     0.21052   0.37665   0.95028   0.00000  Uiso   1.00
H656   H     0.12466   0.62502   0.96843   0.00000  Uiso   1.00
H657   H     0.20806   0.37292   0.53156   0.00000  Uiso   1.00
H658   H     0.23371   0.33634   0.74451   0.00000  Uiso   1.00
H659   H     0.09962   0.66366   0.75540   0.00000  Uiso   1.00
H660   H     0.19076   0.40681   0.64704   0.00000  Uiso   1.00
N661   N     0.31678   0.48598   0.73783   0.00000  Uiso   1.00
N662   N     0.01656   0.51402   0.76217   0.00000  Uiso   1.00
N663   N     0.19060   0.40278   0.61213   0.00000  Uiso   1.00
N664   N     0.13697   0.59127   0.88585   0.00000  Uiso   1.00
O665   O     0.12975   0.57952   0.75299   0.00000  Uiso   1.00
O666   O     0.32341   0.54800   0.79039   0.00000  Uiso   1.00
O667   O     0.20358   0.42048   0.74702   0.00000  Uiso   1.00
O668   O     0.22613   0.57054   0.74519   0.00000  Uiso   1.00
O669   O     0.10720   0.42946   0.75482   0.00000  Uiso   1.00
O670   O     0.11847   0.50450   0.81998   0.00000  Uiso   1.00
O671   O     0.21486   0.49550   0.68003   0.00000  Uiso   1.00
O672   O     0.21485   0.49552   0.81218   0.00000  Uiso   1.00
O673   O     0.11848   0.50448   0.68783   0.00000  Uiso   1.00
O674   O     0.00992   0.45198   0.70962   0.00000  Uiso   1.00
Zn675  Zn    0.10231   0.50600   0.75521   0.00000  Uiso   1.00
Zn676  Zn    0.23102   0.49400   0.74479   0.00000  Uiso   1.00
C677   C     0.51520   0.59818   0.74884   0.00000  Uiso   1.00
C678   C     0.48549   0.54629   0.90893   0.00000  Uiso   1.00
C679   C     0.49776   0.49597   0.61610   0.00000  Uiso   1.00
C680   C     0.50178   0.50187   0.88391   0.00000  Uiso   1.00
C681   C     0.48267   0.54075   0.59592   0.00000  Uiso   1.00
C682   C     0.51809   0.45748   0.90387   0.00000  Uiso   1.00
C683   C     0.48326   0.54222   0.54965   0.00000  Uiso   1.00
C684   C     0.51687   0.45584   0.95020   0.00000  Uiso   1.00
C685   C     0.49913   0.49802   0.52339   0.00000  Uiso   1.00
C686   C     0.50040   0.49991   0.97651   0.00000  Uiso   1.00
C687   C     0.51364   0.45197   0.54394   0.00000  Uiso   1.00
C688   C     0.48480   0.40182   0.75115   0.00000  Uiso   1.00
C689   C     0.48509   0.54572   0.95597   0.00000  Uiso   1.00
C690   C     0.46885   0.58754   0.52940   0.00000  Uiso   1.00
C691   C     0.53137   0.41058   0.97045   0.00000  Uiso   1.00
C692   C     0.46961   0.58933   0.98288   0.00000  Uiso   1.00
C693   C     0.52969   0.40855   0.51700   0.00000  Uiso   1.00
C694   C     0.52320   0.65270   0.74811   0.00000  Uiso   1.00
C695   C     0.47680   0.34730   0.75182   0.00000  Uiso   1.00
C696   C     0.50059   0.50073   0.83632   0.00000  Uiso   1.00
C697   C     0.49928   0.49857   0.66369   0.00000  Uiso   1.00
C698   C     0.51211   0.45051   0.59096   0.00000  Uiso   1.00
H699   H     0.47151   0.57489   0.61648   0.00000  Uiso   1.00
H700   H     0.49032   0.37522   0.60634   0.00000  Uiso   1.00
H701   H     0.42827   0.59958   0.89691   0.00000  Uiso   1.00
H702   H     0.49817   0.62312   0.89365   0.00000  Uiso   1.00
H703   H     0.64531   0.43347   0.69389   0.00000  Uiso   1.00
H704   H     0.35468   0.56650   0.80614   0.00000  Uiso   1.00
H705   H     0.53029   0.42378   0.88316   0.00000  Uiso   1.00
H706   H     0.45692   0.62164   0.54958   0.00000  Uiso   1.00
H707   H     0.54385   0.37665   0.95028   0.00000  Uiso   1.00
H708   H     0.45799   0.62502   0.96843   0.00000  Uiso   1.00
H709   H     0.54140   0.37292   0.53156   0.00000  Uiso   1.00
H710   H     0.56705   0.33634   0.74451   0.00000  Uiso   1.00
H711   H     0.43295   0.66366   0.75540   0.00000  Uiso   1.00
H712   H     0.52409   0.40681   0.64704   0.00000  Uiso   1.00
N713   N     0.65011   0.48598   0.73783   0.00000  Uiso   1.00
N714   N     0.34989   0.51402   0.76217   0.00000  Uiso   1.00
N715   N     0.52394   0.40278   0.61213   0.00000  Uiso   1.00
N716   N     0.47030   0.59127   0.88585   0.00000  Uiso   1.00
O717   O     0.46308   0.57952   0.75299   0.00000  Uiso   1.00
O718   O     0.65674   0.54800   0.79039   0.00000  Uiso   1.00
O719   O     0.53692   0.42048   0.74702   0.00000  Uiso   1.00
O720   O     0.55946   0.57054   0.74519   0.00000  Uiso   1.00
O721   O     0.44054   0.42946   0.75482   0.00000  Uiso   1.00
O722   O     0.45181   0.50450   0.81998   0.00000  Uiso   1.00
O723   O     0.54819   0.49550   0.68003   0.00000  Uiso   1.00
O724   O     0.54819   0.49552   0.81218   0.00000  Uiso   1.00
O725   O     0.45181   0.50448   0.68783   0.00000  Uiso   1.00
O726   O     0.34326   0.45198   0.70962   0.00000  Uiso   1.00
Zn727  Zn    0.43565   0.50600   0.75521   0.00000  Uiso   1.00
Zn728  Zn    0.56435   0.49400   0.74479   0.00000  Uiso   1.00
C729   C     0.84853   0.59818   0.74884   0.00000  Uiso   1.00
C730   C     0.81882   0.54629   0.90893   0.00000  Uiso   1.00
C731   C     0.83109   0.49597   0.61610   0.00000  Uiso   1.00
C732   C     0.83512   0.50187   0.88391   0.00000  Uiso   1.00
C733   C     0.81601   0.54075   0.59592   0.00000  Uiso   1.00
C734   C     0.85142   0.45748   0.90387   0.00000  Uiso   1.00
C735   C     0.81659   0.54222   0.54965   0.00000  Uiso   1.00
C736   C     0.85020   0.45584   0.95020   0.00000  Uiso   1.00
C737   C     0.83246   0.49802   0.52339   0.00000  Uiso   1.00
C738   C     0.83373   0.49991   0.97651   0.00000  Uiso   1.00
C739   C     0.84697   0.45197   0.54394   0.00000  Uiso   1.00
C740   C     0.81814   0.40182   0.75115   0.00000  Uiso   1.00
C741   C     0.81843   0.54572   0.95597   0.00000  Uiso   1.00
C742   C     0.80218   0.58754   0.52940   0.00000  Uiso   1.00
C743   C     0.86470   0.41058   0.97045   0.00000  Uiso   1.00
C744   C     0.80294   0.58933   0.98288   0.00000  Uiso   1.00
C745   C     0.86302   0.40855   0.51700   0.00000  Uiso   1.00
C746   C     0.85653   0.65270   0.74811   0.00000  Uiso   1.00
C747   C     0.81013   0.34730   0.75182   0.00000  Uiso   1.00
C748   C     0.83392   0.50073   0.83632   0.00000  Uiso   1.00
C749   C     0.83262   0.49857   0.66369   0.00000  Uiso   1.00
C750   C     0.84544   0.45051   0.59096   0.00000  Uiso   1.00
H751   H     0.80484   0.57489   0.61648   0.00000  Uiso   1.00
H752   H     0.82365   0.37522   0.60634   0.00000  Uiso   1.00
H753   H     0.76160   0.59958   0.89691   0.00000  Uiso   1.00
H754   H     0.83150   0.62312   0.89365   0.00000  Uiso   1.00
H755   H     0.97864   0.43347   0.69389   0.00000  Uiso   1.00
H756   H     0.68802   0.56650   0.80614   0.00000  Uiso   1.00
H757   H     0.86363   0.42378   0.88316   0.00000  Uiso   1.00
H758   H     0.79025   0.62164   0.54958   0.00000  Uiso   1.00
H759   H     0.87719   0.37665   0.95028   0.00000  Uiso   1.00
H760   H     0.79132   0.62502   0.96843   0.00000  Uiso   1.00
H761   H     0.87473   0.37292   0.53156   0.00000  Uiso   1.00
H762   H     0.90038   0.33634   0.74451   0.00000  Uiso   1.00
H763   H     0.76628   0.66366   0.75540   0.00000  Uiso   1.00
H764   H     0.85743   0.40681   0.64704   0.00000  Uiso   1.00
N765   N     0.98344   0.48598   0.73783   0.00000  Uiso   1.00
N766   N     0.68322   0.51402   0.76217   0.00000  Uiso   1.00
N767   N     0.85727   0.40278   0.61213   0.00000  Uiso   1.00
N768   N     0.80364   0.59127   0.88585   0.00000  Uiso   1.00
O769   O     0.79642   0.57952   0.75299   0.00000  Uiso   1.00
O770   O     0.99008   0.54800   0.79039   0.00000  Uiso   1.00
O771   O     0.87025   0.42048   0.74702   0.00000  Uiso   1.00
O772   O     0.89280   0.57054   0.74519   0.00000  Uiso   1.00
O773   O     0.77387   0.42946   0.75482   0.00000  Uiso   1.00
O774   O     0.78514   0.50450   0.81998   0.00000  Uiso   1.00
O775   O     0.88153   0.49550   0.68003   0.00000  Uiso   1.00
O776   O     0.88152   0.49552   0.81218   0.00000  Uiso   1.00
O777   O     0.78515   0.50448   0.68783   0.00000  Uiso   1.00
O778   O     0.67659   0.45198   0.70962   0.00000  Uiso   1.00
Zn779  Zn    0.76898   0.50600   0.75521   0.00000  Uiso   1.00
Zn780  Zn    0.89769   0.49400   0.74479   0.00000  Uiso   1.00
C781   C     0.18186   0.93152   0.74884   0.00000  Uiso   1.00
C782   C     0.15215   0.87963   0.90893   0.00000  Uiso   1.00
C783   C     0.16442   0.82931   0.61610   0.00000  Uiso   1.00
C784   C     0.16845   0.83520   0.88391   0.00000  Uiso   1.00
C785   C     0.14934   0.87408   0.59592   0.00000  Uiso   1.00
C786   C     0.18475   0.79081   0.90387   0.00000  Uiso   1.00
C787   C     0.14992   0.87556   0.54965   0.00000  Uiso   1.00
C788   C     0.18354   0.78917   0.95020   0.00000  Uiso   1.00
C789   C     0.16579   0.83136   0.52339   0.00000  Uiso   1.00
C790   C     0.16707   0.83324   0.97651   0.00000  Uiso   1.00
C791   C     0.18031   0.78531   0.54394   0.00000  Uiso   1.00
C792   C     0.15147   0.73515   0.75115   0.00000  Uiso   1.00
C793   C     0.15176   0.87906   0.95597   0.00000  Uiso   1.00
C794   C     0.13552   0.92088   0.52940   0.00000  Uiso   1.00
C795   C     0.19804   0.74391   0.97045   0.00000  Uiso   1.00
C796   C     0.13628   0.92267   0.98288   0.00000  Uiso   1.00
C797   C     0.19636   0.74188   0.51700   0.00000  Uiso   1.00
C798   C     0.18987   0.98604   0.74811   0.00000  Uiso   1.00
C799   C     0.14346   0.68063   0.75182   0.00000  Uiso   1.00
C800   C     0.16725   0.83406   0.83632   0.00000  Uiso   1.00
C801   C     0.16595   0.83190   0.66369   0.00000  Uiso   1.00
C802   C     0.17878   0.78385   0.59096   0.00000  Uiso   1.00
H803   H     0.13818   0.90822   0.61648   0.00000  Uiso   1.00
H804   H     0.15699   0.70855   0.60634   0.00000  Uiso   1.00
H805   H     0.09493   0.93291   0.89691   0.00000  Uiso   1.00
H806   H     0.16483   0.95646   0.89365   0.00000  Uiso   1.00
H807   H     0.31198   0.76680   0.69389   0.00000  Uiso   1.00
H808   H     0.02135   0.89983   0.80614   0.00000  Uiso   1.00
H809   H     0.19696   0.75711   0.88316   0.00000  Uiso   1.00
H810   H     0.12359   0.95497   0.54958   0.00000  Uiso   1.00
H811   H     0.21052   0.70998   0.95028   0.00000  Uiso   1.00
H812   H     0.12466   0.95836   0.96843   0.00000  Uiso   1.00
H813   H     0.20806   0.70625   0.53156   0.00000  Uiso   1.00
H814   H     0.23371   0.66967   0.74451   0.00000  Uiso   1.00
H815   H     0.09962   0.99699   0.75540   0.00000  Uiso   1.00
H816   H     0.19076   0.74014   0.64704   0.00000  Uiso   1.00
N817   N     0.31678   0.81932   0.73783   0.00000  Uiso   1.00
N818   N     0.01656   0.84735   0.76217   0.00000  Uiso   1.00
N819   N     0.19060   0.73611   0.61213   0.00000  Uiso   1.00
N820   N     0.13697   0.92460   0.88585   0.00000  Uiso   1.00
O821   O     0.12975   0.91286   0.75299   0.00000  Uiso   1.00
O822   O     0.32341   0.88134   0.79039   0.00000  Uiso   1.00
O823   O     0.20358   0.75381   0.74702   0.00000  Uiso   1.00
O824   O     0.22613   0.90387   0.74519   0.00000  Uiso   1.00
O825   O     0.10720   0.76279   0.75482   0.00000  Uiso   1.00
O826   O     0.11847   0.83784   0.81998   0.00000  Uiso   1.00
O827   O     0.21486   0.82883   0.68003   0.00000  Uiso   1.00
O828   O     0.21485   0.82885   0.81218   0.00000  Uiso   1.00
O829   O     0.11848   0.83781   0.68783   0.00000  Uiso   1.00
O830   O     0.00992   0.78531   0.70962   0.00000  Uiso   1.00
Zn831  Zn    0.10231   0.83933   0.75521   0.00000  Uiso   1.00
Zn832  Zn    0.23102   0.82734   0.74479   0.00000  Uiso   1.00
C833   C     0.51520   0.93152   0.74884   0.00000  Uiso   1.00
C834   C     0.48549   0.87963   0.90893   0.00000  Uiso   1.00
C835   C     0.49776   0.82931   0.61610   0.00000  Uiso   1.00
C836   C     0.50178   0.83520   0.88391   0.00000  Uiso   1.00
C837   C     0.48267   0.87408   0.59592   0.00000  Uiso   1.00
C838   C     0.51809   0.79081   0.90387   0.00000  Uiso   1.00
C839   C     0.48326   0.87556   0.54965   0.00000  Uiso   1.00
C840   C     0.51687   0.78917   0.95020   0.00000  Uiso   1.00
C841   C     0.49913   0.83136   0.52339   0.00000  Uiso   1.00
C842   C     0.50040   0.83324   0.97651   0.00000  Uiso   1.00
C843   C     0.51364   0.78531   0.54394   0.00000  Uiso   1.00
C844   C     0.48480   0.73515   0.75115   0.00000  Uiso   1.00
C845   C     0.48509   0.87906   0.95597   0.00000  Uiso   1.00
C846   C     0.46885   0.92088   0.52940   0.00000  Uiso   1.00
C847   C     0.53137   0.74391   0.97045   0.00000  Uiso   1.00
C848   C     0.46961   0.92267   0.98288   0.00000  Uiso   1.00
C849   C     0.52969   0.74188   0.51700   0.00000  Uiso   1.00
C850   C     0.52320   0.98604   0.74811   0.00000  Uiso   1.00
C851   C     0.47680   0.68063   0.75182   0.00000  Uiso   1.00
C852   C     0.50059   0.83406   0.83632   0.00000  Uiso   1.00
C853   C     0.49928   0.83190   0.66369   0.00000  Uiso   1.00
C854   C     0.51211   0.78385   0.59096   0.00000  Uiso   1.00
H855   H     0.47151   0.90822   0.61648   0.00000  Uiso   1.00
H856   H     0.49032   0.70855   0.60634   0.00000  Uiso   1.00
H857   H     0.42827   0.93291   0.89691   0.00000  Uiso   1.00
H858   H     0.49817   0.95646   0.89365   0.00000  Uiso   1.00
H859   H     0.64531   0.76680   0.69389   0.00000  Uiso   1.00
H860   H     0.35468   0.89983   0.80614   0.00000  Uiso   1.00
H861   H     0.53029   0.75711   0.88316   0.00000  Uiso   1.00
H862   H     0.45692   0.95497   0.54958   0.00000  Uiso   1.00
H863   H     0.54385   0.70998   0.95028   0.00000  Uiso   1.00
H864   H     0.45799   0.95836   0.96843   0.00000  Uiso   1.00
H865   H     0.54140   0.70625   0.53156   0.00000  Uiso   1.00
H866   H     0.56705   0.66967   0.74451   0.00000  Uiso   1.00
H867   H     0.43295   0.99699   0.75540   0.00000  Uiso   1.00
H868   H     0.52409   0.74014   0.64704   0.00000  Uiso   1.00
N869   N     0.65011   0.81932   0.73783   0.00000  Uiso   1.00
N870   N     0.34989   0.84735   0.76217   0.00000  Uiso   1.00
N871   N     0.52394   0.73611   0.61213   0.00000  Uiso   1.00
N872   N     0.47030   0.92460   0.88585   0.00000  Uiso   1.00
O873   O     0.46308   0.91286   0.75299   0.00000  Uiso   1.00
O874   O     0.65674   0.88134   0.79039   0.00000  Uiso   1.00
O875   O     0.53692   0.75381   0.74702   0.00000  Uiso   1.00
O876   O     0.55946   0.90387   0.74519   0.00000  Uiso   1.00
O877   O     0.44054   0.76279   0.75482   0.00000  Uiso   1.00
O878   O     0.45181   0.83784   0.81998   0.00000  Uiso   1.00
O879   O     0.54819   0.82883   0.68003   0.00000  Uiso   1.00
O880   O     0.54819   0.82885   0.81218   0.00000  Uiso   1.00
O881   O     0.45181   0.83781   0.68783   0.00000  Uiso   1.00
O882   O     0.34326   0.78531   0.70962   0.00000  Uiso   1.00
Zn883  Zn    0.43565   0.83933   0.75521   0.00000  Uiso   1.00
Zn884  Zn    0.56435   0.82734   0.74479   0.00000  Uiso   1.00
C885   C     0.84853   0.93152   0.74884   0.00000  Uiso   1.00
C886   C     0.81882   0.87963   0.90893   0.00000  Uiso   1.00
C887   C     0.83109   0.82931   0.61610   0.00000  Uiso   1.00
C888   C     0.83512   0.83520   0.88391   0.00000  Uiso   1.00
C889   C     0.81601   0.87408   0.59592   0.00000  Uiso   1.00
C890   C     0.85142   0.79081   0.90387   0.00000  Uiso   1.00
C891   C     0.81659   0.87556   0.54965   0.00000  Uiso   1.00
C892   C     0.85020   0.78917   0.95020   0.00000  Uiso   1.00
C893   C     0.83246   0.83136   0.52339   0.00000  Uiso   1.00
C894   C     0.83373   0.83324   0.97651   0.00000  Uiso   1.00
C895   C     0.84697   0.78531   0.54394   0.00000  Uiso   1.00
C896   C     0.81814   0.73515   0.75115   0.00000  Uiso   1.00
C897   C     0.81843   0.87906   0.95597   0.00000  Uiso   1.00
C898   C     0.80218   0.92088   0.52940   0.00000  Uiso   1.00
C899   C     0.86470   0.74391   0.97045   0.00000  Uiso   1.00
C900   C     0.80294   0.92267   0.98288   0.00000  Uiso   1.00
C901   C     0.86302   0.74188   0.51700   0.00000  Uiso   1.00
C902   C     0.85653   0.98604   0.74811   0.00000  Uiso   1.00
C903   C     0.81013   0.68063   0.75182   0.00000  Uiso   1.00
C904   C     0.83392   0.83406   0.83632   0.00000  Uiso   1.00
C905   C     0.83262   0.83190   0.66369   0.00000  Uiso   1.00
C906   C     0.84544   0.78385   0.59096   0.00000  Uiso   1.00
H907   H     0.80484   0.90822   0.61648   0.00000  Uiso   1.00
H908   H     0.82365   0.70855   0.60634   0.00000  Uiso   1.00
H909   H     0.76160   0.93291   0.89691   0.00000  Uiso   1.00
H910   H     0.83150   0.95646   0.89365   0.00000  Uiso   1.00
H911   H     0.97864   0.76680   0.69389   0.00000  Uiso   1.00
H912   H     0.68802   0.89983   0.80614   0.00000  Uiso   1.00
H913   H     0.86363   0.75711   0.88316   0.00000  Uiso   1.00
H914   H     0.79025   0.95497   0.54958   0.00000  Uiso   1.00
H915   H     0.87719   0.70998   0.95028   0.00000  Uiso   1.00
H916   H     0.79132   0.95836   0.96843   0.00000  Uiso   1.00
H917   H     0.87473   0.70625   0.53156   0.00000  Uiso   1.00
H918   H     0.90038   0.66967   0.74451   0.00000  Uiso   1.00
H919   H     0.76628   0.99699   0.75540   0.00000  Uiso   1.00
H920   H     0.85743   0.74014   0.64704   0.00000  Uiso   1.00
N921   N     0.98344   0.81932   0.73783   0.00000  Uiso   1.00
N922   N     0.68322   0.84735   0.76217   0.00000  Uiso   1.00
N923   N     0.85727   0.73611   0.61213   0.00000  Uiso   1.00
N924   N     0.80364   0.92460   0.88585   0.00000  Uiso   1.00
O925   O     0.79642   0.91286   0.75299   0.00000  Uiso   1.00
O926   O     0.99008   0.88134   0.79039   0.00000  Uiso   1.00
O927   O     0.87025   0.75381   0.74702   0.00000  Uiso   1.00
O928   O     0.89280   0.90387   0.74519   0.00000  Uiso   1.00
O929   O     0.77387   0.76279   0.75482   0.00000  Uiso   1.00
O930   O     0.78514   0.83784   0.81998   0.00000  Uiso   1.00
O931   O     0.88153   0.82883   0.68003   0.00000  Uiso   1.00
O932   O     0.88152   0.82885   0.81218   0.00000  Uiso   1.00
O933   O     0.78515   0.83781   0.68783   0.00000  Uiso   1.00
O934   O     0.67659   0.78531   0.70962   0.00000  Uiso   1.00
Zn935  Zn    0.76898   0.83933   0.75521   0.00000  Uiso   1.00
Zn936  Zn    0.89769   0.82734   0.74479   0.00000  Uiso   1.00
loop_
_geom_bond_atom_site_label_1
_geom_bond_atom_site_label_2
_geom_bond_distance
_geom_bond_site_symmetry_2
_ccdc_geom_bond_type
C1     O44     1.288   .     A
C1     C18     1.399   .     S
C1     O41     1.280   .     A
C2     C4      1.399   .     A
C2     N40     1.438   .     S
C2     C13     1.400   .     A
C3     C5      1.389   .     A
C3     C21     1.420   .     S
C3     C22     1.410   .     A
C4     C20     1.419   .     S
C4     C6      1.388   .     A
C5     H23     1.087   .     S
C5     C7      1.378   .     A
C6     H29     1.086   .     S
C6     C8      1.379   .     A
C7     C9      1.410   .     A
C7     C14     1.397   .     A
C8     C15     1.397   .     A
C8     C10     1.412   .     A
C9     C11     1.418   .     A
C9     C478    1.396   1_554 S
C10    C13     1.419   .     A
C10    C477    1.396   .     S
C11    C17     1.406   .     A
C11    C22     1.399   .     A
C12    C19     1.399   .     S
C12    O43     1.280   .     A
C12    O45     1.288   .     A
C13    C16     1.405   .     A
C14    H30     1.084   .     S
C14    C484    1.386   1_554 S
C15    H31     1.084   .     S
C15    C485    1.386   .     S
C16    H32     1.082   .     S
C16    C482    1.386   .     S
C17    H33     1.083   .     S
C17    C483    1.386   1_554 S
C18    C175    1.334   .     S
C18    H190    1.088   .     S
C19    C330    1.334   1_545 S
C19    H347    1.088   1_545 S
C20    O48     1.288   .     A
C20    O46     1.288   .     A
C21    O49     1.288   .     A
C21    O47     1.288   .     A
C22    N39     1.445   .     S
H24    N39     1.046   .     S
H25    N40     1.045   .     S
H26    N40     1.046   .     S
H27    O102    0.990   .     S
H28    O146    0.990   1_455 S
H34    C330    1.088   1_545 S
H35    C175    1.088   .     S
H36    N39     1.042   .     S
N37    Zn52    2.025   .     S
N37    N90     1.278   .     S
N37    O102    1.338   .     S
N38    Zn51    2.025   .     S
N38    N141    1.278   1_455 S
N38    O146    1.338   1_455 S
O41    Zn51    1.954   .     S
O42    H80     0.990   .     S
O42    N90     1.338   .     S
O43    Zn52    1.954   .     S
O44    Zn52    1.972   .     S
O45    Zn51    1.972   .     S
O46    Zn51    1.997   .     S
O47    Zn52    1.997   .     S
O48    Zn52    2.011   .     S
O49    Zn51    2.011   .     S
O50    N141    1.338   1_455 S
O50    H131    0.990   1_455 S
C53    O96     1.288   .     A
C53    C70     1.399   .     S
C53    O93     1.280   .     A
C54    C56     1.399   .     A
C54    N92     1.438   .     S
C54    C65     1.400   .     A
C55    C57     1.389   .     A
C55    C73     1.420   .     S
C55    C74     1.410   .     A
C56    C72     1.419   .     S
C56    C58     1.388   .     A
C57    H75     1.087   .     S
C57    C59     1.378   .     A
C58    H81     1.086   .     S
C58    C60     1.379   .     A
C59    C61     1.410   .     A
C59    C66     1.397   .     A
C60    C67     1.397   .     A
C60    C62     1.412   .     A
C61    C63     1.418   .     A
C61    C530    1.396   1_554 S
C62    C65     1.419   .     A
C62    C529    1.396   .     S
C63    C69     1.406   .     A
C63    C74     1.399   .     A
C64    C71     1.399   .     S
C64    O95     1.280   .     A
C64    O97     1.288   .     A
C65    C68     1.405   .     A
C66    H82     1.084   .     S
C66    C536    1.386   1_554 S
C67    H83     1.084   .     S
C67    C537    1.386   .     S
C68    H84     1.082   .     S
C68    C534    1.386   .     S
C69    H85     1.083   .     S
C69    C535    1.386   1_554 S
C70    C227    1.334   .     S
C70    H242    1.088   .     S
C71    C382    1.334   1_545 S
C71    H399    1.088   1_545 S
C72    O100    1.288   .     A
C72    O98     1.288   .     A
C73    O101    1.288   .     A
C73    O99     1.288   .     A
C74    N91     1.445   .     S
H76    N91     1.046   .     S
H77    N92     1.045   .     S
H78    N92     1.046   .     S
H79    O154    0.990   .     S
H86    C382    1.088   1_545 S
H87    C227    1.088   .     S
H88    N91     1.042   .     S
N89    Zn104   2.025   .     S
N89    N142    1.278   .     S
N89    O154    1.338   .     S
N90    Zn103   2.025   .     S
O93    Zn103   1.954   .     S
O94    H132    0.990   .     S
O94    N142    1.338   .     S
O95    Zn104   1.954   .     S
O96    Zn104   1.972   .     S
O97    Zn103   1.972   .     S
O98    Zn103   1.997   .     S
O99    Zn104   1.997   .     S
O100   Zn104   2.011   .     S
O101   Zn103   2.011   .     S
C105   O148    1.288   .     A
C105   C122    1.399   .     S
C105   O145    1.280   .     A
C106   C108    1.399   .     A
C106   N144    1.438   .     S
C106   C117    1.400   .     A
C107   C109    1.389   .     A
C107   C125    1.420   .     S
C107   C126    1.410   .     A
C108   C124    1.419   .     S
C108   C110    1.388   .     A
C109   H127    1.087   .     S
C109   C111    1.378   .     A
C110   H133    1.086   .     S
C110   C112    1.379   .     A
C111   C113    1.410   .     A
C111   C118    1.397   .     A
C112   C119    1.397   .     A
C112   C114    1.412   .     A
C113   C115    1.418   .     A
C113   C582    1.396   1_554 S
C114   C117    1.419   .     A
C114   C581    1.396   .     S
C115   C121    1.406   .     A
C115   C126    1.399   .     A
C116   C123    1.399   .     S
C116   O147    1.280   .     A
C116   O149    1.288   .     A
C117   C120    1.405   .     A
C118   H134    1.084   .     S
C118   C588    1.386   1_554 S
C119   H135    1.084   .     S
C119   C589    1.386   .     S
C120   H136    1.082   .     S
C120   C586    1.386   .     S
C121   H137    1.083   .     S
C121   C587    1.386   1_554 S
C122   C279    1.334   .     S
C122   H294    1.088   .     S
C123   C434    1.334   1_545 S
C123   H451    1.088   1_545 S
C124   O152    1.288   .     A
C124   O150    1.288   .     A
C125   O153    1.288   .     A
C125   O151    1.288   .     A
C126   N143    1.445   .     S
H128   N143    1.046   .     S
H129   N144    1.045   .     S
H130   N144    1.046   .     S
H131   O50     0.990   1_655 S
H138   C434    1.088   1_545 S
H139   C279    1.088   .     S
H140   N143    1.042   .     S
N141   Zn156   2.025   .     S
N141   N38     1.278   1_655 S
N141   O50     1.338   1_655 S
N142   Zn155   2.025   .     S
O145   Zn155   1.954   .     S
O146   H28     0.990   1_655 S
O146   N38     1.338   1_655 S
O147   Zn156   1.954   .     S
O148   Zn156   1.972   .     S
O149   Zn155   1.972   .     S
O150   Zn155   1.997   .     S
O151   Zn156   1.997   .     S
O152   Zn156   2.011   .     S
O153   Zn155   2.011   .     S
C157   O200    1.288   .     A
C157   C174    1.399   .     S
C157   O197    1.280   .     A
C158   C160    1.399   .     A
C158   N196    1.438   .     S
C158   C169    1.400   .     A
C159   C161    1.389   .     A
C159   C177    1.420   .     S
C159   C178    1.410   .     A
C160   C176    1.419   .     S
C160   C162    1.388   .     A
C161   H179    1.087   .     S
C161   C163    1.378   .     A
C162   H185    1.086   .     S
C162   C164    1.379   .     A
C163   C165    1.410   .     A
C163   C170    1.397   .     A
C164   C171    1.397   .     A
C164   C166    1.412   .     A
C165   C167    1.418   .     A
C165   C634    1.396   1_554 S
C166   C169    1.419   .     A
C166   C633    1.396   .     S
C167   C173    1.406   .     A
C167   C178    1.399   .     A
C168   C175    1.399   .     S
C168   O199    1.280   .     A
C168   O201    1.288   .     A
C169   C172    1.405   .     A
C170   H186    1.084   .     S
C170   C640    1.386   1_554 S
C171   H187    1.084   .     S
C171   C641    1.386   .     S
C172   H188    1.082   .     S
C172   C638    1.386   .     S
C173   H189    1.083   .     S
C173   C639    1.386   1_554 S
C174   C331    1.334   .     S
C174   H346    1.088   .     S
C176   O204    1.288   .     A
C176   O202    1.288   .     A
C177   O205    1.288   .     A
C177   O203    1.288   .     A
C178   N195    1.445   .     S
H180   N195    1.046   .     S
H181   N196    1.045   .     S
H182   N196    1.046   .     S
H183   O258    0.990   .     S
H184   O302    0.990   1_455 S
H191   C331    1.088   .     S
H192   N195    1.042   .     S
N193   Zn208   2.025   .     S
N193   N246    1.278   .     S
N193   O258    1.338   .     S
N194   Zn207   2.025   .     S
N194   N297    1.278   1_455 S
N194   O302    1.338   1_455 S
O197   Zn207   1.954   .     S
O198   H236    0.990   .     S
O198   N246    1.338   .     S
O199   Zn208   1.954   .     S
O200   Zn208   1.972   .     S
O201   Zn207   1.972   .     S
O202   Zn207   1.997   .     S
O203   Zn208   1.997   .     S
O204   Zn208   2.011   .     S
O205   Zn207   2.011   .     S
O206   N297    1.338   1_455 S
O206   H287    0.990   1_455 S
C209   O252    1.288   .     A
C209   C226    1.399   .     S
C209   O249    1.280   .     A
C210   C212    1.399   .     A
C210   N248    1.438   .     S
C210   C221    1.400   .     A
C211   C213    1.389   .     A
C211   C229    1.420   .     S
C211   C230    1.410   .     A
C212   C228    1.419   .     S
C212   C214    1.388   .     A
C213   H231    1.087   .     S
C213   C215    1.378   .     A
C214   H237    1.086   .     S
C214   C216    1.379   .     A
C215   C217    1.410   .     A
C215   C222    1.397   .     A
C216   C223    1.397   .     A
C216   C218    1.412   .     A
C217   C219    1.418   .     A
C217   C686    1.396   1_554 S
C218   C221    1.419   .     A
C218   C685    1.396   .     S
C219   C225    1.406   .     A
C219   C230    1.399   .     A
C220   C227    1.399   .     S
C220   O251    1.280   .     A
C220   O253    1.288   .     A
C221   C224    1.405   .     A
C222   H238    1.084   .     S
C222   C692    1.386   1_554 S
C223   H239    1.084   .     S
C223   C693    1.386   .     S
C224   H240    1.082   .     S
C224   C690    1.386   .     S
C225   H241    1.083   .     S
C225   C691    1.386   1_554 S
C226   C383    1.334   .     S
C226   H398    1.088   .     S
C228   O256    1.288   .     A
C228   O254    1.288   .     A
C229   O257    1.288   .     A
C229   O255    1.288   .     A
C230   N247    1.445   .     S
H232   N247    1.046   .     S
H233   N248    1.045   .     S
H234   N248    1.046   .     S
H235   O310    0.990   .     S
H243   C383    1.088   .     S
H244   N247    1.042   .     S
N245   Zn260   2.025   .     S
N245   N298    1.278   .     S
N245   O310    1.338   .     S
N246   Zn259   2.025   .     S
O249   Zn259   1.954   .     S
O250   H288    0.990   .     S
O250   N298    1.338   .     S
O251   Zn260   1.954   .     S
O252   Zn260   1.972   .     S
O253   Zn259   1.972   .     S
O254   Zn259   1.997   .     S
O255   Zn260   1.997   .     S
O256   Zn260   2.011   .     S
O257   Zn259   2.011   .     S
C261   O304    1.288   .     A
C261   C278    1.399   .     S
C261   O301    1.280   .     A
C262   C264    1.399   .     A
C262   N300    1.438   .     S
C262   C273    1.400   .     A
C263   C265    1.389   .     A
C263   C281    1.420   .     S
C263   C282    1.410   .     A
C264   C280    1.419   .     S
C264   C266    1.388   .     A
C265   H283    1.087   .     S
C265   C267    1.378   .     A
C266   H289    1.086   .     S
C266   C268    1.379   .     A
C267   C269    1.410   .     A
C267   C274    1.397   .     A
C268   C275    1.397   .     A
C268   C270    1.412   .     A
C269   C271    1.418   .     A
C269   C738    1.396   1_554 S
C270   C273    1.419   .     A
C270   C737    1.396   .     S
C271   C277    1.406   .     A
C271   C282    1.399   .     A
C272   C279    1.399   .     S
C272   O303    1.280   .     A
C272   O305    1.288   .     A
C273   C276    1.405   .     A
C274   H290    1.084   .     S
C274   C744    1.386   1_554 S
C275   H291    1.084   .     S
C275   C745    1.386   .     S
C276   H292    1.082   .     S
C276   C742    1.386   .     S
C277   H293    1.083   .     S
C277   C743    1.386   1_554 S
C278   C435    1.334   .     S
C278   H450    1.088   .     S
C280   O308    1.288   .     A
C280   O306    1.288   .     A
C281   O309    1.288   .     A
C281   O307    1.288   .     A
C282   N299    1.445   .     S
H284   N299    1.046   .     S
H285   N300    1.045   .     S
H286   N300    1.046   .     S
H287   O206    0.990   1_655 S
H295   C435    1.088   .     S
H296   N299    1.042   .     S
N297   Zn312   2.025   .     S
N297   N194    1.278   1_655 S
N297   O206    1.338   1_655 S
N298   Zn311   2.025   .     S
O301   Zn311   1.954   .     S
O302   H184    0.990   1_655 S
O302   N194    1.338   1_655 S
O303   Zn312   1.954   .     S
O304   Zn312   1.972   .     S
O305   Zn311   1.972   .     S
O306   Zn311   1.997   .     S
O307   Zn312   1.997   .     S
O308   Zn312   2.011   .     S
O309   Zn311   2.011   .     S
C313   O356    1.288   .     A
C313   C330    1.399   .     S
C313   O353    1.280   .     A
C314   C316    1.399   .     A
C314   N352    1.438   .     S
C314   C325    1.400   .     A
C315   C317    1.389   .     A
C315   C333    1.420   .     S
C315   C334    1.410   .     A
C316   C332    1.419   .     S
C316   C318    1.388   .     A
C317   H335    1.087   .     S
C317   C319    1.378   .     A
C318   H341    1.086   .     S
C318   C320    1.379   .     A
C319   C321    1.410   .     A
C319   C326    1.397   .     A
C320   C327    1.397   .     A
C320   C322    1.412   .     A
C321   C323    1.418   .     A
C321   C790    1.396   1_554 S
C322   C325    1.419   .     A
C322   C789    1.396   .     S
C323   C329    1.406   .     A
C323   C334    1.399   .     A
C324   C331    1.399   .     S
C324   O355    1.280   .     A
C324   O357    1.288   .     A
C325   C328    1.405   .     A
C326   H342    1.084   .     S
C326   C796    1.386   1_554 S
C327   H343    1.084   .     S
C327   C797    1.386   .     S
C328   H344    1.082   .     S
C328   C794    1.386   .     S
C329   H345    1.083   .     S
C329   C795    1.386   1_554 S
C330   C19     1.334   1_565 S
C330   H34     1.088   1_565 S
C332   O360    1.288   .     A
C332   O358    1.288   .     A
C333   O361    1.288   .     A
C333   O359    1.288   .     A
C334   N351    1.445   .     S
H336   N351    1.046   .     S
H337   N352    1.045   .     S
H338   N352    1.046   .     S
H339   O414    0.990   .     S
H340   O458    0.990   1_455 S
H347   C19     1.088   1_565 S
H348   N351    1.042   .     S
N349   Zn364   2.025   .     S
N349   N402    1.278   .     S
N349   O414    1.338   .     S
N350   Zn363   2.025   .     S
N350   N453    1.278   1_455 S
N350   O458    1.338   1_455 S
O353   Zn363   1.954   .     S
O354   H392    0.990   .     S
O354   N402    1.338   .     S
O355   Zn364   1.954   .     S
O356   Zn364   1.972   .     S
O357   Zn363   1.972   .     S
O358   Zn363   1.997   .     S
O359   Zn364   1.997   .     S
O360   Zn364   2.011   .     S
O361   Zn363   2.011   .     S
O362   N453    1.338   1_455 S
O362   H443    0.990   1_455 S
C365   O408    1.288   .     A
C365   C382    1.399   .     S
C365   O405    1.280   .     A
C366   C368    1.399   .     A
C366   N404    1.438   .     S
C366   C377    1.400   .     A
C367   C369    1.389   .     A
C367   C385    1.420   .     S
C367   C386    1.410   .     A
C368   C384    1.419   .     S
C368   C370    1.388   .     A
C369   H387    1.087   .     S
C369   C371    1.378   .     A
C370   H393    1.086   .     S
C370   C372    1.379   .     A
C371   C373    1.410   .     A
C371   C378    1.397   .     A
C372   C379    1.397   .     A
C372   C374    1.412   .     A
C373   C375    1.418   .     A
C373   C842    1.396   1_554 S
C374   C377    1.419   .     A
C374   C841    1.396   .     S
C375   C381    1.406   .     A
C375   C386    1.399   .     A
C376   C383    1.399   .     S
C376   O407    1.280   .     A
C376   O409    1.288   .     A
C377   C380    1.405   .     A
C378   H394    1.084   .     S
C378   C848    1.386   1_554 S
C379   H395    1.084   .     S
C379   C849    1.386   .     S
C380   H396    1.082   .     S
C380   C846    1.386   .     S
C381   H397    1.083   .     S
C381   C847    1.386   1_554 S
C382   C71     1.334   1_565 S
C382   H86     1.088   1_565 S
C384   O412    1.288   .     A
C384   O410    1.288   .     A
C385   O413    1.288   .     A
C385   O411    1.288   .     A
C386   N403    1.445   .     S
H388   N403    1.046   .     S
H389   N404    1.045   .     S
H390   N404    1.046   .     S
H391   O466    0.990   .     S
H399   C71     1.088   1_565 S
H400   N403    1.042   .     S
N401   Zn416   2.025   .     S
N401   N454    1.278   .     S
N401   O466    1.338   .     S
N402   Zn415   2.025   .     S
O405   Zn415   1.954   .     S
O406   H444    0.990   .     S
O406   N454    1.338   .     S
O407   Zn416   1.954   .     S
O408   Zn416   1.972   .     S
O409   Zn415   1.972   .     S
O410   Zn415   1.997   .     S
O411   Zn416   1.997   .     S
O412   Zn416   2.011   .     S
O413   Zn415   2.011   .     S
C417   O460    1.288   .     A
C417   C434    1.399   .     S
C417   O457    1.280   .     A
C418   C420    1.399   .     A
C418   N456    1.438   .     S
C418   C429    1.400   .     A
C419   C421    1.389   .     A
C419   C437    1.420   .     S
C419   C438    1.410   .     A
C420   C436    1.419   .     S
C420   C422    1.388   .     A
C421   H439    1.087   .     S
C421   C423    1.378   .     A
C422   H445    1.086   .     S
C422   C424    1.379   .     A
C423   C425    1.410   .     A
C423   C430    1.397   .     A
C424   C431    1.397   .     A
C424   C426    1.412   .     A
C425   C427    1.418   .     A
C425   C894    1.396   1_554 S
C426   C429    1.419   .     A
C426   C893    1.396   .     S
C427   C433    1.406   .     A
C427   C438    1.399   .     A
C428   C435    1.399   .     S
C428   O459    1.280   .     A
C428   O461    1.288   .     A
C429   C432    1.405   .     A
C430   H446    1.084   .     S
C430   C900    1.386   1_554 S
C431   H447    1.084   .     S
C431   C901    1.386   .     S
C432   H448    1.082   .     S
C432   C898    1.386   .     S
C433   H449    1.083   .     S
C433   C899    1.386   1_554 S
C434   C123    1.334   1_565 S
C434   H138    1.088   1_565 S
C436   O464    1.288   .     A
C436   O462    1.288   .     A
C437   O465    1.288   .     A
C437   O463    1.288   .     A
C438   N455    1.445   .     S
H440   N455    1.046   .     S
H441   N456    1.045   .     S
H442   N456    1.046   .     S
H443   O362    0.990   1_655 S
H451   C123    1.088   1_565 S
H452   N455    1.042   .     S
N453   Zn468   2.025   .     S
N453   N350    1.278   1_655 S
N453   O362    1.338   1_655 S
N454   Zn467   2.025   .     S
O457   Zn467   1.954   .     S
O458   H340    0.990   1_655 S
O458   N350    1.338   1_655 S
O459   Zn468   1.954   .     S
O460   Zn468   1.972   .     S
O461   Zn467   1.972   .     S
O462   Zn467   1.997   .     S
O463   Zn468   1.997   .     S
O464   Zn468   2.011   .     S
O465   Zn467   2.011   .     S
C469   O512    1.288   .     A
C469   C486    1.399   .     S
C469   O509    1.280   .     A
C470   C472    1.399   .     A
C470   N508    1.438   .     S
C470   C481    1.400   .     A
C471   C473    1.389   .     A
C471   C489    1.420   .     S
C471   C490    1.410   .     A
C472   C488    1.419   .     S
C472   C474    1.388   .     A
C473   H491    1.087   .     S
C473   C475    1.378   .     A
C474   H497    1.086   .     S
C474   C476    1.379   .     A
C475   C477    1.410   .     A
C475   C482    1.397   .     A
C476   C483    1.397   .     A
C476   C478    1.412   .     A
C477   C479    1.418   .     A
C478   C481    1.419   .     A
C478   C9      1.396   1_556 S
C479   C485    1.406   .     A
C479   C490    1.399   .     A
C480   C487    1.399   .     S
C480   O511    1.280   .     A
C480   O513    1.288   .     A
C481   C484    1.405   .     A
C482   H498    1.084   .     S
C483   H499    1.084   .     S
C483   C17     1.386   1_556 S
C484   H500    1.082   .     S
C484   C14     1.386   1_556 S
C485   H501    1.083   .     S
C486   C643    1.334   .     S
C486   H658    1.088   .     S
C487   C798    1.334   1_545 S
C487   H815    1.088   1_545 S
C488   O516    1.288   .     A
C488   O514    1.288   .     A
C489   O517    1.288   .     A
C489   O515    1.288   .     A
C490   N507    1.445   .     S
H492   N507    1.046   .     S
H493   N508    1.045   .     S
H494   N508    1.046   .     S
H495   O570    0.990   .     S
H496   O614    0.990   1_455 S
H502   C798    1.088   1_545 S
H503   C643    1.088   .     S
H504   N507    1.042   .     S
N505   Zn520   2.025   .     S
N505   N558    1.278   .     S
N505   O570    1.338   .     S
N506   Zn519   2.025   .     S
N506   N609    1.278   1_455 S
N506   O614    1.338   1_455 S
O509   Zn519   1.954   .     S
O510   H548    0.990   .     S
O510   N558    1.338   .     S
O511   Zn520   1.954   .     S
O512   Zn520   1.972   .     S
O513   Zn519   1.972   .     S
O514   Zn519   1.997   .     S
O515   Zn520   1.997   .     S
O516   Zn520   2.011   .     S
O517   Zn519   2.011   .     S
O518   N609    1.338   1_455 S
O518   H599    0.990   1_455 S
C521   O564    1.288   .     A
C521   C538    1.399   .     S
C521   O561    1.280   .     A
C522   C524    1.399   .     A
C522   N560    1.438   .     S
C522   C533    1.400   .     A
C523   C525    1.389   .     A
C523   C541    1.420   .     S
C523   C542    1.410   .     A
C524   C540    1.419   .     S
C524   C526    1.388   .     A
C525   H543    1.087   .     S
C525   C527    1.378   .     A
C526   H549    1.086   .     S
C526   C528    1.379   .     A
C527   C529    1.410   .     A
C527   C534    1.397   .     A
C528   C535    1.397   .     A
C528   C530    1.412   .     A
C529   C531    1.418   .     A
C530   C533    1.419   .     A
C530   C61     1.396   1_556 S
C531   C537    1.406   .     A
C531   C542    1.399   .     A
C532   C539    1.399   .     S
C532   O563    1.280   .     A
C532   O565    1.288   .     A
C533   C536    1.405   .     A
C534   H550    1.084   .     S
C535   H551    1.084   .     S
C535   C69     1.386   1_556 S
C536   H552    1.082   .     S
C536   C66     1.386   1_556 S
C537   H553    1.083   .     S
C538   C695    1.334   .     S
C538   H710    1.088   .     S
C539   C850    1.334   1_545 S
C539   H867    1.088   1_545 S
C540   O568    1.288   .     A
C540   O566    1.288   .     A
C541   O569    1.288   .     A
C541   O567    1.288   .     A
C542   N559    1.445   .     S
H544   N559    1.046   .     S
H545   N560    1.045   .     S
H546   N560    1.046   .     S
H547   O622    0.990   .     S
H554   C850    1.088   1_545 S
H555   C695    1.088   .     S
H556   N559    1.042   .     S
N557   Zn572   2.025   .     S
N557   N610    1.278   .     S
N557   O622    1.338   .     S
N558   Zn571   2.025   .     S
O561   Zn571   1.954   .     S
O562   H600    0.990   .     S
O562   N610    1.338   .     S
O563   Zn572   1.954   .     S
O564   Zn572   1.972   .     S
O565   Zn571   1.972   .     S
O566   Zn571   1.997   .     S
O567   Zn572   1.997   .     S
O568   Zn572   2.011   .     S
O569   Zn571   2.011   .     S
C573   O616    1.288   .     A
C573   C590    1.399   .     S
C573   O613    1.280   .     A
C574   C576    1.399   .     A
C574   N612    1.438   .     S
C574   C585    1.400   .     A
C575   C577    1.389   .     A
C575   C593    1.420   .     S
C575   C594    1.410   .     A
C576   C592    1.419   .     S
C576   C578    1.388   .     A
C577   H595    1.087   .     S
C577   C579    1.378   .     A
C578   H601    1.086   .     S
C578   C580    1.379   .     A
C579   C581    1.410   .     A
C579   C586    1.397   .     A
C580   C587    1.397   .     A
C580   C582    1.412   .     A
C581   C583    1.418   .     A
C582   C585    1.419   .     A
C582   C113    1.396   1_556 S
C583   C589    1.406   .     A
C583   C594    1.399   .     A
C584   C591    1.399   .     S
C584   O615    1.280   .     A
C584   O617    1.288   .     A
C585   C588    1.405   .     A
C586   H602    1.084   .     S
C587   H603    1.084   .     S
C587   C121    1.386   1_556 S
C588   H604    1.082   .     S
C588   C118    1.386   1_556 S
C589   H605    1.083   .     S
C590   C747    1.334   .     S
C590   H762    1.088   .     S
C591   C902    1.334   1_545 S
C591   H919    1.088   1_545 S
C592   O620    1.288   .     A
C592   O618    1.288   .     A
C593   O621    1.288   .     A
C593   O619    1.288   .     A
C594   N611    1.445   .     S
H596   N611    1.046   .     S
H597   N612    1.045   .     S
H598   N612    1.046   .     S
H599   O518    0.990   1_655 S
H606   C902    1.088   1_545 S
H607   C747    1.088   .     S
H608   N611    1.042   .     S
N609   Zn624   2.025   .     S
N609   N506    1.278   1_655 S
N609   O518    1.338   1_655 S
N610   Zn623   2.025   .     S
O613   Zn623   1.954   .     S
O614   H496    0.990   1_655 S
O614   N506    1.338   1_655 S
O615   Zn624   1.954   .     S
O616   Zn624   1.972   .     S
O617   Zn623   1.972   .     S
O618   Zn623   1.997   .     S
O619   Zn624   1.997   .     S
O620   Zn624   2.011   .     S
O621   Zn623   2.011   .     S
C625   O668    1.288   .     A
C625   C642    1.399   .     S
C625   O665    1.280   .     A
C626   C628    1.399   .     A
C626   N664    1.438   .     S
C626   C637    1.400   .     A
C627   C629    1.389   .     A
C627   C645    1.420   .     S
C627   C646    1.410   .     A
C628   C644    1.419   .     S
C628   C630    1.388   .     A
C629   H647    1.087   .     S
C629   C631    1.378   .     A
C630   H653    1.086   .     S
C630   C632    1.379   .     A
C631   C633    1.410   .     A
C631   C638    1.397   .     A
C632   C639    1.397   .     A
C632   C634    1.412   .     A
C633   C635    1.418   .     A
C634   C637    1.419   .     A
C634   C165    1.396   1_556 S
C635   C641    1.406   .     A
C635   C646    1.399   .     A
C636   C643    1.399   .     S
C636   O667    1.280   .     A
C636   O669    1.288   .     A
C637   C640    1.405   .     A
C638   H654    1.084   .     S
C639   H655    1.084   .     S
C639   C173    1.386   1_556 S
C640   H656    1.082   .     S
C640   C170    1.386   1_556 S
C641   H657    1.083   .     S
C642   C799    1.334   .     S
C642   H814    1.088   .     S
C644   O672    1.288   .     A
C644   O670    1.288   .     A
C645   O673    1.288   .     A
C645   O671    1.288   .     A
C646   N663    1.445   .     S
H648   N663    1.046   .     S
H649   N664    1.045   .     S
H650   N664    1.046   .     S
H651   O726    0.990   .     S
H652   O770    0.990   1_455 S
H659   C799    1.088   .     S
H660   N663    1.042   .     S
N661   Zn676   2.025   .     S
N661   N714    1.278   .     S
N661   O726    1.338   .     S
N662   Zn675   2.025   .     S
N662   N765    1.278   1_455 S
N662   O770    1.338   1_455 S
O665   Zn675   1.954   .     S
O666   H704    0.990   .     S
O666   N714    1.338   .     S
O667   Zn676   1.954   .     S
O668   Zn676   1.972   .     S
O669   Zn675   1.972   .     S
O670   Zn675   1.997   .     S
O671   Zn676   1.997   .     S
O672   Zn676   2.011   .     S
O673   Zn675   2.011   .     S
O674   N765    1.338   1_455 S
O674   H755    0.990   1_455 S
C677   O720    1.288   .     A
C677   C694    1.399   .     S
C677   O717    1.280   .     A
C678   C680    1.399   .     A
C678   N716    1.438   .     S
C678   C689    1.400   .     A
C679   C681    1.389   .     A
C679   C697    1.420   .     S
C679   C698    1.410   .     A
C680   C696    1.419   .     S
C680   C682    1.388   .     A
C681   H699    1.087   .     S
C681   C683    1.378   .     A
C682   H705    1.086   .     S
C682   C684    1.379   .     A
C683   C685    1.410   .     A
C683   C690    1.397   .     A
C684   C691    1.397   .     A
C684   C686    1.412   .     A
C685   C687    1.418   .     A
C686   C689    1.419   .     A
C686   C217    1.396   1_556 S
C687   C693    1.406   .     A
C687   C698    1.399   .     A
C688   C695    1.399   .     S
C688   O719    1.280   .     A
C688   O721    1.288   .     A
C689   C692    1.405   .     A
C690   H706    1.084   .     S
C691   H707    1.084   .     S
C691   C225    1.386   1_556 S
C692   H708    1.082   .     S
C692   C222    1.386   1_556 S
C693   H709    1.083   .     S
C694   C851    1.334   .     S
C694   H866    1.088   .     S
C696   O724    1.288   .     A
C696   O722    1.288   .     A
C697   O725    1.288   .     A
C697   O723    1.288   .     A
C698   N715    1.445   .     S
H700   N715    1.046   .     S
H701   N716    1.045   .     S
H702   N716    1.046   .     S
H703   O778    0.990   .     S
H711   C851    1.088   .     S
H712   N715    1.042   .     S
N713   Zn728   2.025   .     S
N713   N766    1.278   .     S
N713   O778    1.338   .     S
N714   Zn727   2.025   .     S
O717   Zn727   1.954   .     S
O718   H756    0.990   .     S
O718   N766    1.338   .     S
O719   Zn728   1.954   .     S
O720   Zn728   1.972   .     S
O721   Zn727   1.972   .     S
O722   Zn727   1.997   .     S
O723   Zn728   1.997   .     S
O724   Zn728   2.011   .     S
O725   Zn727   2.011   .     S
C729   O772    1.288   .     A
C729   C746    1.399   .     S
C729   O769    1.280   .     A
C730   C732    1.399   .     A
C730   N768    1.438   .     S
C730   C741    1.400   .     A
C731   C733    1.389   .     A
C731   C749    1.420   .     S
C731   C750    1.410   .     A
C732   C748    1.419   .     S
C732   C734    1.388   .     A
C733   H751    1.087   .     S
C733   C735    1.378   .     A
C734   H757    1.086   .     S
C734   C736    1.379   .     A
C735   C737    1.410   .     A
C735   C742    1.397   .     A
C736   C743    1.397   .     A
C736   C738    1.412   .     A
C737   C739    1.418   .     A
C738   C741    1.419   .     A
C738   C269    1.396   1_556 S
C739   C745    1.406   .     A
C739   C750    1.399   .     A
C740   C747    1.399   .     S
C740   O771    1.280   .     A
C740   O773    1.288   .     A
C741   C744    1.405   .     A
C742   H758    1.084   .     S
C743   H759    1.084   .     S
C743   C277    1.386   1_556 S
C744   H760    1.082   .     S
C744   C274    1.386   1_556 S
C745   H761    1.083   .     S
C746   C903    1.334   .     S
C746   H918    1.088   .     S
C748   O776    1.288   .     A
C748   O774    1.288   .     A
C749   O777    1.288   .     A
C749   O775    1.288   .     A
C750   N767    1.445   .     S
H752   N767    1.046   .     S
H753   N768    1.045   .     S
H754   N768    1.046   .     S
H755   O674    0.990   1_655 S
H763   C903    1.088   .     S
H764   N767    1.042   .     S
N765   Zn780   2.025   .     S
N765   N662    1.278   1_655 S
N765   O674    1.338   1_655 S
N766   Zn779   2.025   .     S
O769   Zn779   1.954   .     S
O770   H652    0.990   1_655 S
O770   N662    1.338   1_655 S
O771   Zn780   1.954   .     S
O772   Zn780   1.972   .     S
O773   Zn779   1.972   .     S
O774   Zn779   1.997   .     S
O775   Zn780   1.997   .     S
O776   Zn780   2.011   .     S
O777   Zn779   2.011   .     S
C781   O824    1.288   .     A
C781   C798    1.399   .     S
C781   O821    1.280   .     A
C782   C784    1.399   .     A
C782   N820    1.438   .     S
C782   C793    1.400   .     A
C783   C785    1.389   .     A
C783   C801    1.420   .     S
C783   C802    1.410   .     A
C784   C800    1.419   .     S
C784   C786    1.388   .     A
C785   H803    1.087   .     S
C785   C787    1.378   .     A
C786   H809    1.086   .     S
C786   C788    1.379   .     A
C787   C789    1.410   .     A
C787   C794    1.397   .     A
C788   C795    1.397   .     A
C788   C790    1.412   .     A
C789   C791    1.418   .     A
C790   C793    1.419   .     A
C790   C321    1.396   1_556 S
C791   C797    1.406   .     A
C791   C802    1.399   .     A
C792   C799    1.399   .     S
C792   O823    1.280   .     A
C792   O825    1.288   .     A
C793   C796    1.405   .     A
C794   H810    1.084   .     S
C795   H811    1.084   .     S
C795   C329    1.386   1_556 S
C796   H812    1.082   .     S
C796   C326    1.386   1_556 S
C797   H813    1.083   .     S
C798   C487    1.334   1_565 S
C798   H502    1.088   1_565 S
C800   O828    1.288   .     A
C800   O826    1.288   .     A
C801   O829    1.288   .     A
C801   O827    1.288   .     A
C802   N819    1.445   .     S
H804   N819    1.046   .     S
H805   N820    1.045   .     S
H806   N820    1.046   .     S
H807   O882    0.990   .     S
H808   O926    0.990   1_455 S
H815   C487    1.088   1_565 S
H816   N819    1.042   .     S
N817   Zn832   2.025   .     S
N817   N870    1.278   .     S
N817   O882    1.338   .     S
N818   Zn831   2.025   .     S
N818   N921    1.278   1_455 S
N818   O926    1.338   1_455 S
O821   Zn831   1.954   .     S
O822   H860    0.990   .     S
O822   N870    1.338   .     S
O823   Zn832   1.954   .     S
O824   Zn832   1.972   .     S
O825   Zn831   1.972   .     S
O826   Zn831   1.997   .     S
O827   Zn832   1.997   .     S
O828   Zn832   2.011   .     S
O829   Zn831   2.011   .     S
O830   N921    1.338   1_455 S
O830   H911    0.990   1_455 S
C833   O876    1.288   .     A
C833   C850    1.399   .     S
C833   O873    1.280   .     A
C834   C836    1.399   .     A
C834   N872    1.438   .     S
C834   C845    1.400   .     A
C835   C837    1.389   .     A
C835   C853    1.420   .     S
C835   C854    1.410   .     A
C836   C852    1.419   .     S
C836   C838    1.388   .     A
C837   H855    1.087   .     S
C837   C839    1.378   .     A
C838   H861    1.086   .     S
C838   C840    1.379   .     A
C839   C841    1.410   .     A
C839   C846    1.397   .     A
C840   C847    1.397   .     A
C840   C842    1.412   .     A
C841   C843    1.418   .     A
C842   C845    1.419   .     A
C842   C373    1.396   1_556 S
C843   C849    1.406   .     A
C843   C854    1.399   .     A
C844   C851    1.399   .     S
C844   O875    1.280   .     A
C844   O877    1.288   .     A
C845   C848    1.405   .     A
C846   H862    1.084   .     S
C847   H863    1.084   .     S
C847   C381    1.386   1_556 S
C848   H864    1.082   .     S
C848   C378    1.386   1_556 S
C849   H865    1.083   .     S
C850   C539    1.334   1_565 S
C850   H554    1.088   1_565 S
C852   O880    1.288   .     A
C852   O878    1.288   .     A
C853   O881    1.288   .     A
C853   O879    1.288   .     A
C854   N871    1.445   .     S
H856   N871    1.046   .     S
H857   N872    1.045   .     S
H858   N872    1.046   .     S
H859   O934    0.990   .     S
H867   C539    1.088   1_565 S
H868   N871    1.042   .     S
N869   Zn884   2.025   .     S
N869   N922    1.278   .     S
N869   O934    1.338   .     S
N870   Zn883   2.025   .     S
O873   Zn883   1.954   .     S
O874   H912    0.990   .     S
O874   N922    1.338   .     S
O875   Zn884   1.954   .     S
O876   Zn884   1.972   .     S
O877   Zn883   1.972   .     S
O878   Zn883   1.997   .     S
O879   Zn884   1.997   .     S
O880   Zn884   2.011   .     S
O881   Zn883   2.011   .     S
C885   O928    1.288   .     A
C885   C902    1.399   .     S
C885   O925    1.280   .     A
C886   C888    1.399   .     A
C886   N924    1.438   .     S
C886   C897    1.400   .     A
C887   C889    1.389   .     A
C887   C905    1.420   .     S
C887   C906    1.410   .     A
C888   C904    1.419   .     S
C888   C890    1.388   .     A
C889   H907    1.087   .     S
C889   C891    1.378   .     A
C890   H913    1.086   .     S
C890   C892    1.379   .     A
C891   C893    1.410   .     A
C891   C898    1.397   .     A
C892   C899    1.397   .     A
C892   C894    1.412   .     A
C893   C895    1.418   .     A
C894   C897    1.419   .     A
C894   C425    1.396   1_556 S
C895   C901    1.406   .     A
C895   C906    1.399   .     A
C896   C903    1.399   .     S
C896   O927    1.280   .     A
C896   O929    1.288   .     A
C897   C900    1.405   .     A
C898   H914    1.084   .     S
C899   H915    1.084   .     S
C899   C433    1.386   1_556 S
C900   H916    1.082   .     S
C900   C430    1.386   1_556 S
C901   H917    1.083   .     S
C902   C591    1.334   1_565 S
C902   H606    1.088   1_565 S
C904   O932    1.288   .     A
C904   O930    1.288   .     A
C905   O933    1.288   .     A
C905   O931    1.288   .     A
C906   N923    1.445   .     S
H908   N923    1.046   .     S
H909   N924    1.045   .     S
H910   N924    1.046   .     S
H911   O830    0.990   1_655 S
H919   C591    1.088   1_565 S
H920   N923    1.042   .     S
N921   Zn936   2.025   .     S
N921   N818    1.278   1_655 S
N921   O830    1.338   1_655 S
N922   Zn935   2.025   .     S
O925   Zn935   1.954   .     S
O926   H808    0.990   1_655 S
O926   N818    1.338   1_655 S
O927   Zn936   1.954   .     S
O928   Zn936   1.972   .     S
O929   Zn935   1.972   .     S
O930   Zn935   1.997   .     S
O931   Zn936   1.997   .     S
O932   Zn936   2.011   .     S
O933   Zn935   2.011   .     S
