data_str_m3_o1_o17_pcu_sym.77
_audit_creation_date              2020-01-03
_audit_creation_method            'Materials Studio'
_symmetry_space_group_name_H-M    'P1'
_symmetry_Int_Tables_number       1
_symmetry_cell_setting            triclinic
loop_
_symmetry_equiv_pos_as_xyz
  x,y,z
_cell_length_a                    32.1210
_cell_length_b                    29.8777
_cell_length_c                    29.8642
_cell_angle_alpha                 90.3056
_cell_angle_beta                  90.6311
_cell_angle_gamma                 89.9457
loop_
_atom_site_label
_atom_site_type_symbol
_atom_site_fract_x
_atom_site_fract_y
_atom_site_fract_z
_atom_site_U_iso_or_equiv
_atom_site_adp_type
_atom_site_occupancy
C1     C     0.08676   0.16668   0.25009   0.00000  Uiso   1.00
C2     C     0.04256   0.16666   0.25127   0.00000  Uiso   1.00
C3     C     0.18582   0.02406   0.28384   0.00000  Uiso   1.00
C4     C     0.14738   0.30927   0.21625   0.00000  Uiso   1.00
C5     C     0.14738   0.02374   0.21627   0.00000  Uiso   1.00
C6     C     0.18581   0.30960   0.28383   0.00000  Uiso   1.00
C7     C     0.16781   0.16658   0.16368   0.00000  Uiso   1.00
C8     C     0.16541   0.16677   0.33625   0.00000  Uiso   1.00
C9     C     0.19775   0.18406   0.40645   0.00000  Uiso   1.00
C10    C     0.13522   0.14867   0.09342   0.00000  Uiso   1.00
C11    C     0.16326   0.16728   0.38393   0.00000  Uiso   1.00
C12    C     0.24659   0.16665   0.25074   0.00000  Uiso   1.00
C13    C     0.16953   0.16613   0.11589   0.00000  Uiso   1.00
C14    C     0.12868   0.14989   0.40658   0.00000  Uiso   1.00
C15    C     0.20349   0.18446   0.09298   0.00000  Uiso   1.00
C16    C     0.12780   0.15348   0.45378   0.00000  Uiso   1.00
C17    C     0.20458   0.18021   0.04591   0.00000  Uiso   1.00
C18    C     0.16499   0.16717   0.47649   0.00000  Uiso   1.00
C19    C     0.16760   0.16597   0.02324   0.00000  Uiso   1.00
C20    C     0.19970   0.18226   0.45244   0.00000  Uiso   1.00
C21    C     0.13304   0.15064   0.04736   0.00000  Uiso   1.00
C22    C     0.09184   0.14349   0.47941   0.00000  Uiso   1.00
C23    C     0.09582   0.13959   0.02566   0.00000  Uiso   1.00
C24    C     0.24054   0.19046   0.02047   0.00000  Uiso   1.00
C25    C     0.09671   0.12394   0.38119   0.00000  Uiso   1.00
C26    C     0.23439   0.21224   0.11777   0.00000  Uiso   1.00
C27    C     0.04873   0.14293   0.46097   0.00000  Uiso   1.00
C28    C     0.28337   0.19222   0.03960   0.00000  Uiso   1.00
C29    C     0.20703   0.04805   0.32080   0.00000  Uiso   1.00
C30    C     0.12571   0.28527   0.17960   0.00000  Uiso   1.00
C31    C     0.12551   0.04738   0.17979   0.00000  Uiso   1.00
C32    C     0.20722   0.28599   0.32062   0.00000  Uiso   1.00
C33    C     0.23684   0.19353   0.47416   0.00000  Uiso   1.00
C34    C     0.02136   0.12585   0.25114   0.00000  Uiso   1.00
C35    C     0.31209   0.20740   0.25271   0.00000  Uiso   1.00
C36    C     0.31210   0.12583   0.25096   0.00000  Uiso   1.00
C37    C     0.02133   0.20743   0.25264   0.00000  Uiso   1.00
C38    C     0.29084   0.16661   0.25165   0.00000  Uiso   1.00
H39    H     0.22429   0.19597   0.38773   0.00000  Uiso   1.00
H40    H     0.27822   0.21590   0.16607   0.00000  Uiso   1.00
H41    H     0.32472   0.11554   0.46263   0.00000  Uiso   1.00
H42    H     0.32623   0.16436   0.08076   0.00000  Uiso   1.00
H43    H     0.25752   0.08238   0.34206   0.00000  Uiso   1.00
H44    H     0.07481   0.25124   0.15901   0.00000  Uiso   1.00
H45    H     0.07357   0.07942   0.15912   0.00000  Uiso   1.00
H46    H     0.25887   0.25391   0.34206   0.00000  Uiso   1.00
H47    H     0.10891   0.13633   0.11222   0.00000  Uiso   1.00
H48    H     0.06880   0.13086   0.04532   0.00000  Uiso   1.00
H49    H     0.26393   0.20219   0.45457   0.00000  Uiso   1.00
H50    H     0.03743   0.09400   0.25100   0.00000  Uiso   1.00
H51    H     0.29605   0.23926   0.25273   0.00000  Uiso   1.00
H52    H     0.29607   0.09398   0.24985   0.00000  Uiso   1.00
H53    H     0.03738   0.23928   0.25345   0.00000  Uiso   1.00
H54    H     0.06484   0.06612   0.37465   0.00000  Uiso   1.00
N55    N     0.16667   0.28573   0.25000   0.00000  Uiso   1.00
N56    N     0.16667   0.04760   0.25000   0.00000  Uiso   1.00
O57    O     0.10559   0.20487   0.24999   0.00000  Uiso   1.00
O58    O     0.08706   0.08038   0.39440   0.00000  Uiso   1.00
O59    O     0.24006   0.25109   0.10669   0.00000  Uiso   1.00
O60    O     0.25723   0.19392   0.15319   0.00000  Uiso   1.00
O61    O     0.03771   0.17110   0.43372   0.00000  Uiso   1.00
O62    O     0.01999   0.11182   0.47682   0.00000  Uiso   1.00
O63    O     0.30794   0.22050   0.02672   0.00000  Uiso   1.00
O64    O     0.29623   0.16010   0.07071   0.00000  Uiso   1.00
O65    O     0.19107   0.04941   0.35778   0.00000  Uiso   1.00
O66    O     0.24610   0.06708   0.31414   0.00000  Uiso   1.00
O67    O     0.14129   0.28371   0.14244   0.00000  Uiso   1.00
O68    O     0.22774   0.12846   0.25000   0.00000  Uiso   1.00
O69    O     0.08659   0.26655   0.18676   0.00000  Uiso   1.00
O70    O     0.14115   0.04907   0.14270   0.00000  Uiso   1.00
O71    O     0.08593   0.06510   0.18694   0.00000  Uiso   1.00
O72    O     0.19114   0.28436   0.35750   0.00000  Uiso   1.00
O73    O     0.24684   0.26815   0.31404   0.00000  Uiso   1.00
O74    O     0.22774   0.20487   0.25000   0.00000  Uiso   1.00
O75    O     0.10559   0.12846   0.24999   0.00000  Uiso   1.00
O76    O     0.16666   0.20489   0.18392   0.00000  Uiso   1.00
O77    O     0.16667   0.12844   0.31607   0.00000  Uiso   1.00
O78    O     0.16667   0.20489   0.31607   0.00000  Uiso   1.00
O79    O     0.16666   0.12844   0.18392   0.00000  Uiso   1.00
O80    O     0.07887   0.14061   0.34900   0.00000  Uiso   1.00
Zn81   Zn    0.16667   0.21771   0.25000   0.00000  Uiso   1.00
Zn82   Zn    0.16667   0.11563   0.25000   0.00000  Uiso   1.00
C83    C     0.42009   0.16668   0.25009   0.00000  Uiso   1.00
C84    C     0.37590   0.16666   0.25127   0.00000  Uiso   1.00
C85    C     0.51915   0.02406   0.28384   0.00000  Uiso   1.00
C86    C     0.48071   0.30927   0.21625   0.00000  Uiso   1.00
C87    C     0.48071   0.02374   0.21627   0.00000  Uiso   1.00
C88    C     0.51914   0.30960   0.28383   0.00000  Uiso   1.00
C89    C     0.50115   0.16658   0.16368   0.00000  Uiso   1.00
C90    C     0.49874   0.16677   0.33625   0.00000  Uiso   1.00
C91    C     0.53108   0.18406   0.40645   0.00000  Uiso   1.00
C92    C     0.46856   0.14867   0.09342   0.00000  Uiso   1.00
C93    C     0.49660   0.16728   0.38393   0.00000  Uiso   1.00
C94    C     0.57992   0.16665   0.25074   0.00000  Uiso   1.00
C95    C     0.50286   0.16613   0.11589   0.00000  Uiso   1.00
C96    C     0.46201   0.14989   0.40658   0.00000  Uiso   1.00
C97    C     0.53683   0.18446   0.09298   0.00000  Uiso   1.00
C98    C     0.46114   0.15348   0.45378   0.00000  Uiso   1.00
C99    C     0.53792   0.18021   0.04591   0.00000  Uiso   1.00
C100   C     0.49833   0.16717   0.47649   0.00000  Uiso   1.00
C101   C     0.50093   0.16597   0.02324   0.00000  Uiso   1.00
C102   C     0.53303   0.18226   0.45244   0.00000  Uiso   1.00
C103   C     0.46638   0.15064   0.04736   0.00000  Uiso   1.00
C104   C     0.42517   0.14349   0.47941   0.00000  Uiso   1.00
C105   C     0.42915   0.13959   0.02566   0.00000  Uiso   1.00
C106   C     0.57387   0.19046   0.02047   0.00000  Uiso   1.00
C107   C     0.43004   0.12394   0.38119   0.00000  Uiso   1.00
C108   C     0.56772   0.21224   0.11777   0.00000  Uiso   1.00
C109   C     0.38206   0.14293   0.46097   0.00000  Uiso   1.00
C110   C     0.61670   0.19222   0.03960   0.00000  Uiso   1.00
C111   C     0.54036   0.04805   0.32080   0.00000  Uiso   1.00
C112   C     0.45905   0.28527   0.17960   0.00000  Uiso   1.00
C113   C     0.45884   0.04738   0.17979   0.00000  Uiso   1.00
C114   C     0.54056   0.28599   0.32062   0.00000  Uiso   1.00
C115   C     0.57018   0.19353   0.47416   0.00000  Uiso   1.00
C116   C     0.35469   0.12585   0.25114   0.00000  Uiso   1.00
C117   C     0.64542   0.20740   0.25271   0.00000  Uiso   1.00
C118   C     0.64544   0.12583   0.25096   0.00000  Uiso   1.00
C119   C     0.35466   0.20743   0.25264   0.00000  Uiso   1.00
C120   C     0.62417   0.16661   0.25165   0.00000  Uiso   1.00
H121   H     0.55762   0.19597   0.38773   0.00000  Uiso   1.00
H122   H     0.61155   0.21590   0.16607   0.00000  Uiso   1.00
H123   H     0.65805   0.11554   0.46263   0.00000  Uiso   1.00
H124   H     0.65956   0.16436   0.08076   0.00000  Uiso   1.00
H125   H     0.59085   0.08238   0.34206   0.00000  Uiso   1.00
H126   H     0.40815   0.25124   0.15901   0.00000  Uiso   1.00
H127   H     0.40690   0.07942   0.15912   0.00000  Uiso   1.00
H128   H     0.59220   0.25391   0.34206   0.00000  Uiso   1.00
H129   H     0.44225   0.13633   0.11222   0.00000  Uiso   1.00
H130   H     0.40214   0.13086   0.04532   0.00000  Uiso   1.00
H131   H     0.59726   0.20219   0.45457   0.00000  Uiso   1.00
H132   H     0.37076   0.09400   0.25100   0.00000  Uiso   1.00
H133   H     0.62938   0.23926   0.25273   0.00000  Uiso   1.00
H134   H     0.62941   0.09398   0.24985   0.00000  Uiso   1.00
H135   H     0.37071   0.23928   0.25345   0.00000  Uiso   1.00
H136   H     0.39817   0.06612   0.37465   0.00000  Uiso   1.00
N137   N     0.50000   0.28573   0.25000   0.00000  Uiso   1.00
N138   N     0.50000   0.04760   0.25000   0.00000  Uiso   1.00
O139   O     0.43892   0.20487   0.24999   0.00000  Uiso   1.00
O140   O     0.42040   0.08038   0.39440   0.00000  Uiso   1.00
O141   O     0.57340   0.25109   0.10669   0.00000  Uiso   1.00
O142   O     0.59056   0.19392   0.15319   0.00000  Uiso   1.00
O143   O     0.37105   0.17110   0.43372   0.00000  Uiso   1.00
O144   O     0.35333   0.11182   0.47682   0.00000  Uiso   1.00
O145   O     0.64128   0.22050   0.02672   0.00000  Uiso   1.00
O146   O     0.62956   0.16010   0.07071   0.00000  Uiso   1.00
O147   O     0.52440   0.04941   0.35778   0.00000  Uiso   1.00
O148   O     0.57943   0.06708   0.31414   0.00000  Uiso   1.00
O149   O     0.47463   0.28371   0.14244   0.00000  Uiso   1.00
O150   O     0.56108   0.12846   0.25000   0.00000  Uiso   1.00
O151   O     0.41992   0.26655   0.18676   0.00000  Uiso   1.00
O152   O     0.47448   0.04907   0.14270   0.00000  Uiso   1.00
O153   O     0.41926   0.06510   0.18694   0.00000  Uiso   1.00
O154   O     0.52448   0.28436   0.35750   0.00000  Uiso   1.00
O155   O     0.58017   0.26815   0.31404   0.00000  Uiso   1.00
O156   O     0.56108   0.20487   0.25000   0.00000  Uiso   1.00
O157   O     0.43892   0.12846   0.24999   0.00000  Uiso   1.00
O158   O     0.49999   0.20489   0.18392   0.00000  Uiso   1.00
O159   O     0.50001   0.12844   0.31607   0.00000  Uiso   1.00
O160   O     0.50001   0.20489   0.31607   0.00000  Uiso   1.00
O161   O     0.49999   0.12844   0.18392   0.00000  Uiso   1.00
O162   O     0.41221   0.14061   0.34900   0.00000  Uiso   1.00
Zn163  Zn    0.50000   0.21771   0.25000   0.00000  Uiso   1.00
Zn164  Zn    0.50000   0.11563   0.25000   0.00000  Uiso   1.00
C165   C     0.75342   0.16668   0.25009   0.00000  Uiso   1.00
C166   C     0.70923   0.16666   0.25127   0.00000  Uiso   1.00
C167   C     0.85249   0.02406   0.28384   0.00000  Uiso   1.00
C168   C     0.81404   0.30927   0.21625   0.00000  Uiso   1.00
C169   C     0.81405   0.02374   0.21627   0.00000  Uiso   1.00
C170   C     0.85247   0.30960   0.28383   0.00000  Uiso   1.00
C171   C     0.83448   0.16658   0.16368   0.00000  Uiso   1.00
C172   C     0.83207   0.16677   0.33625   0.00000  Uiso   1.00
C173   C     0.86441   0.18406   0.40645   0.00000  Uiso   1.00
C174   C     0.80189   0.14867   0.09342   0.00000  Uiso   1.00
C175   C     0.82993   0.16728   0.38393   0.00000  Uiso   1.00
C176   C     0.91326   0.16665   0.25074   0.00000  Uiso   1.00
C177   C     0.83620   0.16613   0.11589   0.00000  Uiso   1.00
C178   C     0.79534   0.14989   0.40658   0.00000  Uiso   1.00
C179   C     0.87016   0.18446   0.09298   0.00000  Uiso   1.00
C180   C     0.79447   0.15348   0.45378   0.00000  Uiso   1.00
C181   C     0.87125   0.18021   0.04591   0.00000  Uiso   1.00
C182   C     0.83166   0.16717   0.47649   0.00000  Uiso   1.00
C183   C     0.83427   0.16597   0.02324   0.00000  Uiso   1.00
C184   C     0.86637   0.18226   0.45244   0.00000  Uiso   1.00
C185   C     0.79971   0.15064   0.04736   0.00000  Uiso   1.00
C186   C     0.75851   0.14349   0.47941   0.00000  Uiso   1.00
C187   C     0.76248   0.13959   0.02566   0.00000  Uiso   1.00
C188   C     0.90721   0.19046   0.02047   0.00000  Uiso   1.00
C189   C     0.76337   0.12394   0.38119   0.00000  Uiso   1.00
C190   C     0.90106   0.21224   0.11777   0.00000  Uiso   1.00
C191   C     0.71539   0.14293   0.46097   0.00000  Uiso   1.00
C192   C     0.95004   0.19222   0.03960   0.00000  Uiso   1.00
C193   C     0.87369   0.04805   0.32080   0.00000  Uiso   1.00
C194   C     0.79238   0.28527   0.17960   0.00000  Uiso   1.00
C195   C     0.79217   0.04738   0.17979   0.00000  Uiso   1.00
C196   C     0.87389   0.28599   0.32062   0.00000  Uiso   1.00
C197   C     0.90351   0.19353   0.47416   0.00000  Uiso   1.00
C198   C     0.68802   0.12585   0.25114   0.00000  Uiso   1.00
C199   C     0.97876   0.20740   0.25271   0.00000  Uiso   1.00
C200   C     0.97877   0.12583   0.25096   0.00000  Uiso   1.00
C201   C     0.68799   0.20743   0.25264   0.00000  Uiso   1.00
C202   C     0.95751   0.16661   0.25165   0.00000  Uiso   1.00
H203   H     0.89095   0.19597   0.38773   0.00000  Uiso   1.00
H204   H     0.94488   0.21590   0.16607   0.00000  Uiso   1.00
H205   H     0.99138   0.11554   0.46263   0.00000  Uiso   1.00
H206   H     0.99289   0.16436   0.08076   0.00000  Uiso   1.00
H207   H     0.92418   0.08238   0.34206   0.00000  Uiso   1.00
H208   H     0.74148   0.25124   0.15901   0.00000  Uiso   1.00
H209   H     0.74024   0.07942   0.15912   0.00000  Uiso   1.00
H210   H     0.92554   0.25391   0.34206   0.00000  Uiso   1.00
H211   H     0.77558   0.13633   0.11222   0.00000  Uiso   1.00
H212   H     0.73547   0.13086   0.04532   0.00000  Uiso   1.00
H213   H     0.93059   0.20219   0.45457   0.00000  Uiso   1.00
H214   H     0.70410   0.09400   0.25100   0.00000  Uiso   1.00
H215   H     0.96272   0.23926   0.25273   0.00000  Uiso   1.00
H216   H     0.96274   0.09398   0.24985   0.00000  Uiso   1.00
H217   H     0.70404   0.23928   0.25345   0.00000  Uiso   1.00
H218   H     0.73150   0.06612   0.37465   0.00000  Uiso   1.00
N219   N     0.83333   0.28573   0.25000   0.00000  Uiso   1.00
N220   N     0.83333   0.04760   0.25000   0.00000  Uiso   1.00
O221   O     0.77226   0.20487   0.24999   0.00000  Uiso   1.00
O222   O     0.75373   0.08038   0.39440   0.00000  Uiso   1.00
O223   O     0.90673   0.25109   0.10669   0.00000  Uiso   1.00
O224   O     0.92390   0.19392   0.15319   0.00000  Uiso   1.00
O225   O     0.70438   0.17110   0.43372   0.00000  Uiso   1.00
O226   O     0.68666   0.11182   0.47682   0.00000  Uiso   1.00
O227   O     0.97461   0.22050   0.02672   0.00000  Uiso   1.00
O228   O     0.96289   0.16010   0.07071   0.00000  Uiso   1.00
O229   O     0.85774   0.04941   0.35778   0.00000  Uiso   1.00
O230   O     0.91276   0.06708   0.31414   0.00000  Uiso   1.00
O231   O     0.80796   0.28371   0.14244   0.00000  Uiso   1.00
O232   O     0.89441   0.12846   0.25000   0.00000  Uiso   1.00
O233   O     0.75326   0.26655   0.18676   0.00000  Uiso   1.00
O234   O     0.80781   0.04907   0.14270   0.00000  Uiso   1.00
O235   O     0.75259   0.06510   0.18694   0.00000  Uiso   1.00
O236   O     0.85781   0.28436   0.35750   0.00000  Uiso   1.00
O237   O     0.91350   0.26815   0.31404   0.00000  Uiso   1.00
O238   O     0.89441   0.20487   0.25000   0.00000  Uiso   1.00
O239   O     0.77226   0.12846   0.24999   0.00000  Uiso   1.00
O240   O     0.83333   0.20489   0.18392   0.00000  Uiso   1.00
O241   O     0.83334   0.12844   0.31607   0.00000  Uiso   1.00
O242   O     0.83334   0.20489   0.31607   0.00000  Uiso   1.00
O243   O     0.83333   0.12844   0.18392   0.00000  Uiso   1.00
O244   O     0.74554   0.14061   0.34900   0.00000  Uiso   1.00
Zn245  Zn    0.83333   0.21771   0.25000   0.00000  Uiso   1.00
Zn246  Zn    0.83333   0.11563   0.25000   0.00000  Uiso   1.00
C247   C     0.08676   0.50001   0.25009   0.00000  Uiso   1.00
C248   C     0.04256   0.49999   0.25127   0.00000  Uiso   1.00
C249   C     0.18582   0.35740   0.28384   0.00000  Uiso   1.00
C250   C     0.14738   0.64260   0.21625   0.00000  Uiso   1.00
C251   C     0.14738   0.35708   0.21627   0.00000  Uiso   1.00
C252   C     0.18581   0.64293   0.28383   0.00000  Uiso   1.00
C253   C     0.16781   0.49991   0.16368   0.00000  Uiso   1.00
C254   C     0.16541   0.50010   0.33625   0.00000  Uiso   1.00
C255   C     0.19775   0.51739   0.40645   0.00000  Uiso   1.00
C256   C     0.13522   0.48201   0.09342   0.00000  Uiso   1.00
C257   C     0.16326   0.50062   0.38393   0.00000  Uiso   1.00
C258   C     0.24659   0.49998   0.25074   0.00000  Uiso   1.00
C259   C     0.16953   0.49946   0.11589   0.00000  Uiso   1.00
C260   C     0.12868   0.48322   0.40658   0.00000  Uiso   1.00
C261   C     0.20349   0.51779   0.09298   0.00000  Uiso   1.00
C262   C     0.12780   0.48682   0.45378   0.00000  Uiso   1.00
C263   C     0.20458   0.51354   0.04591   0.00000  Uiso   1.00
C264   C     0.16499   0.50050   0.47649   0.00000  Uiso   1.00
C265   C     0.16760   0.49931   0.02324   0.00000  Uiso   1.00
C266   C     0.19970   0.51560   0.45244   0.00000  Uiso   1.00
C267   C     0.13304   0.48398   0.04736   0.00000  Uiso   1.00
C268   C     0.09184   0.47682   0.47941   0.00000  Uiso   1.00
C269   C     0.09582   0.47292   0.02566   0.00000  Uiso   1.00
C270   C     0.24054   0.52380   0.02047   0.00000  Uiso   1.00
C271   C     0.09671   0.45727   0.38119   0.00000  Uiso   1.00
C272   C     0.23439   0.54557   0.11777   0.00000  Uiso   1.00
C273   C     0.04873   0.47626   0.46097   0.00000  Uiso   1.00
C274   C     0.28337   0.52556   0.03960   0.00000  Uiso   1.00
C275   C     0.20703   0.38138   0.32080   0.00000  Uiso   1.00
C276   C     0.12571   0.61860   0.17960   0.00000  Uiso   1.00
C277   C     0.12551   0.38071   0.17979   0.00000  Uiso   1.00
C278   C     0.20722   0.61932   0.32062   0.00000  Uiso   1.00
C279   C     0.23684   0.52686   0.47416   0.00000  Uiso   1.00
C280   C     0.02136   0.45918   0.25114   0.00000  Uiso   1.00
C281   C     0.31209   0.54073   0.25271   0.00000  Uiso   1.00
C282   C     0.31210   0.45916   0.25096   0.00000  Uiso   1.00
C283   C     0.02133   0.54076   0.25264   0.00000  Uiso   1.00
C284   C     0.29084   0.49995   0.25165   0.00000  Uiso   1.00
H285   H     0.22429   0.52930   0.38773   0.00000  Uiso   1.00
H286   H     0.27822   0.54924   0.16607   0.00000  Uiso   1.00
H287   H     0.32472   0.44887   0.46263   0.00000  Uiso   1.00
H288   H     0.32623   0.49769   0.08076   0.00000  Uiso   1.00
H289   H     0.25752   0.41571   0.34206   0.00000  Uiso   1.00
H290   H     0.07481   0.58457   0.15901   0.00000  Uiso   1.00
H291   H     0.07357   0.41276   0.15912   0.00000  Uiso   1.00
H292   H     0.25887   0.58724   0.34206   0.00000  Uiso   1.00
H293   H     0.10891   0.46967   0.11222   0.00000  Uiso   1.00
H294   H     0.06880   0.46419   0.04532   0.00000  Uiso   1.00
H295   H     0.26393   0.53552   0.45457   0.00000  Uiso   1.00
H296   H     0.03743   0.42733   0.25100   0.00000  Uiso   1.00
H297   H     0.29605   0.57259   0.25273   0.00000  Uiso   1.00
H298   H     0.29607   0.42732   0.24985   0.00000  Uiso   1.00
H299   H     0.03738   0.57261   0.25345   0.00000  Uiso   1.00
H300   H     0.06484   0.39946   0.37465   0.00000  Uiso   1.00
N301   N     0.16667   0.61907   0.25000   0.00000  Uiso   1.00
N302   N     0.16667   0.38093   0.25000   0.00000  Uiso   1.00
O303   O     0.10559   0.53821   0.24999   0.00000  Uiso   1.00
O304   O     0.08706   0.41371   0.39440   0.00000  Uiso   1.00
O305   O     0.24006   0.58443   0.10669   0.00000  Uiso   1.00
O306   O     0.25723   0.52725   0.15319   0.00000  Uiso   1.00
O307   O     0.03771   0.50443   0.43372   0.00000  Uiso   1.00
O308   O     0.01999   0.44516   0.47682   0.00000  Uiso   1.00
O309   O     0.30794   0.55383   0.02672   0.00000  Uiso   1.00
O310   O     0.29623   0.49343   0.07071   0.00000  Uiso   1.00
O311   O     0.19107   0.38275   0.35778   0.00000  Uiso   1.00
O312   O     0.24610   0.40042   0.31414   0.00000  Uiso   1.00
O313   O     0.14129   0.61705   0.14244   0.00000  Uiso   1.00
O314   O     0.22774   0.46179   0.25000   0.00000  Uiso   1.00
O315   O     0.08659   0.59988   0.18676   0.00000  Uiso   1.00
O316   O     0.14115   0.38241   0.14270   0.00000  Uiso   1.00
O317   O     0.08593   0.39844   0.18694   0.00000  Uiso   1.00
O318   O     0.19114   0.61769   0.35750   0.00000  Uiso   1.00
O319   O     0.24684   0.60148   0.31404   0.00000  Uiso   1.00
O320   O     0.22774   0.53821   0.25000   0.00000  Uiso   1.00
O321   O     0.10559   0.46179   0.24999   0.00000  Uiso   1.00
O322   O     0.16666   0.53823   0.18392   0.00000  Uiso   1.00
O323   O     0.16667   0.46177   0.31607   0.00000  Uiso   1.00
O324   O     0.16667   0.53823   0.31607   0.00000  Uiso   1.00
O325   O     0.16666   0.46177   0.18392   0.00000  Uiso   1.00
O326   O     0.07887   0.47394   0.34900   0.00000  Uiso   1.00
Zn327  Zn    0.16667   0.55104   0.25000   0.00000  Uiso   1.00
Zn328  Zn    0.16667   0.44896   0.25000   0.00000  Uiso   1.00
C329   C     0.42009   0.50001   0.25009   0.00000  Uiso   1.00
C330   C     0.37590   0.49999   0.25127   0.00000  Uiso   1.00
C331   C     0.51915   0.35740   0.28384   0.00000  Uiso   1.00
C332   C     0.48071   0.64260   0.21625   0.00000  Uiso   1.00
C333   C     0.48071   0.35708   0.21627   0.00000  Uiso   1.00
C334   C     0.51914   0.64293   0.28383   0.00000  Uiso   1.00
C335   C     0.50115   0.49991   0.16368   0.00000  Uiso   1.00
C336   C     0.49874   0.50010   0.33625   0.00000  Uiso   1.00
C337   C     0.53108   0.51739   0.40645   0.00000  Uiso   1.00
C338   C     0.46856   0.48201   0.09342   0.00000  Uiso   1.00
C339   C     0.49660   0.50062   0.38393   0.00000  Uiso   1.00
C340   C     0.57992   0.49998   0.25074   0.00000  Uiso   1.00
C341   C     0.50286   0.49946   0.11589   0.00000  Uiso   1.00
C342   C     0.46201   0.48322   0.40658   0.00000  Uiso   1.00
C343   C     0.53683   0.51779   0.09298   0.00000  Uiso   1.00
C344   C     0.46114   0.48682   0.45378   0.00000  Uiso   1.00
C345   C     0.53792   0.51354   0.04591   0.00000  Uiso   1.00
C346   C     0.49833   0.50050   0.47649   0.00000  Uiso   1.00
C347   C     0.50093   0.49931   0.02324   0.00000  Uiso   1.00
C348   C     0.53303   0.51560   0.45244   0.00000  Uiso   1.00
C349   C     0.46638   0.48398   0.04736   0.00000  Uiso   1.00
C350   C     0.42517   0.47682   0.47941   0.00000  Uiso   1.00
C351   C     0.42915   0.47292   0.02566   0.00000  Uiso   1.00
C352   C     0.57387   0.52380   0.02047   0.00000  Uiso   1.00
C353   C     0.43004   0.45727   0.38119   0.00000  Uiso   1.00
C354   C     0.56772   0.54557   0.11777   0.00000  Uiso   1.00
C355   C     0.38206   0.47626   0.46097   0.00000  Uiso   1.00
C356   C     0.61670   0.52556   0.03960   0.00000  Uiso   1.00
C357   C     0.54036   0.38138   0.32080   0.00000  Uiso   1.00
C358   C     0.45905   0.61860   0.17960   0.00000  Uiso   1.00
C359   C     0.45884   0.38071   0.17979   0.00000  Uiso   1.00
C360   C     0.54056   0.61932   0.32062   0.00000  Uiso   1.00
C361   C     0.57018   0.52686   0.47416   0.00000  Uiso   1.00
C362   C     0.35469   0.45918   0.25114   0.00000  Uiso   1.00
C363   C     0.64542   0.54073   0.25271   0.00000  Uiso   1.00
C364   C     0.64544   0.45916   0.25096   0.00000  Uiso   1.00
C365   C     0.35466   0.54076   0.25264   0.00000  Uiso   1.00
C366   C     0.62417   0.49995   0.25165   0.00000  Uiso   1.00
H367   H     0.55762   0.52930   0.38773   0.00000  Uiso   1.00
H368   H     0.61155   0.54924   0.16607   0.00000  Uiso   1.00
H369   H     0.65805   0.44887   0.46263   0.00000  Uiso   1.00
H370   H     0.65956   0.49769   0.08076   0.00000  Uiso   1.00
H371   H     0.59085   0.41571   0.34206   0.00000  Uiso   1.00
H372   H     0.40815   0.58457   0.15901   0.00000  Uiso   1.00
H373   H     0.40690   0.41276   0.15912   0.00000  Uiso   1.00
H374   H     0.59220   0.58724   0.34206   0.00000  Uiso   1.00
H375   H     0.44225   0.46967   0.11222   0.00000  Uiso   1.00
H376   H     0.40214   0.46419   0.04532   0.00000  Uiso   1.00
H377   H     0.59726   0.53552   0.45457   0.00000  Uiso   1.00
H378   H     0.37076   0.42733   0.25100   0.00000  Uiso   1.00
H379   H     0.62938   0.57259   0.25273   0.00000  Uiso   1.00
H380   H     0.62941   0.42732   0.24985   0.00000  Uiso   1.00
H381   H     0.37071   0.57261   0.25345   0.00000  Uiso   1.00
H382   H     0.39817   0.39946   0.37465   0.00000  Uiso   1.00
N383   N     0.50000   0.61907   0.25000   0.00000  Uiso   1.00
N384   N     0.50000   0.38093   0.25000   0.00000  Uiso   1.00
O385   O     0.43892   0.53821   0.24999   0.00000  Uiso   1.00
O386   O     0.42040   0.41371   0.39440   0.00000  Uiso   1.00
O387   O     0.57340   0.58443   0.10669   0.00000  Uiso   1.00
O388   O     0.59056   0.52725   0.15319   0.00000  Uiso   1.00
O389   O     0.37105   0.50443   0.43372   0.00000  Uiso   1.00
O390   O     0.35333   0.44516   0.47682   0.00000  Uiso   1.00
O391   O     0.64128   0.55383   0.02672   0.00000  Uiso   1.00
O392   O     0.62956   0.49343   0.07071   0.00000  Uiso   1.00
O393   O     0.52440   0.38275   0.35778   0.00000  Uiso   1.00
O394   O     0.57943   0.40042   0.31414   0.00000  Uiso   1.00
O395   O     0.47463   0.61705   0.14244   0.00000  Uiso   1.00
O396   O     0.56108   0.46179   0.25000   0.00000  Uiso   1.00
O397   O     0.41992   0.59988   0.18676   0.00000  Uiso   1.00
O398   O     0.47448   0.38241   0.14270   0.00000  Uiso   1.00
O399   O     0.41926   0.39844   0.18694   0.00000  Uiso   1.00
O400   O     0.52448   0.61769   0.35750   0.00000  Uiso   1.00
O401   O     0.58017   0.60148   0.31404   0.00000  Uiso   1.00
O402   O     0.56108   0.53821   0.25000   0.00000  Uiso   1.00
O403   O     0.43892   0.46179   0.24999   0.00000  Uiso   1.00
O404   O     0.49999   0.53823   0.18392   0.00000  Uiso   1.00
O405   O     0.50001   0.46177   0.31607   0.00000  Uiso   1.00
O406   O     0.50001   0.53823   0.31607   0.00000  Uiso   1.00
O407   O     0.49999   0.46177   0.18392   0.00000  Uiso   1.00
O408   O     0.41221   0.47394   0.34900   0.00000  Uiso   1.00
Zn409  Zn    0.50000   0.55104   0.25000   0.00000  Uiso   1.00
Zn410  Zn    0.50000   0.44896   0.25000   0.00000  Uiso   1.00
C411   C     0.75342   0.50001   0.25009   0.00000  Uiso   1.00
C412   C     0.70923   0.49999   0.25127   0.00000  Uiso   1.00
C413   C     0.85249   0.35740   0.28384   0.00000  Uiso   1.00
C414   C     0.81404   0.64260   0.21625   0.00000  Uiso   1.00
C415   C     0.81405   0.35708   0.21627   0.00000  Uiso   1.00
C416   C     0.85247   0.64293   0.28383   0.00000  Uiso   1.00
C417   C     0.83448   0.49991   0.16368   0.00000  Uiso   1.00
C418   C     0.83207   0.50010   0.33625   0.00000  Uiso   1.00
C419   C     0.86441   0.51739   0.40645   0.00000  Uiso   1.00
C420   C     0.80189   0.48201   0.09342   0.00000  Uiso   1.00
C421   C     0.82993   0.50062   0.38393   0.00000  Uiso   1.00
C422   C     0.91326   0.49998   0.25074   0.00000  Uiso   1.00
C423   C     0.83620   0.49946   0.11589   0.00000  Uiso   1.00
C424   C     0.79534   0.48322   0.40658   0.00000  Uiso   1.00
C425   C     0.87016   0.51779   0.09298   0.00000  Uiso   1.00
C426   C     0.79447   0.48682   0.45378   0.00000  Uiso   1.00
C427   C     0.87125   0.51354   0.04591   0.00000  Uiso   1.00
C428   C     0.83166   0.50050   0.47649   0.00000  Uiso   1.00
C429   C     0.83427   0.49931   0.02324   0.00000  Uiso   1.00
C430   C     0.86637   0.51560   0.45244   0.00000  Uiso   1.00
C431   C     0.79971   0.48398   0.04736   0.00000  Uiso   1.00
C432   C     0.75851   0.47682   0.47941   0.00000  Uiso   1.00
C433   C     0.76248   0.47292   0.02566   0.00000  Uiso   1.00
C434   C     0.90721   0.52380   0.02047   0.00000  Uiso   1.00
C435   C     0.76337   0.45727   0.38119   0.00000  Uiso   1.00
C436   C     0.90106   0.54557   0.11777   0.00000  Uiso   1.00
C437   C     0.71539   0.47626   0.46097   0.00000  Uiso   1.00
C438   C     0.95004   0.52556   0.03960   0.00000  Uiso   1.00
C439   C     0.87369   0.38138   0.32080   0.00000  Uiso   1.00
C440   C     0.79238   0.61860   0.17960   0.00000  Uiso   1.00
C441   C     0.79217   0.38071   0.17979   0.00000  Uiso   1.00
C442   C     0.87389   0.61932   0.32062   0.00000  Uiso   1.00
C443   C     0.90351   0.52686   0.47416   0.00000  Uiso   1.00
C444   C     0.68802   0.45918   0.25114   0.00000  Uiso   1.00
C445   C     0.97876   0.54073   0.25271   0.00000  Uiso   1.00
C446   C     0.97877   0.45916   0.25096   0.00000  Uiso   1.00
C447   C     0.68799   0.54076   0.25264   0.00000  Uiso   1.00
C448   C     0.95751   0.49995   0.25165   0.00000  Uiso   1.00
H449   H     0.89095   0.52930   0.38773   0.00000  Uiso   1.00
H450   H     0.94488   0.54924   0.16607   0.00000  Uiso   1.00
H451   H     0.99138   0.44887   0.46263   0.00000  Uiso   1.00
H452   H     0.99289   0.49769   0.08076   0.00000  Uiso   1.00
H453   H     0.92418   0.41571   0.34206   0.00000  Uiso   1.00
H454   H     0.74148   0.58457   0.15901   0.00000  Uiso   1.00
H455   H     0.74024   0.41276   0.15912   0.00000  Uiso   1.00
H456   H     0.92554   0.58724   0.34206   0.00000  Uiso   1.00
H457   H     0.77558   0.46967   0.11222   0.00000  Uiso   1.00
H458   H     0.73547   0.46419   0.04532   0.00000  Uiso   1.00
H459   H     0.93059   0.53552   0.45457   0.00000  Uiso   1.00
H460   H     0.70410   0.42733   0.25100   0.00000  Uiso   1.00
H461   H     0.96272   0.57259   0.25273   0.00000  Uiso   1.00
H462   H     0.96274   0.42732   0.24985   0.00000  Uiso   1.00
H463   H     0.70404   0.57261   0.25345   0.00000  Uiso   1.00
H464   H     0.73150   0.39946   0.37465   0.00000  Uiso   1.00
N465   N     0.83333   0.61907   0.25000   0.00000  Uiso   1.00
N466   N     0.83333   0.38093   0.25000   0.00000  Uiso   1.00
O467   O     0.77226   0.53821   0.24999   0.00000  Uiso   1.00
O468   O     0.75373   0.41371   0.39440   0.00000  Uiso   1.00
O469   O     0.90673   0.58443   0.10669   0.00000  Uiso   1.00
O470   O     0.92390   0.52725   0.15319   0.00000  Uiso   1.00
O471   O     0.70438   0.50443   0.43372   0.00000  Uiso   1.00
O472   O     0.68666   0.44516   0.47682   0.00000  Uiso   1.00
O473   O     0.97461   0.55383   0.02672   0.00000  Uiso   1.00
O474   O     0.96289   0.49343   0.07071   0.00000  Uiso   1.00
O475   O     0.85774   0.38275   0.35778   0.00000  Uiso   1.00
O476   O     0.91276   0.40042   0.31414   0.00000  Uiso   1.00
O477   O     0.80796   0.61705   0.14244   0.00000  Uiso   1.00
O478   O     0.89441   0.46179   0.25000   0.00000  Uiso   1.00
O479   O     0.75326   0.59988   0.18676   0.00000  Uiso   1.00
O480   O     0.80781   0.38241   0.14270   0.00000  Uiso   1.00
O481   O     0.75259   0.39844   0.18694   0.00000  Uiso   1.00
O482   O     0.85781   0.61769   0.35750   0.00000  Uiso   1.00
O483   O     0.91350   0.60148   0.31404   0.00000  Uiso   1.00
O484   O     0.89441   0.53821   0.25000   0.00000  Uiso   1.00
O485   O     0.77226   0.46179   0.24999   0.00000  Uiso   1.00
O486   O     0.83333   0.53823   0.18392   0.00000  Uiso   1.00
O487   O     0.83334   0.46177   0.31607   0.00000  Uiso   1.00
O488   O     0.83334   0.53823   0.31607   0.00000  Uiso   1.00
O489   O     0.83333   0.46177   0.18392   0.00000  Uiso   1.00
O490   O     0.74554   0.47394   0.34900   0.00000  Uiso   1.00
Zn491  Zn    0.83333   0.55104   0.25000   0.00000  Uiso   1.00
Zn492  Zn    0.83333   0.44896   0.25000   0.00000  Uiso   1.00
C493   C     0.08676   0.83334   0.25009   0.00000  Uiso   1.00
C494   C     0.04256   0.83332   0.25127   0.00000  Uiso   1.00
C495   C     0.18582   0.69073   0.28384   0.00000  Uiso   1.00
C496   C     0.14738   0.97594   0.21625   0.00000  Uiso   1.00
C497   C     0.14738   0.69041   0.21627   0.00000  Uiso   1.00
C498   C     0.18581   0.97626   0.28383   0.00000  Uiso   1.00
C499   C     0.16781   0.83325   0.16368   0.00000  Uiso   1.00
C500   C     0.16541   0.83344   0.33625   0.00000  Uiso   1.00
C501   C     0.19775   0.85072   0.40645   0.00000  Uiso   1.00
C502   C     0.13522   0.81534   0.09342   0.00000  Uiso   1.00
C503   C     0.16326   0.83395   0.38393   0.00000  Uiso   1.00
C504   C     0.24659   0.83331   0.25074   0.00000  Uiso   1.00
C505   C     0.16953   0.83280   0.11589   0.00000  Uiso   1.00
C506   C     0.12868   0.81655   0.40658   0.00000  Uiso   1.00
C507   C     0.20349   0.85112   0.09298   0.00000  Uiso   1.00
C508   C     0.12780   0.82015   0.45378   0.00000  Uiso   1.00
C509   C     0.20458   0.84688   0.04591   0.00000  Uiso   1.00
C510   C     0.16499   0.83384   0.47649   0.00000  Uiso   1.00
C511   C     0.16760   0.83264   0.02324   0.00000  Uiso   1.00
C512   C     0.19970   0.84893   0.45244   0.00000  Uiso   1.00
C513   C     0.13304   0.81731   0.04736   0.00000  Uiso   1.00
C514   C     0.09184   0.81015   0.47941   0.00000  Uiso   1.00
C515   C     0.09582   0.80625   0.02566   0.00000  Uiso   1.00
C516   C     0.24054   0.85713   0.02047   0.00000  Uiso   1.00
C517   C     0.09671   0.79061   0.38119   0.00000  Uiso   1.00
C518   C     0.23439   0.87890   0.11777   0.00000  Uiso   1.00
C519   C     0.04873   0.80960   0.46097   0.00000  Uiso   1.00
C520   C     0.28337   0.85889   0.03960   0.00000  Uiso   1.00
C521   C     0.20703   0.71472   0.32080   0.00000  Uiso   1.00
C522   C     0.12571   0.95193   0.17960   0.00000  Uiso   1.00
C523   C     0.12551   0.71404   0.17979   0.00000  Uiso   1.00
C524   C     0.20722   0.95265   0.32062   0.00000  Uiso   1.00
C525   C     0.23684   0.86019   0.47416   0.00000  Uiso   1.00
C526   C     0.02136   0.79251   0.25114   0.00000  Uiso   1.00
C527   C     0.31209   0.87407   0.25271   0.00000  Uiso   1.00
C528   C     0.31210   0.79250   0.25096   0.00000  Uiso   1.00
C529   C     0.02133   0.87409   0.25264   0.00000  Uiso   1.00
C530   C     0.29084   0.83328   0.25165   0.00000  Uiso   1.00
H531   H     0.22429   0.86263   0.38773   0.00000  Uiso   1.00
H532   H     0.27822   0.88257   0.16607   0.00000  Uiso   1.00
H533   H     0.32472   0.78221   0.46263   0.00000  Uiso   1.00
H534   H     0.32623   0.83103   0.08076   0.00000  Uiso   1.00
H535   H     0.25752   0.74904   0.34206   0.00000  Uiso   1.00
H536   H     0.07481   0.91791   0.15901   0.00000  Uiso   1.00
H537   H     0.07357   0.74609   0.15912   0.00000  Uiso   1.00
H538   H     0.25887   0.92057   0.34206   0.00000  Uiso   1.00
H539   H     0.10891   0.80300   0.11222   0.00000  Uiso   1.00
H540   H     0.06880   0.79753   0.04532   0.00000  Uiso   1.00
H541   H     0.26393   0.86886   0.45457   0.00000  Uiso   1.00
H542   H     0.03743   0.76066   0.25100   0.00000  Uiso   1.00
H543   H     0.29605   0.90593   0.25273   0.00000  Uiso   1.00
H544   H     0.29607   0.76065   0.24985   0.00000  Uiso   1.00
H545   H     0.03738   0.90595   0.25345   0.00000  Uiso   1.00
H546   H     0.06484   0.73279   0.37465   0.00000  Uiso   1.00
N547   N     0.16667   0.95240   0.25000   0.00000  Uiso   1.00
N548   N     0.16667   0.71427   0.25000   0.00000  Uiso   1.00
O549   O     0.10559   0.87154   0.24999   0.00000  Uiso   1.00
O550   O     0.08706   0.74705   0.39440   0.00000  Uiso   1.00
O551   O     0.24006   0.91776   0.10669   0.00000  Uiso   1.00
O552   O     0.25723   0.86059   0.15319   0.00000  Uiso   1.00
O553   O     0.03771   0.83776   0.43372   0.00000  Uiso   1.00
O554   O     0.01999   0.77849   0.47682   0.00000  Uiso   1.00
O555   O     0.30794   0.88717   0.02672   0.00000  Uiso   1.00
O556   O     0.29623   0.82676   0.07071   0.00000  Uiso   1.00
O557   O     0.19107   0.71608   0.35778   0.00000  Uiso   1.00
O558   O     0.24610   0.73375   0.31414   0.00000  Uiso   1.00
O559   O     0.14129   0.95038   0.14244   0.00000  Uiso   1.00
O560   O     0.22774   0.79513   0.25000   0.00000  Uiso   1.00
O561   O     0.08659   0.93321   0.18676   0.00000  Uiso   1.00
O562   O     0.14115   0.71574   0.14270   0.00000  Uiso   1.00
O563   O     0.08593   0.73177   0.18694   0.00000  Uiso   1.00
O564   O     0.19114   0.95102   0.35750   0.00000  Uiso   1.00
O565   O     0.24684   0.93482   0.31404   0.00000  Uiso   1.00
O566   O     0.22774   0.87154   0.25000   0.00000  Uiso   1.00
O567   O     0.10559   0.79513   0.24999   0.00000  Uiso   1.00
O568   O     0.16666   0.87156   0.18392   0.00000  Uiso   1.00
O569   O     0.16667   0.79511   0.31607   0.00000  Uiso   1.00
O570   O     0.16667   0.87156   0.31607   0.00000  Uiso   1.00
O571   O     0.16666   0.79511   0.18392   0.00000  Uiso   1.00
O572   O     0.07887   0.80727   0.34900   0.00000  Uiso   1.00
Zn573  Zn    0.16667   0.88437   0.25000   0.00000  Uiso   1.00
Zn574  Zn    0.16667   0.78229   0.25000   0.00000  Uiso   1.00
C575   C     0.42009   0.83334   0.25009   0.00000  Uiso   1.00
C576   C     0.37590   0.83332   0.25127   0.00000  Uiso   1.00
C577   C     0.51915   0.69073   0.28384   0.00000  Uiso   1.00
C578   C     0.48071   0.97594   0.21625   0.00000  Uiso   1.00
C579   C     0.48071   0.69041   0.21627   0.00000  Uiso   1.00
C580   C     0.51914   0.97626   0.28383   0.00000  Uiso   1.00
C581   C     0.50115   0.83325   0.16368   0.00000  Uiso   1.00
C582   C     0.49874   0.83344   0.33625   0.00000  Uiso   1.00
C583   C     0.53108   0.85072   0.40645   0.00000  Uiso   1.00
C584   C     0.46856   0.81534   0.09342   0.00000  Uiso   1.00
C585   C     0.49660   0.83395   0.38393   0.00000  Uiso   1.00
C586   C     0.57992   0.83331   0.25074   0.00000  Uiso   1.00
C587   C     0.50286   0.83280   0.11589   0.00000  Uiso   1.00
C588   C     0.46201   0.81655   0.40658   0.00000  Uiso   1.00
C589   C     0.53683   0.85112   0.09298   0.00000  Uiso   1.00
C590   C     0.46114   0.82015   0.45378   0.00000  Uiso   1.00
C591   C     0.53792   0.84688   0.04591   0.00000  Uiso   1.00
C592   C     0.49833   0.83384   0.47649   0.00000  Uiso   1.00
C593   C     0.50093   0.83264   0.02324   0.00000  Uiso   1.00
C594   C     0.53303   0.84893   0.45244   0.00000  Uiso   1.00
C595   C     0.46638   0.81731   0.04736   0.00000  Uiso   1.00
C596   C     0.42517   0.81015   0.47941   0.00000  Uiso   1.00
C597   C     0.42915   0.80625   0.02566   0.00000  Uiso   1.00
C598   C     0.57387   0.85713   0.02047   0.00000  Uiso   1.00
C599   C     0.43004   0.79061   0.38119   0.00000  Uiso   1.00
C600   C     0.56772   0.87890   0.11777   0.00000  Uiso   1.00
C601   C     0.38206   0.80960   0.46097   0.00000  Uiso   1.00
C602   C     0.61670   0.85889   0.03960   0.00000  Uiso   1.00
C603   C     0.54036   0.71472   0.32080   0.00000  Uiso   1.00
C604   C     0.45905   0.95193   0.17960   0.00000  Uiso   1.00
C605   C     0.45884   0.71404   0.17979   0.00000  Uiso   1.00
C606   C     0.54056   0.95265   0.32062   0.00000  Uiso   1.00
C607   C     0.57018   0.86019   0.47416   0.00000  Uiso   1.00
C608   C     0.35469   0.79251   0.25114   0.00000  Uiso   1.00
C609   C     0.64542   0.87407   0.25271   0.00000  Uiso   1.00
C610   C     0.64544   0.79250   0.25096   0.00000  Uiso   1.00
C611   C     0.35466   0.87409   0.25264   0.00000  Uiso   1.00
C612   C     0.62417   0.83328   0.25165   0.00000  Uiso   1.00
H613   H     0.55762   0.86263   0.38773   0.00000  Uiso   1.00
H614   H     0.61155   0.88257   0.16607   0.00000  Uiso   1.00
H615   H     0.65805   0.78221   0.46263   0.00000  Uiso   1.00
H616   H     0.65956   0.83103   0.08076   0.00000  Uiso   1.00
H617   H     0.59085   0.74904   0.34206   0.00000  Uiso   1.00
H618   H     0.40815   0.91791   0.15901   0.00000  Uiso   1.00
H619   H     0.40690   0.74609   0.15912   0.00000  Uiso   1.00
H620   H     0.59220   0.92057   0.34206   0.00000  Uiso   1.00
H621   H     0.44225   0.80300   0.11222   0.00000  Uiso   1.00
H622   H     0.40214   0.79753   0.04532   0.00000  Uiso   1.00
H623   H     0.59726   0.86886   0.45457   0.00000  Uiso   1.00
H624   H     0.37076   0.76066   0.25100   0.00000  Uiso   1.00
H625   H     0.62938   0.90593   0.25273   0.00000  Uiso   1.00
H626   H     0.62941   0.76065   0.24985   0.00000  Uiso   1.00
H627   H     0.37071   0.90595   0.25345   0.00000  Uiso   1.00
H628   H     0.39817   0.73279   0.37465   0.00000  Uiso   1.00
N629   N     0.50000   0.95240   0.25000   0.00000  Uiso   1.00
N630   N     0.50000   0.71427   0.25000   0.00000  Uiso   1.00
O631   O     0.43892   0.87154   0.24999   0.00000  Uiso   1.00
O632   O     0.42040   0.74705   0.39440   0.00000  Uiso   1.00
O633   O     0.57340   0.91776   0.10669   0.00000  Uiso   1.00
O634   O     0.59056   0.86059   0.15319   0.00000  Uiso   1.00
O635   O     0.37105   0.83776   0.43372   0.00000  Uiso   1.00
O636   O     0.35333   0.77849   0.47682   0.00000  Uiso   1.00
O637   O     0.64128   0.88717   0.02672   0.00000  Uiso   1.00
O638   O     0.62956   0.82676   0.07071   0.00000  Uiso   1.00
O639   O     0.52440   0.71608   0.35778   0.00000  Uiso   1.00
O640   O     0.57943   0.73375   0.31414   0.00000  Uiso   1.00
O641   O     0.47463   0.95038   0.14244   0.00000  Uiso   1.00
O642   O     0.56108   0.79513   0.25000   0.00000  Uiso   1.00
O643   O     0.41992   0.93321   0.18676   0.00000  Uiso   1.00
O644   O     0.47448   0.71574   0.14270   0.00000  Uiso   1.00
O645   O     0.41926   0.73177   0.18694   0.00000  Uiso   1.00
O646   O     0.52448   0.95102   0.35750   0.00000  Uiso   1.00
O647   O     0.58017   0.93482   0.31404   0.00000  Uiso   1.00
O648   O     0.56108   0.87154   0.25000   0.00000  Uiso   1.00
O649   O     0.43892   0.79513   0.24999   0.00000  Uiso   1.00
O650   O     0.49999   0.87156   0.18392   0.00000  Uiso   1.00
O651   O     0.50001   0.79511   0.31607   0.00000  Uiso   1.00
O652   O     0.50001   0.87156   0.31607   0.00000  Uiso   1.00
O653   O     0.49999   0.79511   0.18392   0.00000  Uiso   1.00
O654   O     0.41221   0.80727   0.34900   0.00000  Uiso   1.00
Zn655  Zn    0.50000   0.88437   0.25000   0.00000  Uiso   1.00
Zn656  Zn    0.50000   0.78229   0.25000   0.00000  Uiso   1.00
C657   C     0.75342   0.83334   0.25009   0.00000  Uiso   1.00
C658   C     0.70923   0.83332   0.25127   0.00000  Uiso   1.00
C659   C     0.85249   0.69073   0.28384   0.00000  Uiso   1.00
C660   C     0.81404   0.97594   0.21625   0.00000  Uiso   1.00
C661   C     0.81405   0.69041   0.21627   0.00000  Uiso   1.00
C662   C     0.85247   0.97626   0.28383   0.00000  Uiso   1.00
C663   C     0.83448   0.83325   0.16368   0.00000  Uiso   1.00
C664   C     0.83207   0.83344   0.33625   0.00000  Uiso   1.00
C665   C     0.86441   0.85072   0.40645   0.00000  Uiso   1.00
C666   C     0.80189   0.81534   0.09342   0.00000  Uiso   1.00
C667   C     0.82993   0.83395   0.38393   0.00000  Uiso   1.00
C668   C     0.91326   0.83331   0.25074   0.00000  Uiso   1.00
C669   C     0.83620   0.83280   0.11589   0.00000  Uiso   1.00
C670   C     0.79534   0.81655   0.40658   0.00000  Uiso   1.00
C671   C     0.87016   0.85112   0.09298   0.00000  Uiso   1.00
C672   C     0.79447   0.82015   0.45378   0.00000  Uiso   1.00
C673   C     0.87125   0.84688   0.04591   0.00000  Uiso   1.00
C674   C     0.83166   0.83384   0.47649   0.00000  Uiso   1.00
C675   C     0.83427   0.83264   0.02324   0.00000  Uiso   1.00
C676   C     0.86637   0.84893   0.45244   0.00000  Uiso   1.00
C677   C     0.79971   0.81731   0.04736   0.00000  Uiso   1.00
C678   C     0.75851   0.81015   0.47941   0.00000  Uiso   1.00
C679   C     0.76248   0.80625   0.02566   0.00000  Uiso   1.00
C680   C     0.90721   0.85713   0.02047   0.00000  Uiso   1.00
C681   C     0.76337   0.79061   0.38119   0.00000  Uiso   1.00
C682   C     0.90106   0.87890   0.11777   0.00000  Uiso   1.00
C683   C     0.71539   0.80960   0.46097   0.00000  Uiso   1.00
C684   C     0.95004   0.85889   0.03960   0.00000  Uiso   1.00
C685   C     0.87369   0.71472   0.32080   0.00000  Uiso   1.00
C686   C     0.79238   0.95193   0.17960   0.00000  Uiso   1.00
C687   C     0.79217   0.71404   0.17979   0.00000  Uiso   1.00
C688   C     0.87389   0.95265   0.32062   0.00000  Uiso   1.00
C689   C     0.90351   0.86019   0.47416   0.00000  Uiso   1.00
C690   C     0.68802   0.79251   0.25114   0.00000  Uiso   1.00
C691   C     0.97876   0.87407   0.25271   0.00000  Uiso   1.00
C692   C     0.97877   0.79250   0.25096   0.00000  Uiso   1.00
C693   C     0.68799   0.87409   0.25264   0.00000  Uiso   1.00
C694   C     0.95751   0.83328   0.25165   0.00000  Uiso   1.00
H695   H     0.89095   0.86263   0.38773   0.00000  Uiso   1.00
H696   H     0.94488   0.88257   0.16607   0.00000  Uiso   1.00
H697   H     0.99138   0.78221   0.46263   0.00000  Uiso   1.00
H698   H     0.99289   0.83103   0.08076   0.00000  Uiso   1.00
H699   H     0.92418   0.74904   0.34206   0.00000  Uiso   1.00
H700   H     0.74148   0.91791   0.15901   0.00000  Uiso   1.00
H701   H     0.74024   0.74609   0.15912   0.00000  Uiso   1.00
H702   H     0.92554   0.92057   0.34206   0.00000  Uiso   1.00
H703   H     0.77558   0.80300   0.11222   0.00000  Uiso   1.00
H704   H     0.73547   0.79753   0.04532   0.00000  Uiso   1.00
H705   H     0.93059   0.86886   0.45457   0.00000  Uiso   1.00
H706   H     0.70410   0.76066   0.25100   0.00000  Uiso   1.00
H707   H     0.96272   0.90593   0.25273   0.00000  Uiso   1.00
H708   H     0.96274   0.76065   0.24985   0.00000  Uiso   1.00
H709   H     0.70404   0.90595   0.25345   0.00000  Uiso   1.00
H710   H     0.73150   0.73279   0.37465   0.00000  Uiso   1.00
N711   N     0.83333   0.95240   0.25000   0.00000  Uiso   1.00
N712   N     0.83333   0.71427   0.25000   0.00000  Uiso   1.00
O713   O     0.77226   0.87154   0.24999   0.00000  Uiso   1.00
O714   O     0.75373   0.74705   0.39440   0.00000  Uiso   1.00
O715   O     0.90673   0.91776   0.10669   0.00000  Uiso   1.00
O716   O     0.92390   0.86059   0.15319   0.00000  Uiso   1.00
O717   O     0.70438   0.83776   0.43372   0.00000  Uiso   1.00
O718   O     0.68666   0.77849   0.47682   0.00000  Uiso   1.00
O719   O     0.97461   0.88717   0.02672   0.00000  Uiso   1.00
O720   O     0.96289   0.82676   0.07071   0.00000  Uiso   1.00
O721   O     0.85774   0.71608   0.35778   0.00000  Uiso   1.00
O722   O     0.91276   0.73375   0.31414   0.00000  Uiso   1.00
O723   O     0.80796   0.95038   0.14244   0.00000  Uiso   1.00
O724   O     0.89441   0.79513   0.25000   0.00000  Uiso   1.00
O725   O     0.75326   0.93321   0.18676   0.00000  Uiso   1.00
O726   O     0.80781   0.71574   0.14270   0.00000  Uiso   1.00
O727   O     0.75259   0.73177   0.18694   0.00000  Uiso   1.00
O728   O     0.85781   0.95102   0.35750   0.00000  Uiso   1.00
O729   O     0.91350   0.93482   0.31404   0.00000  Uiso   1.00
O730   O     0.89441   0.87154   0.25000   0.00000  Uiso   1.00
O731   O     0.77226   0.79513   0.24999   0.00000  Uiso   1.00
O732   O     0.83333   0.87156   0.18392   0.00000  Uiso   1.00
O733   O     0.83334   0.79511   0.31607   0.00000  Uiso   1.00
O734   O     0.83334   0.87156   0.31607   0.00000  Uiso   1.00
O735   O     0.83333   0.79511   0.18392   0.00000  Uiso   1.00
O736   O     0.74554   0.80727   0.34900   0.00000  Uiso   1.00
Zn737  Zn    0.83333   0.88437   0.25000   0.00000  Uiso   1.00
Zn738  Zn    0.83333   0.78229   0.25000   0.00000  Uiso   1.00
C739   C     0.08676   0.16668   0.75009   0.00000  Uiso   1.00
C740   C     0.04256   0.16666   0.75127   0.00000  Uiso   1.00
C741   C     0.18582   0.02406   0.78384   0.00000  Uiso   1.00
C742   C     0.14738   0.30927   0.71625   0.00000  Uiso   1.00
C743   C     0.14738   0.02374   0.71627   0.00000  Uiso   1.00
C744   C     0.18581   0.30960   0.78383   0.00000  Uiso   1.00
C745   C     0.16781   0.16658   0.66368   0.00000  Uiso   1.00
C746   C     0.16541   0.16677   0.83625   0.00000  Uiso   1.00
C747   C     0.19775   0.18406   0.90645   0.00000  Uiso   1.00
C748   C     0.13522   0.14867   0.59342   0.00000  Uiso   1.00
C749   C     0.16326   0.16728   0.88393   0.00000  Uiso   1.00
C750   C     0.24659   0.16665   0.75074   0.00000  Uiso   1.00
C751   C     0.16953   0.16613   0.61589   0.00000  Uiso   1.00
C752   C     0.12868   0.14989   0.90658   0.00000  Uiso   1.00
C753   C     0.20349   0.18446   0.59298   0.00000  Uiso   1.00
C754   C     0.12780   0.15348   0.95378   0.00000  Uiso   1.00
C755   C     0.20458   0.18021   0.54591   0.00000  Uiso   1.00
C756   C     0.16499   0.16717   0.97649   0.00000  Uiso   1.00
C757   C     0.16760   0.16597   0.52324   0.00000  Uiso   1.00
C758   C     0.19970   0.18226   0.95244   0.00000  Uiso   1.00
C759   C     0.13304   0.15064   0.54736   0.00000  Uiso   1.00
C760   C     0.09184   0.14349   0.97941   0.00000  Uiso   1.00
C761   C     0.09582   0.13959   0.52566   0.00000  Uiso   1.00
C762   C     0.24054   0.19046   0.52047   0.00000  Uiso   1.00
C763   C     0.09671   0.12394   0.88119   0.00000  Uiso   1.00
C764   C     0.23439   0.21224   0.61777   0.00000  Uiso   1.00
C765   C     0.04873   0.14293   0.96097   0.00000  Uiso   1.00
C766   C     0.28337   0.19222   0.53960   0.00000  Uiso   1.00
C767   C     0.20703   0.04805   0.82080   0.00000  Uiso   1.00
C768   C     0.12571   0.28527   0.67960   0.00000  Uiso   1.00
C769   C     0.12551   0.04738   0.67979   0.00000  Uiso   1.00
C770   C     0.20722   0.28599   0.82062   0.00000  Uiso   1.00
C771   C     0.23684   0.19353   0.97416   0.00000  Uiso   1.00
C772   C     0.02136   0.12585   0.75114   0.00000  Uiso   1.00
C773   C     0.31209   0.20740   0.75271   0.00000  Uiso   1.00
C774   C     0.31210   0.12583   0.75096   0.00000  Uiso   1.00
C775   C     0.02133   0.20743   0.75264   0.00000  Uiso   1.00
C776   C     0.29084   0.16661   0.75165   0.00000  Uiso   1.00
H777   H     0.22429   0.19597   0.88773   0.00000  Uiso   1.00
H778   H     0.27822   0.21590   0.66607   0.00000  Uiso   1.00
H779   H     0.32472   0.11554   0.96263   0.00000  Uiso   1.00
H780   H     0.32623   0.16436   0.58076   0.00000  Uiso   1.00
H781   H     0.25752   0.08238   0.84206   0.00000  Uiso   1.00
H782   H     0.07481   0.25124   0.65901   0.00000  Uiso   1.00
H783   H     0.07357   0.07942   0.65912   0.00000  Uiso   1.00
H784   H     0.25887   0.25391   0.84206   0.00000  Uiso   1.00
H785   H     0.10891   0.13633   0.61222   0.00000  Uiso   1.00
H786   H     0.06880   0.13086   0.54532   0.00000  Uiso   1.00
H787   H     0.26393   0.20219   0.95457   0.00000  Uiso   1.00
H788   H     0.03743   0.09400   0.75100   0.00000  Uiso   1.00
H789   H     0.29605   0.23926   0.75273   0.00000  Uiso   1.00
H790   H     0.29607   0.09398   0.74985   0.00000  Uiso   1.00
H791   H     0.03738   0.23928   0.75345   0.00000  Uiso   1.00
H792   H     0.06484   0.06612   0.87465   0.00000  Uiso   1.00
N793   N     0.16667   0.28573   0.75000   0.00000  Uiso   1.00
N794   N     0.16667   0.04760   0.75000   0.00000  Uiso   1.00
O795   O     0.10559   0.20487   0.74999   0.00000  Uiso   1.00
O796   O     0.08706   0.08038   0.89440   0.00000  Uiso   1.00
O797   O     0.24006   0.25109   0.60669   0.00000  Uiso   1.00
O798   O     0.25723   0.19392   0.65319   0.00000  Uiso   1.00
O799   O     0.03771   0.17110   0.93372   0.00000  Uiso   1.00
O800   O     0.01999   0.11182   0.97682   0.00000  Uiso   1.00
O801   O     0.30794   0.22050   0.52672   0.00000  Uiso   1.00
O802   O     0.29623   0.16010   0.57071   0.00000  Uiso   1.00
O803   O     0.19107   0.04941   0.85778   0.00000  Uiso   1.00
O804   O     0.24610   0.06708   0.81414   0.00000  Uiso   1.00
O805   O     0.14129   0.28371   0.64244   0.00000  Uiso   1.00
O806   O     0.22774   0.12846   0.75000   0.00000  Uiso   1.00
O807   O     0.08659   0.26655   0.68676   0.00000  Uiso   1.00
O808   O     0.14115   0.04907   0.64270   0.00000  Uiso   1.00
O809   O     0.08593   0.06510   0.68694   0.00000  Uiso   1.00
O810   O     0.19114   0.28436   0.85750   0.00000  Uiso   1.00
O811   O     0.24684   0.26815   0.81404   0.00000  Uiso   1.00
O812   O     0.22774   0.20487   0.75000   0.00000  Uiso   1.00
O813   O     0.10559   0.12846   0.74999   0.00000  Uiso   1.00
O814   O     0.16666   0.20489   0.68392   0.00000  Uiso   1.00
O815   O     0.16667   0.12844   0.81607   0.00000  Uiso   1.00
O816   O     0.16667   0.20489   0.81607   0.00000  Uiso   1.00
O817   O     0.16666   0.12844   0.68392   0.00000  Uiso   1.00
O818   O     0.07887   0.14061   0.84900   0.00000  Uiso   1.00
Zn819  Zn    0.16667   0.21771   0.75000   0.00000  Uiso   1.00
Zn820  Zn    0.16667   0.11563   0.75000   0.00000  Uiso   1.00
C821   C     0.42009   0.16668   0.75009   0.00000  Uiso   1.00
C822   C     0.37590   0.16666   0.75127   0.00000  Uiso   1.00
C823   C     0.51915   0.02406   0.78384   0.00000  Uiso   1.00
C824   C     0.48071   0.30927   0.71625   0.00000  Uiso   1.00
C825   C     0.48071   0.02374   0.71627   0.00000  Uiso   1.00
C826   C     0.51914   0.30960   0.78383   0.00000  Uiso   1.00
C827   C     0.50115   0.16658   0.66368   0.00000  Uiso   1.00
C828   C     0.49874   0.16677   0.83625   0.00000  Uiso   1.00
C829   C     0.53108   0.18406   0.90645   0.00000  Uiso   1.00
C830   C     0.46856   0.14867   0.59342   0.00000  Uiso   1.00
C831   C     0.49660   0.16728   0.88393   0.00000  Uiso   1.00
C832   C     0.57992   0.16665   0.75074   0.00000  Uiso   1.00
C833   C     0.50286   0.16613   0.61589   0.00000  Uiso   1.00
C834   C     0.46201   0.14989   0.90658   0.00000  Uiso   1.00
C835   C     0.53683   0.18446   0.59298   0.00000  Uiso   1.00
C836   C     0.46114   0.15348   0.95378   0.00000  Uiso   1.00
C837   C     0.53792   0.18021   0.54591   0.00000  Uiso   1.00
C838   C     0.49833   0.16717   0.97649   0.00000  Uiso   1.00
C839   C     0.50093   0.16597   0.52324   0.00000  Uiso   1.00
C840   C     0.53303   0.18226   0.95244   0.00000  Uiso   1.00
C841   C     0.46638   0.15064   0.54736   0.00000  Uiso   1.00
C842   C     0.42517   0.14349   0.97941   0.00000  Uiso   1.00
C843   C     0.42915   0.13959   0.52566   0.00000  Uiso   1.00
C844   C     0.57387   0.19046   0.52047   0.00000  Uiso   1.00
C845   C     0.43004   0.12394   0.88119   0.00000  Uiso   1.00
C846   C     0.56772   0.21224   0.61777   0.00000  Uiso   1.00
C847   C     0.38206   0.14293   0.96097   0.00000  Uiso   1.00
C848   C     0.61670   0.19222   0.53960   0.00000  Uiso   1.00
C849   C     0.54036   0.04805   0.82080   0.00000  Uiso   1.00
C850   C     0.45905   0.28527   0.67960   0.00000  Uiso   1.00
C851   C     0.45884   0.04738   0.67979   0.00000  Uiso   1.00
C852   C     0.54056   0.28599   0.82062   0.00000  Uiso   1.00
C853   C     0.57018   0.19353   0.97416   0.00000  Uiso   1.00
C854   C     0.35469   0.12585   0.75114   0.00000  Uiso   1.00
C855   C     0.64542   0.20740   0.75271   0.00000  Uiso   1.00
C856   C     0.64544   0.12583   0.75096   0.00000  Uiso   1.00
C857   C     0.35466   0.20743   0.75264   0.00000  Uiso   1.00
C858   C     0.62417   0.16661   0.75165   0.00000  Uiso   1.00
H859   H     0.55762   0.19597   0.88773   0.00000  Uiso   1.00
H860   H     0.61155   0.21590   0.66607   0.00000  Uiso   1.00
H861   H     0.65805   0.11554   0.96263   0.00000  Uiso   1.00
H862   H     0.65956   0.16436   0.58076   0.00000  Uiso   1.00
H863   H     0.59085   0.08238   0.84206   0.00000  Uiso   1.00
H864   H     0.40815   0.25124   0.65901   0.00000  Uiso   1.00
H865   H     0.40690   0.07942   0.65912   0.00000  Uiso   1.00
H866   H     0.59220   0.25391   0.84206   0.00000  Uiso   1.00
H867   H     0.44225   0.13633   0.61222   0.00000  Uiso   1.00
H868   H     0.40214   0.13086   0.54532   0.00000  Uiso   1.00
H869   H     0.59726   0.20219   0.95457   0.00000  Uiso   1.00
H870   H     0.37076   0.09400   0.75100   0.00000  Uiso   1.00
H871   H     0.62938   0.23926   0.75273   0.00000  Uiso   1.00
H872   H     0.62941   0.09398   0.74985   0.00000  Uiso   1.00
H873   H     0.37071   0.23928   0.75345   0.00000  Uiso   1.00
H874   H     0.39817   0.06612   0.87465   0.00000  Uiso   1.00
N875   N     0.50000   0.28573   0.75000   0.00000  Uiso   1.00
N876   N     0.50000   0.04760   0.75000   0.00000  Uiso   1.00
O877   O     0.43892   0.20487   0.74999   0.00000  Uiso   1.00
O878   O     0.42040   0.08038   0.89440   0.00000  Uiso   1.00
O879   O     0.57340   0.25109   0.60669   0.00000  Uiso   1.00
O880   O     0.59056   0.19392   0.65319   0.00000  Uiso   1.00
O881   O     0.37105   0.17110   0.93372   0.00000  Uiso   1.00
O882   O     0.35333   0.11182   0.97682   0.00000  Uiso   1.00
O883   O     0.64128   0.22050   0.52672   0.00000  Uiso   1.00
O884   O     0.62956   0.16010   0.57071   0.00000  Uiso   1.00
O885   O     0.52440   0.04941   0.85778   0.00000  Uiso   1.00
O886   O     0.57943   0.06708   0.81414   0.00000  Uiso   1.00
O887   O     0.47463   0.28371   0.64244   0.00000  Uiso   1.00
O888   O     0.56108   0.12846   0.75000   0.00000  Uiso   1.00
O889   O     0.41992   0.26655   0.68676   0.00000  Uiso   1.00
O890   O     0.47448   0.04907   0.64270   0.00000  Uiso   1.00
O891   O     0.41926   0.06510   0.68694   0.00000  Uiso   1.00
O892   O     0.52448   0.28436   0.85750   0.00000  Uiso   1.00
O893   O     0.58017   0.26815   0.81404   0.00000  Uiso   1.00
O894   O     0.56108   0.20487   0.75000   0.00000  Uiso   1.00
O895   O     0.43892   0.12846   0.74999   0.00000  Uiso   1.00
O896   O     0.49999   0.20489   0.68392   0.00000  Uiso   1.00
O897   O     0.50001   0.12844   0.81607   0.00000  Uiso   1.00
O898   O     0.50001   0.20489   0.81607   0.00000  Uiso   1.00
O899   O     0.49999   0.12844   0.68392   0.00000  Uiso   1.00
O900   O     0.41221   0.14061   0.84900   0.00000  Uiso   1.00
Zn901  Zn    0.50000   0.21771   0.75000   0.00000  Uiso   1.00
Zn902  Zn    0.50000   0.11563   0.75000   0.00000  Uiso   1.00
C903   C     0.75342   0.16668   0.75009   0.00000  Uiso   1.00
C904   C     0.70923   0.16666   0.75127   0.00000  Uiso   1.00
C905   C     0.85249   0.02406   0.78384   0.00000  Uiso   1.00
C906   C     0.81404   0.30927   0.71625   0.00000  Uiso   1.00
C907   C     0.81405   0.02374   0.71627   0.00000  Uiso   1.00
C908   C     0.85247   0.30960   0.78383   0.00000  Uiso   1.00
C909   C     0.83448   0.16658   0.66368   0.00000  Uiso   1.00
C910   C     0.83207   0.16677   0.83625   0.00000  Uiso   1.00
C911   C     0.86441   0.18406   0.90645   0.00000  Uiso   1.00
C912   C     0.80189   0.14867   0.59342   0.00000  Uiso   1.00
C913   C     0.82993   0.16728   0.88393   0.00000  Uiso   1.00
C914   C     0.91326   0.16665   0.75074   0.00000  Uiso   1.00
C915   C     0.83620   0.16613   0.61589   0.00000  Uiso   1.00
C916   C     0.79534   0.14989   0.90658   0.00000  Uiso   1.00
C917   C     0.87016   0.18446   0.59298   0.00000  Uiso   1.00
C918   C     0.79447   0.15348   0.95378   0.00000  Uiso   1.00
C919   C     0.87125   0.18021   0.54591   0.00000  Uiso   1.00
C920   C     0.83166   0.16717   0.97649   0.00000  Uiso   1.00
C921   C     0.83427   0.16597   0.52324   0.00000  Uiso   1.00
C922   C     0.86637   0.18226   0.95244   0.00000  Uiso   1.00
C923   C     0.79971   0.15064   0.54736   0.00000  Uiso   1.00
C924   C     0.75851   0.14349   0.97941   0.00000  Uiso   1.00
C925   C     0.76248   0.13959   0.52566   0.00000  Uiso   1.00
C926   C     0.90721   0.19046   0.52047   0.00000  Uiso   1.00
C927   C     0.76337   0.12394   0.88119   0.00000  Uiso   1.00
C928   C     0.90106   0.21224   0.61777   0.00000  Uiso   1.00
C929   C     0.71539   0.14293   0.96097   0.00000  Uiso   1.00
C930   C     0.95004   0.19222   0.53960   0.00000  Uiso   1.00
C931   C     0.87369   0.04805   0.82080   0.00000  Uiso   1.00
C932   C     0.79238   0.28527   0.67960   0.00000  Uiso   1.00
C933   C     0.79217   0.04738   0.67979   0.00000  Uiso   1.00
C934   C     0.87389   0.28599   0.82062   0.00000  Uiso   1.00
C935   C     0.90351   0.19353   0.97416   0.00000  Uiso   1.00
C936   C     0.68802   0.12585   0.75114   0.00000  Uiso   1.00
C937   C     0.97876   0.20740   0.75271   0.00000  Uiso   1.00
C938   C     0.97877   0.12583   0.75096   0.00000  Uiso   1.00
C939   C     0.68799   0.20743   0.75264   0.00000  Uiso   1.00
C940   C     0.95751   0.16661   0.75165   0.00000  Uiso   1.00
H941   H     0.89095   0.19597   0.88773   0.00000  Uiso   1.00
H942   H     0.94488   0.21590   0.66607   0.00000  Uiso   1.00
H943   H     0.99138   0.11554   0.96263   0.00000  Uiso   1.00
H944   H     0.99289   0.16436   0.58076   0.00000  Uiso   1.00
H945   H     0.92418   0.08238   0.84206   0.00000  Uiso   1.00
H946   H     0.74148   0.25124   0.65901   0.00000  Uiso   1.00
H947   H     0.74024   0.07942   0.65912   0.00000  Uiso   1.00
H948   H     0.92554   0.25391   0.84206   0.00000  Uiso   1.00
H949   H     0.77558   0.13633   0.61222   0.00000  Uiso   1.00
H950   H     0.73547   0.13086   0.54532   0.00000  Uiso   1.00
H951   H     0.93059   0.20219   0.95457   0.00000  Uiso   1.00
H952   H     0.70410   0.09400   0.75100   0.00000  Uiso   1.00
H953   H     0.96272   0.23926   0.75273   0.00000  Uiso   1.00
H954   H     0.96274   0.09398   0.74985   0.00000  Uiso   1.00
H955   H     0.70404   0.23928   0.75345   0.00000  Uiso   1.00
H956   H     0.73150   0.06612   0.87465   0.00000  Uiso   1.00
N957   N     0.83333   0.28573   0.75000   0.00000  Uiso   1.00
N958   N     0.83333   0.04760   0.75000   0.00000  Uiso   1.00
O959   O     0.77226   0.20487   0.74999   0.00000  Uiso   1.00
O960   O     0.75373   0.08038   0.89440   0.00000  Uiso   1.00
O961   O     0.90673   0.25109   0.60669   0.00000  Uiso   1.00
O962   O     0.92390   0.19392   0.65319   0.00000  Uiso   1.00
O963   O     0.70438   0.17110   0.93372   0.00000  Uiso   1.00
O964   O     0.68666   0.11182   0.97682   0.00000  Uiso   1.00
O965   O     0.97461   0.22050   0.52672   0.00000  Uiso   1.00
O966   O     0.96289   0.16010   0.57071   0.00000  Uiso   1.00
O967   O     0.85774   0.04941   0.85778   0.00000  Uiso   1.00
O968   O     0.91276   0.06708   0.81414   0.00000  Uiso   1.00
O969   O     0.80796   0.28371   0.64244   0.00000  Uiso   1.00
O970   O     0.89441   0.12846   0.75000   0.00000  Uiso   1.00
O971   O     0.75326   0.26655   0.68676   0.00000  Uiso   1.00
O972   O     0.80781   0.04907   0.64270   0.00000  Uiso   1.00
O973   O     0.75259   0.06510   0.68694   0.00000  Uiso   1.00
O974   O     0.85781   0.28436   0.85750   0.00000  Uiso   1.00
O975   O     0.91350   0.26815   0.81404   0.00000  Uiso   1.00
O976   O     0.89441   0.20487   0.75000   0.00000  Uiso   1.00
O977   O     0.77226   0.12846   0.74999   0.00000  Uiso   1.00
O978   O     0.83333   0.20489   0.68392   0.00000  Uiso   1.00
O979   O     0.83334   0.12844   0.81607   0.00000  Uiso   1.00
O980   O     0.83334   0.20489   0.81607   0.00000  Uiso   1.00
O981   O     0.83333   0.12844   0.68392   0.00000  Uiso   1.00
O982   O     0.74554   0.14061   0.84900   0.00000  Uiso   1.00
Zn983  Zn    0.83333   0.21771   0.75000   0.00000  Uiso   1.00
Zn984  Zn    0.83333   0.11563   0.75000   0.00000  Uiso   1.00
C985   C     0.08676   0.50001   0.75009   0.00000  Uiso   1.00
C986   C     0.04256   0.49999   0.75127   0.00000  Uiso   1.00
C987   C     0.18582   0.35740   0.78384   0.00000  Uiso   1.00
C988   C     0.14738   0.64260   0.71625   0.00000  Uiso   1.00
C989   C     0.14738   0.35708   0.71627   0.00000  Uiso   1.00
C990   C     0.18581   0.64293   0.78383   0.00000  Uiso   1.00
C991   C     0.16781   0.49991   0.66368   0.00000  Uiso   1.00
C992   C     0.16541   0.50010   0.83625   0.00000  Uiso   1.00
C993   C     0.19775   0.51739   0.90645   0.00000  Uiso   1.00
C994   C     0.13522   0.48201   0.59342   0.00000  Uiso   1.00
C995   C     0.16326   0.50062   0.88393   0.00000  Uiso   1.00
C996   C     0.24659   0.49998   0.75074   0.00000  Uiso   1.00
C997   C     0.16953   0.49946   0.61589   0.00000  Uiso   1.00
C998   C     0.12868   0.48322   0.90658   0.00000  Uiso   1.00
C999   C     0.20349   0.51779   0.59298   0.00000  Uiso   1.00
C1000  C     0.12780   0.48682   0.95378   0.00000  Uiso   1.00
C1001  C     0.20458   0.51354   0.54591   0.00000  Uiso   1.00
C1002  C     0.16499   0.50050   0.97649   0.00000  Uiso   1.00
C1003  C     0.16760   0.49931   0.52324   0.00000  Uiso   1.00
C1004  C     0.19970   0.51560   0.95244   0.00000  Uiso   1.00
C1005  C     0.13304   0.48398   0.54736   0.00000  Uiso   1.00
C1006  C     0.09184   0.47682   0.97941   0.00000  Uiso   1.00
C1007  C     0.09582   0.47292   0.52566   0.00000  Uiso   1.00
C1008  C     0.24054   0.52380   0.52047   0.00000  Uiso   1.00
C1009  C     0.09671   0.45727   0.88119   0.00000  Uiso   1.00
C1010  C     0.23439   0.54557   0.61777   0.00000  Uiso   1.00
C1011  C     0.04873   0.47626   0.96097   0.00000  Uiso   1.00
C1012  C     0.28337   0.52556   0.53960   0.00000  Uiso   1.00
C1013  C     0.20703   0.38138   0.82080   0.00000  Uiso   1.00
C1014  C     0.12571   0.61860   0.67960   0.00000  Uiso   1.00
C1015  C     0.12551   0.38071   0.67979   0.00000  Uiso   1.00
C1016  C     0.20722   0.61932   0.82062   0.00000  Uiso   1.00
C1017  C     0.23684   0.52686   0.97416   0.00000  Uiso   1.00
C1018  C     0.02136   0.45918   0.75114   0.00000  Uiso   1.00
C1019  C     0.31209   0.54073   0.75271   0.00000  Uiso   1.00
C1020  C     0.31210   0.45916   0.75096   0.00000  Uiso   1.00
C1021  C     0.02133   0.54076   0.75264   0.00000  Uiso   1.00
C1022  C     0.29084   0.49995   0.75165   0.00000  Uiso   1.00
H1023  H     0.22429   0.52930   0.88773   0.00000  Uiso   1.00
H1024  H     0.27822   0.54924   0.66607   0.00000  Uiso   1.00
H1025  H     0.32472   0.44887   0.96263   0.00000  Uiso   1.00
H1026  H     0.32623   0.49769   0.58076   0.00000  Uiso   1.00
H1027  H     0.25752   0.41571   0.84206   0.00000  Uiso   1.00
H1028  H     0.07481   0.58457   0.65901   0.00000  Uiso   1.00
H1029  H     0.07357   0.41276   0.65912   0.00000  Uiso   1.00
H1030  H     0.25887   0.58724   0.84206   0.00000  Uiso   1.00
H1031  H     0.10891   0.46967   0.61222   0.00000  Uiso   1.00
H1032  H     0.06880   0.46419   0.54532   0.00000  Uiso   1.00
H1033  H     0.26393   0.53552   0.95457   0.00000  Uiso   1.00
H1034  H     0.03743   0.42733   0.75100   0.00000  Uiso   1.00
H1035  H     0.29605   0.57259   0.75273   0.00000  Uiso   1.00
H1036  H     0.29607   0.42732   0.74985   0.00000  Uiso   1.00
H1037  H     0.03738   0.57261   0.75345   0.00000  Uiso   1.00
H1038  H     0.06484   0.39946   0.87465   0.00000  Uiso   1.00
N1039  N     0.16667   0.61907   0.75000   0.00000  Uiso   1.00
N1040  N     0.16667   0.38093   0.75000   0.00000  Uiso   1.00
O1041  O     0.10559   0.53821   0.74999   0.00000  Uiso   1.00
O1042  O     0.08706   0.41371   0.89440   0.00000  Uiso   1.00
O1043  O     0.24006   0.58443   0.60669   0.00000  Uiso   1.00
O1044  O     0.25723   0.52725   0.65319   0.00000  Uiso   1.00
O1045  O     0.03771   0.50443   0.93372   0.00000  Uiso   1.00
O1046  O     0.01999   0.44516   0.97682   0.00000  Uiso   1.00
O1047  O     0.30794   0.55383   0.52672   0.00000  Uiso   1.00
O1048  O     0.29623   0.49343   0.57071   0.00000  Uiso   1.00
O1049  O     0.19107   0.38275   0.85778   0.00000  Uiso   1.00
O1050  O     0.24610   0.40042   0.81414   0.00000  Uiso   1.00
O1051  O     0.14129   0.61705   0.64244   0.00000  Uiso   1.00
O1052  O     0.22774   0.46179   0.75000   0.00000  Uiso   1.00
O1053  O     0.08659   0.59988   0.68676   0.00000  Uiso   1.00
O1054  O     0.14115   0.38241   0.64270   0.00000  Uiso   1.00
O1055  O     0.08593   0.39844   0.68694   0.00000  Uiso   1.00
O1056  O     0.19114   0.61769   0.85750   0.00000  Uiso   1.00
O1057  O     0.24684   0.60148   0.81404   0.00000  Uiso   1.00
O1058  O     0.22774   0.53821   0.75000   0.00000  Uiso   1.00
O1059  O     0.10559   0.46179   0.74999   0.00000  Uiso   1.00
O1060  O     0.16666   0.53823   0.68392   0.00000  Uiso   1.00
O1061  O     0.16667   0.46177   0.81607   0.00000  Uiso   1.00
O1062  O     0.16667   0.53823   0.81607   0.00000  Uiso   1.00
O1063  O     0.16666   0.46177   0.68392   0.00000  Uiso   1.00
O1064  O     0.07887   0.47394   0.84900   0.00000  Uiso   1.00
Zn1065 Zn    0.16667   0.55104   0.75000   0.00000  Uiso   1.00
Zn1066 Zn    0.16667   0.44896   0.75000   0.00000  Uiso   1.00
C1067  C     0.42009   0.50001   0.75009   0.00000  Uiso   1.00
C1068  C     0.37590   0.49999   0.75127   0.00000  Uiso   1.00
C1069  C     0.51915   0.35740   0.78384   0.00000  Uiso   1.00
C1070  C     0.48071   0.64260   0.71625   0.00000  Uiso   1.00
C1071  C     0.48071   0.35708   0.71627   0.00000  Uiso   1.00
C1072  C     0.51914   0.64293   0.78383   0.00000  Uiso   1.00
C1073  C     0.50115   0.49991   0.66368   0.00000  Uiso   1.00
C1074  C     0.49874   0.50010   0.83625   0.00000  Uiso   1.00
C1075  C     0.53108   0.51739   0.90645   0.00000  Uiso   1.00
C1076  C     0.46856   0.48201   0.59342   0.00000  Uiso   1.00
C1077  C     0.49660   0.50062   0.88393   0.00000  Uiso   1.00
C1078  C     0.57992   0.49998   0.75074   0.00000  Uiso   1.00
C1079  C     0.50286   0.49946   0.61589   0.00000  Uiso   1.00
C1080  C     0.46201   0.48322   0.90658   0.00000  Uiso   1.00
C1081  C     0.53683   0.51779   0.59298   0.00000  Uiso   1.00
C1082  C     0.46114   0.48682   0.95378   0.00000  Uiso   1.00
C1083  C     0.53792   0.51354   0.54591   0.00000  Uiso   1.00
C1084  C     0.49833   0.50050   0.97649   0.00000  Uiso   1.00
C1085  C     0.50093   0.49931   0.52324   0.00000  Uiso   1.00
C1086  C     0.53303   0.51560   0.95244   0.00000  Uiso   1.00
C1087  C     0.46638   0.48398   0.54736   0.00000  Uiso   1.00
C1088  C     0.42517   0.47682   0.97941   0.00000  Uiso   1.00
C1089  C     0.42915   0.47292   0.52566   0.00000  Uiso   1.00
C1090  C     0.57387   0.52380   0.52047   0.00000  Uiso   1.00
C1091  C     0.43004   0.45727   0.88119   0.00000  Uiso   1.00
C1092  C     0.56772   0.54557   0.61777   0.00000  Uiso   1.00
C1093  C     0.38206   0.47626   0.96097   0.00000  Uiso   1.00
C1094  C     0.61670   0.52556   0.53960   0.00000  Uiso   1.00
C1095  C     0.54036   0.38138   0.82080   0.00000  Uiso   1.00
C1096  C     0.45905   0.61860   0.67960   0.00000  Uiso   1.00
C1097  C     0.45884   0.38071   0.67979   0.00000  Uiso   1.00
C1098  C     0.54056   0.61932   0.82062   0.00000  Uiso   1.00
C1099  C     0.57018   0.52686   0.97416   0.00000  Uiso   1.00
C1100  C     0.35469   0.45918   0.75114   0.00000  Uiso   1.00
C1101  C     0.64542   0.54073   0.75271   0.00000  Uiso   1.00
C1102  C     0.64544   0.45916   0.75096   0.00000  Uiso   1.00
C1103  C     0.35466   0.54076   0.75264   0.00000  Uiso   1.00
C1104  C     0.62417   0.49995   0.75165   0.00000  Uiso   1.00
H1105  H     0.55762   0.52930   0.88773   0.00000  Uiso   1.00
H1106  H     0.61155   0.54924   0.66607   0.00000  Uiso   1.00
H1107  H     0.65805   0.44887   0.96263   0.00000  Uiso   1.00
H1108  H     0.65956   0.49769   0.58076   0.00000  Uiso   1.00
H1109  H     0.59085   0.41571   0.84206   0.00000  Uiso   1.00
H1110  H     0.40815   0.58457   0.65901   0.00000  Uiso   1.00
H1111  H     0.40690   0.41276   0.65912   0.00000  Uiso   1.00
H1112  H     0.59220   0.58724   0.84206   0.00000  Uiso   1.00
H1113  H     0.44225   0.46967   0.61222   0.00000  Uiso   1.00
H1114  H     0.40214   0.46419   0.54532   0.00000  Uiso   1.00
H1115  H     0.59726   0.53552   0.95457   0.00000  Uiso   1.00
H1116  H     0.37076   0.42733   0.75100   0.00000  Uiso   1.00
H1117  H     0.62938   0.57259   0.75273   0.00000  Uiso   1.00
H1118  H     0.62941   0.42732   0.74985   0.00000  Uiso   1.00
H1119  H     0.37071   0.57261   0.75345   0.00000  Uiso   1.00
H1120  H     0.39817   0.39946   0.87465   0.00000  Uiso   1.00
N1121  N     0.50000   0.61907   0.75000   0.00000  Uiso   1.00
N1122  N     0.50000   0.38093   0.75000   0.00000  Uiso   1.00
O1123  O     0.43892   0.53821   0.74999   0.00000  Uiso   1.00
O1124  O     0.42040   0.41371   0.89440   0.00000  Uiso   1.00
O1125  O     0.57340   0.58443   0.60669   0.00000  Uiso   1.00
O1126  O     0.59056   0.52725   0.65319   0.00000  Uiso   1.00
O1127  O     0.37105   0.50443   0.93372   0.00000  Uiso   1.00
O1128  O     0.35333   0.44516   0.97682   0.00000  Uiso   1.00
O1129  O     0.64128   0.55383   0.52672   0.00000  Uiso   1.00
O1130  O     0.62956   0.49343   0.57071   0.00000  Uiso   1.00
O1131  O     0.52440   0.38275   0.85778   0.00000  Uiso   1.00
O1132  O     0.57943   0.40042   0.81414   0.00000  Uiso   1.00
O1133  O     0.47463   0.61705   0.64244   0.00000  Uiso   1.00
O1134  O     0.56108   0.46179   0.75000   0.00000  Uiso   1.00
O1135  O     0.41992   0.59988   0.68676   0.00000  Uiso   1.00
O1136  O     0.47448   0.38241   0.64270   0.00000  Uiso   1.00
O1137  O     0.41926   0.39844   0.68694   0.00000  Uiso   1.00
O1138  O     0.52448   0.61769   0.85750   0.00000  Uiso   1.00
O1139  O     0.58017   0.60148   0.81404   0.00000  Uiso   1.00
O1140  O     0.56108   0.53821   0.75000   0.00000  Uiso   1.00
O1141  O     0.43892   0.46179   0.74999   0.00000  Uiso   1.00
O1142  O     0.49999   0.53823   0.68392   0.00000  Uiso   1.00
O1143  O     0.50001   0.46177   0.81607   0.00000  Uiso   1.00
O1144  O     0.50001   0.53823   0.81607   0.00000  Uiso   1.00
O1145  O     0.49999   0.46177   0.68392   0.00000  Uiso   1.00
O1146  O     0.41221   0.47394   0.84900   0.00000  Uiso   1.00
Zn1147 Zn    0.50000   0.55104   0.75000   0.00000  Uiso   1.00
Zn1148 Zn    0.50000   0.44896   0.75000   0.00000  Uiso   1.00
C1149  C     0.75342   0.50001   0.75009   0.00000  Uiso   1.00
C1150  C     0.70923   0.49999   0.75127   0.00000  Uiso   1.00
C1151  C     0.85249   0.35740   0.78384   0.00000  Uiso   1.00
C1152  C     0.81404   0.64260   0.71625   0.00000  Uiso   1.00
C1153  C     0.81405   0.35708   0.71627   0.00000  Uiso   1.00
C1154  C     0.85247   0.64293   0.78383   0.00000  Uiso   1.00
C1155  C     0.83448   0.49991   0.66368   0.00000  Uiso   1.00
C1156  C     0.83207   0.50010   0.83625   0.00000  Uiso   1.00
C1157  C     0.86441   0.51739   0.90645   0.00000  Uiso   1.00
C1158  C     0.80189   0.48201   0.59342   0.00000  Uiso   1.00
C1159  C     0.82993   0.50062   0.88393   0.00000  Uiso   1.00
C1160  C     0.91326   0.49998   0.75074   0.00000  Uiso   1.00
C1161  C     0.83620   0.49946   0.61589   0.00000  Uiso   1.00
C1162  C     0.79534   0.48322   0.90658   0.00000  Uiso   1.00
C1163  C     0.87016   0.51779   0.59298   0.00000  Uiso   1.00
C1164  C     0.79447   0.48682   0.95378   0.00000  Uiso   1.00
C1165  C     0.87125   0.51354   0.54591   0.00000  Uiso   1.00
C1166  C     0.83166   0.50050   0.97649   0.00000  Uiso   1.00
C1167  C     0.83427   0.49931   0.52324   0.00000  Uiso   1.00
C1168  C     0.86637   0.51560   0.95244   0.00000  Uiso   1.00
C1169  C     0.79971   0.48398   0.54736   0.00000  Uiso   1.00
C1170  C     0.75851   0.47682   0.97941   0.00000  Uiso   1.00
C1171  C     0.76248   0.47292   0.52566   0.00000  Uiso   1.00
C1172  C     0.90721   0.52380   0.52047   0.00000  Uiso   1.00
C1173  C     0.76337   0.45727   0.88119   0.00000  Uiso   1.00
C1174  C     0.90106   0.54557   0.61777   0.00000  Uiso   1.00
C1175  C     0.71539   0.47626   0.96097   0.00000  Uiso   1.00
C1176  C     0.95004   0.52556   0.53960   0.00000  Uiso   1.00
C1177  C     0.87369   0.38138   0.82080   0.00000  Uiso   1.00
C1178  C     0.79238   0.61860   0.67960   0.00000  Uiso   1.00
C1179  C     0.79217   0.38071   0.67979   0.00000  Uiso   1.00
C1180  C     0.87389   0.61932   0.82062   0.00000  Uiso   1.00
C1181  C     0.90351   0.52686   0.97416   0.00000  Uiso   1.00
C1182  C     0.68802   0.45918   0.75114   0.00000  Uiso   1.00
C1183  C     0.97876   0.54073   0.75271   0.00000  Uiso   1.00
C1184  C     0.97877   0.45916   0.75096   0.00000  Uiso   1.00
C1185  C     0.68799   0.54076   0.75264   0.00000  Uiso   1.00
C1186  C     0.95751   0.49995   0.75165   0.00000  Uiso   1.00
H1187  H     0.89095   0.52930   0.88773   0.00000  Uiso   1.00
H1188  H     0.94488   0.54924   0.66607   0.00000  Uiso   1.00
H1189  H     0.99138   0.44887   0.96263   0.00000  Uiso   1.00
H1190  H     0.99289   0.49769   0.58076   0.00000  Uiso   1.00
H1191  H     0.92418   0.41571   0.84206   0.00000  Uiso   1.00
H1192  H     0.74148   0.58457   0.65901   0.00000  Uiso   1.00
H1193  H     0.74024   0.41276   0.65912   0.00000  Uiso   1.00
H1194  H     0.92554   0.58724   0.84206   0.00000  Uiso   1.00
H1195  H     0.77558   0.46967   0.61222   0.00000  Uiso   1.00
H1196  H     0.73547   0.46419   0.54532   0.00000  Uiso   1.00
H1197  H     0.93059   0.53552   0.95457   0.00000  Uiso   1.00
H1198  H     0.70410   0.42733   0.75100   0.00000  Uiso   1.00
H1199  H     0.96272   0.57259   0.75273   0.00000  Uiso   1.00
H1200  H     0.96274   0.42732   0.74985   0.00000  Uiso   1.00
H1201  H     0.70404   0.57261   0.75345   0.00000  Uiso   1.00
H1202  H     0.73150   0.39946   0.87465   0.00000  Uiso   1.00
N1203  N     0.83333   0.61907   0.75000   0.00000  Uiso   1.00
N1204  N     0.83333   0.38093   0.75000   0.00000  Uiso   1.00
O1205  O     0.77226   0.53821   0.74999   0.00000  Uiso   1.00
O1206  O     0.75373   0.41371   0.89440   0.00000  Uiso   1.00
O1207  O     0.90673   0.58443   0.60669   0.00000  Uiso   1.00
O1208  O     0.92390   0.52725   0.65319   0.00000  Uiso   1.00
O1209  O     0.70438   0.50443   0.93372   0.00000  Uiso   1.00
O1210  O     0.68666   0.44516   0.97682   0.00000  Uiso   1.00
O1211  O     0.97461   0.55383   0.52672   0.00000  Uiso   1.00
O1212  O     0.96289   0.49343   0.57071   0.00000  Uiso   1.00
O1213  O     0.85774   0.38275   0.85778   0.00000  Uiso   1.00
O1214  O     0.91276   0.40042   0.81414   0.00000  Uiso   1.00
O1215  O     0.80796   0.61705   0.64244   0.00000  Uiso   1.00
O1216  O     0.89441   0.46179   0.75000   0.00000  Uiso   1.00
O1217  O     0.75326   0.59988   0.68676   0.00000  Uiso   1.00
O1218  O     0.80781   0.38241   0.64270   0.00000  Uiso   1.00
O1219  O     0.75259   0.39844   0.68694   0.00000  Uiso   1.00
O1220  O     0.85781   0.61769   0.85750   0.00000  Uiso   1.00
O1221  O     0.91350   0.60148   0.81404   0.00000  Uiso   1.00
O1222  O     0.89441   0.53821   0.75000   0.00000  Uiso   1.00
O1223  O     0.77226   0.46179   0.74999   0.00000  Uiso   1.00
O1224  O     0.83333   0.53823   0.68392   0.00000  Uiso   1.00
O1225  O     0.83334   0.46177   0.81607   0.00000  Uiso   1.00
O1226  O     0.83334   0.53823   0.81607   0.00000  Uiso   1.00
O1227  O     0.83333   0.46177   0.68392   0.00000  Uiso   1.00
O1228  O     0.74554   0.47394   0.84900   0.00000  Uiso   1.00
Zn1229 Zn    0.83333   0.55104   0.75000   0.00000  Uiso   1.00
Zn1230 Zn    0.83333   0.44896   0.75000   0.00000  Uiso   1.00
C1231  C     0.08676   0.83334   0.75009   0.00000  Uiso   1.00
C1232  C     0.04256   0.83332   0.75127   0.00000  Uiso   1.00
C1233  C     0.18582   0.69073   0.78384   0.00000  Uiso   1.00
C1234  C     0.14738   0.97594   0.71625   0.00000  Uiso   1.00
C1235  C     0.14738   0.69041   0.71627   0.00000  Uiso   1.00
C1236  C     0.18581   0.97626   0.78383   0.00000  Uiso   1.00
C1237  C     0.16781   0.83325   0.66368   0.00000  Uiso   1.00
C1238  C     0.16541   0.83344   0.83625   0.00000  Uiso   1.00
C1239  C     0.19775   0.85072   0.90645   0.00000  Uiso   1.00
C1240  C     0.13522   0.81534   0.59342   0.00000  Uiso   1.00
C1241  C     0.16326   0.83395   0.88393   0.00000  Uiso   1.00
C1242  C     0.24659   0.83331   0.75074   0.00000  Uiso   1.00
C1243  C     0.16953   0.83280   0.61589   0.00000  Uiso   1.00
C1244  C     0.12868   0.81655   0.90658   0.00000  Uiso   1.00
C1245  C     0.20349   0.85112   0.59298   0.00000  Uiso   1.00
C1246  C     0.12780   0.82015   0.95378   0.00000  Uiso   1.00
C1247  C     0.20458   0.84688   0.54591   0.00000  Uiso   1.00
C1248  C     0.16499   0.83384   0.97649   0.00000  Uiso   1.00
C1249  C     0.16760   0.83264   0.52324   0.00000  Uiso   1.00
C1250  C     0.19970   0.84893   0.95244   0.00000  Uiso   1.00
C1251  C     0.13304   0.81731   0.54736   0.00000  Uiso   1.00
C1252  C     0.09184   0.81015   0.97941   0.00000  Uiso   1.00
C1253  C     0.09582   0.80625   0.52566   0.00000  Uiso   1.00
C1254  C     0.24054   0.85713   0.52047   0.00000  Uiso   1.00
C1255  C     0.09671   0.79061   0.88119   0.00000  Uiso   1.00
C1256  C     0.23439   0.87890   0.61777   0.00000  Uiso   1.00
C1257  C     0.04873   0.80960   0.96097   0.00000  Uiso   1.00
C1258  C     0.28337   0.85889   0.53960   0.00000  Uiso   1.00
C1259  C     0.20703   0.71472   0.82080   0.00000  Uiso   1.00
C1260  C     0.12571   0.95193   0.67960   0.00000  Uiso   1.00
C1261  C     0.12551   0.71404   0.67979   0.00000  Uiso   1.00
C1262  C     0.20722   0.95265   0.82062   0.00000  Uiso   1.00
C1263  C     0.23684   0.86019   0.97416   0.00000  Uiso   1.00
C1264  C     0.02136   0.79251   0.75114   0.00000  Uiso   1.00
C1265  C     0.31209   0.87407   0.75271   0.00000  Uiso   1.00
C1266  C     0.31210   0.79250   0.75096   0.00000  Uiso   1.00
C1267  C     0.02133   0.87409   0.75264   0.00000  Uiso   1.00
C1268  C     0.29084   0.83328   0.75165   0.00000  Uiso   1.00
H1269  H     0.22429   0.86263   0.88773   0.00000  Uiso   1.00
H1270  H     0.27822   0.88257   0.66607   0.00000  Uiso   1.00
H1271  H     0.32472   0.78221   0.96263   0.00000  Uiso   1.00
H1272  H     0.32623   0.83103   0.58076   0.00000  Uiso   1.00
H1273  H     0.25752   0.74904   0.84206   0.00000  Uiso   1.00
H1274  H     0.07481   0.91791   0.65901   0.00000  Uiso   1.00
H1275  H     0.07357   0.74609   0.65912   0.00000  Uiso   1.00
H1276  H     0.25887   0.92057   0.84206   0.00000  Uiso   1.00
H1277  H     0.10891   0.80300   0.61222   0.00000  Uiso   1.00
H1278  H     0.06880   0.79753   0.54532   0.00000  Uiso   1.00
H1279  H     0.26393   0.86886   0.95457   0.00000  Uiso   1.00
H1280  H     0.03743   0.76066   0.75100   0.00000  Uiso   1.00
H1281  H     0.29605   0.90593   0.75273   0.00000  Uiso   1.00
H1282  H     0.29607   0.76065   0.74985   0.00000  Uiso   1.00
H1283  H     0.03738   0.90595   0.75345   0.00000  Uiso   1.00
H1284  H     0.06484   0.73279   0.87465   0.00000  Uiso   1.00
N1285  N     0.16667   0.95240   0.75000   0.00000  Uiso   1.00
N1286  N     0.16667   0.71427   0.75000   0.00000  Uiso   1.00
O1287  O     0.10559   0.87154   0.74999   0.00000  Uiso   1.00
O1288  O     0.08706   0.74705   0.89440   0.00000  Uiso   1.00
O1289  O     0.24006   0.91776   0.60669   0.00000  Uiso   1.00
O1290  O     0.25723   0.86059   0.65319   0.00000  Uiso   1.00
O1291  O     0.03771   0.83776   0.93372   0.00000  Uiso   1.00
O1292  O     0.01999   0.77849   0.97682   0.00000  Uiso   1.00
O1293  O     0.30794   0.88717   0.52672   0.00000  Uiso   1.00
O1294  O     0.29623   0.82676   0.57071   0.00000  Uiso   1.00
O1295  O     0.19107   0.71608   0.85778   0.00000  Uiso   1.00
O1296  O     0.24610   0.73375   0.81414   0.00000  Uiso   1.00
O1297  O     0.14129   0.95038   0.64244   0.00000  Uiso   1.00
O1298  O     0.22774   0.79513   0.75000   0.00000  Uiso   1.00
O1299  O     0.08659   0.93321   0.68676   0.00000  Uiso   1.00
O1300  O     0.14115   0.71574   0.64270   0.00000  Uiso   1.00
O1301  O     0.08593   0.73177   0.68694   0.00000  Uiso   1.00
O1302  O     0.19114   0.95102   0.85750   0.00000  Uiso   1.00
O1303  O     0.24684   0.93482   0.81404   0.00000  Uiso   1.00
O1304  O     0.22774   0.87154   0.75000   0.00000  Uiso   1.00
O1305  O     0.10559   0.79513   0.74999   0.00000  Uiso   1.00
O1306  O     0.16666   0.87156   0.68392   0.00000  Uiso   1.00
O1307  O     0.16667   0.79511   0.81607   0.00000  Uiso   1.00
O1308  O     0.16667   0.87156   0.81607   0.00000  Uiso   1.00
O1309  O     0.16666   0.79511   0.68392   0.00000  Uiso   1.00
O1310  O     0.07887   0.80727   0.84900   0.00000  Uiso   1.00
Zn1311 Zn    0.16667   0.88437   0.75000   0.00000  Uiso   1.00
Zn1312 Zn    0.16667   0.78229   0.75000   0.00000  Uiso   1.00
C1313  C     0.42009   0.83334   0.75009   0.00000  Uiso   1.00
C1314  C     0.37590   0.83332   0.75127   0.00000  Uiso   1.00
C1315  C     0.51915   0.69073   0.78384   0.00000  Uiso   1.00
C1316  C     0.48071   0.97594   0.71625   0.00000  Uiso   1.00
C1317  C     0.48071   0.69041   0.71627   0.00000  Uiso   1.00
C1318  C     0.51914   0.97626   0.78383   0.00000  Uiso   1.00
C1319  C     0.50115   0.83325   0.66368   0.00000  Uiso   1.00
C1320  C     0.49874   0.83344   0.83625   0.00000  Uiso   1.00
C1321  C     0.53108   0.85072   0.90645   0.00000  Uiso   1.00
C1322  C     0.46856   0.81534   0.59342   0.00000  Uiso   1.00
C1323  C     0.49660   0.83395   0.88393   0.00000  Uiso   1.00
C1324  C     0.57992   0.83331   0.75074   0.00000  Uiso   1.00
C1325  C     0.50286   0.83280   0.61589   0.00000  Uiso   1.00
C1326  C     0.46201   0.81655   0.90658   0.00000  Uiso   1.00
C1327  C     0.53683   0.85112   0.59298   0.00000  Uiso   1.00
C1328  C     0.46114   0.82015   0.95378   0.00000  Uiso   1.00
C1329  C     0.53792   0.84688   0.54591   0.00000  Uiso   1.00
C1330  C     0.49833   0.83384   0.97649   0.00000  Uiso   1.00
C1331  C     0.50093   0.83264   0.52324   0.00000  Uiso   1.00
C1332  C     0.53303   0.84893   0.95244   0.00000  Uiso   1.00
C1333  C     0.46638   0.81731   0.54736   0.00000  Uiso   1.00
C1334  C     0.42517   0.81015   0.97941   0.00000  Uiso   1.00
C1335  C     0.42915   0.80625   0.52566   0.00000  Uiso   1.00
C1336  C     0.57387   0.85713   0.52047   0.00000  Uiso   1.00
C1337  C     0.43004   0.79061   0.88119   0.00000  Uiso   1.00
C1338  C     0.56772   0.87890   0.61777   0.00000  Uiso   1.00
C1339  C     0.38206   0.80960   0.96097   0.00000  Uiso   1.00
C1340  C     0.61670   0.85889   0.53960   0.00000  Uiso   1.00
C1341  C     0.54036   0.71472   0.82080   0.00000  Uiso   1.00
C1342  C     0.45905   0.95193   0.67960   0.00000  Uiso   1.00
C1343  C     0.45884   0.71404   0.67979   0.00000  Uiso   1.00
C1344  C     0.54056   0.95265   0.82062   0.00000  Uiso   1.00
C1345  C     0.57018   0.86019   0.97416   0.00000  Uiso   1.00
C1346  C     0.35469   0.79251   0.75114   0.00000  Uiso   1.00
C1347  C     0.64542   0.87407   0.75271   0.00000  Uiso   1.00
C1348  C     0.64544   0.79250   0.75096   0.00000  Uiso   1.00
C1349  C     0.35466   0.87409   0.75264   0.00000  Uiso   1.00
C1350  C     0.62417   0.83328   0.75165   0.00000  Uiso   1.00
H1351  H     0.55762   0.86263   0.88773   0.00000  Uiso   1.00
H1352  H     0.61155   0.88257   0.66607   0.00000  Uiso   1.00
H1353  H     0.65805   0.78221   0.96263   0.00000  Uiso   1.00
H1354  H     0.65956   0.83103   0.58076   0.00000  Uiso   1.00
H1355  H     0.59085   0.74904   0.84206   0.00000  Uiso   1.00
H1356  H     0.40815   0.91791   0.65901   0.00000  Uiso   1.00
H1357  H     0.40690   0.74609   0.65912   0.00000  Uiso   1.00
H1358  H     0.59220   0.92057   0.84206   0.00000  Uiso   1.00
H1359  H     0.44225   0.80300   0.61222   0.00000  Uiso   1.00
H1360  H     0.40214   0.79753   0.54532   0.00000  Uiso   1.00
H1361  H     0.59726   0.86886   0.95457   0.00000  Uiso   1.00
H1362  H     0.37076   0.76066   0.75100   0.00000  Uiso   1.00
H1363  H     0.62938   0.90593   0.75273   0.00000  Uiso   1.00
H1364  H     0.62941   0.76065   0.74985   0.00000  Uiso   1.00
H1365  H     0.37071   0.90595   0.75345   0.00000  Uiso   1.00
H1366  H     0.39817   0.73279   0.87465   0.00000  Uiso   1.00
N1367  N     0.50000   0.95240   0.75000   0.00000  Uiso   1.00
N1368  N     0.50000   0.71427   0.75000   0.00000  Uiso   1.00
O1369  O     0.43892   0.87154   0.74999   0.00000  Uiso   1.00
O1370  O     0.42040   0.74705   0.89440   0.00000  Uiso   1.00
O1371  O     0.57340   0.91776   0.60669   0.00000  Uiso   1.00
O1372  O     0.59056   0.86059   0.65319   0.00000  Uiso   1.00
O1373  O     0.37105   0.83776   0.93372   0.00000  Uiso   1.00
O1374  O     0.35333   0.77849   0.97682   0.00000  Uiso   1.00
O1375  O     0.64128   0.88717   0.52672   0.00000  Uiso   1.00
O1376  O     0.62956   0.82676   0.57071   0.00000  Uiso   1.00
O1377  O     0.52440   0.71608   0.85778   0.00000  Uiso   1.00
O1378  O     0.57943   0.73375   0.81414   0.00000  Uiso   1.00
O1379  O     0.47463   0.95038   0.64244   0.00000  Uiso   1.00
O1380  O     0.56108   0.79513   0.75000   0.00000  Uiso   1.00
O1381  O     0.41992   0.93321   0.68676   0.00000  Uiso   1.00
O1382  O     0.47448   0.71574   0.64270   0.00000  Uiso   1.00
O1383  O     0.41926   0.73177   0.68694   0.00000  Uiso   1.00
O1384  O     0.52448   0.95102   0.85750   0.00000  Uiso   1.00
O1385  O     0.58017   0.93482   0.81404   0.00000  Uiso   1.00
O1386  O     0.56108   0.87154   0.75000   0.00000  Uiso   1.00
O1387  O     0.43892   0.79513   0.74999   0.00000  Uiso   1.00
O1388  O     0.49999   0.87156   0.68392   0.00000  Uiso   1.00
O1389  O     0.50001   0.79511   0.81607   0.00000  Uiso   1.00
O1390  O     0.50001   0.87156   0.81607   0.00000  Uiso   1.00
O1391  O     0.49999   0.79511   0.68392   0.00000  Uiso   1.00
O1392  O     0.41221   0.80727   0.84900   0.00000  Uiso   1.00
Zn1393 Zn    0.50000   0.88437   0.75000   0.00000  Uiso   1.00
Zn1394 Zn    0.50000   0.78229   0.75000   0.00000  Uiso   1.00
C1395  C     0.75342   0.83334   0.75009   0.00000  Uiso   1.00
C1396  C     0.70923   0.83332   0.75127   0.00000  Uiso   1.00
C1397  C     0.85249   0.69073   0.78384   0.00000  Uiso   1.00
C1398  C     0.81404   0.97594   0.71625   0.00000  Uiso   1.00
C1399  C     0.81405   0.69041   0.71627   0.00000  Uiso   1.00
C1400  C     0.85247   0.97626   0.78383   0.00000  Uiso   1.00
C1401  C     0.83448   0.83325   0.66368   0.00000  Uiso   1.00
C1402  C     0.83207   0.83344   0.83625   0.00000  Uiso   1.00
C1403  C     0.86441   0.85072   0.90645   0.00000  Uiso   1.00
C1404  C     0.80189   0.81534   0.59342   0.00000  Uiso   1.00
C1405  C     0.82993   0.83395   0.88393   0.00000  Uiso   1.00
C1406  C     0.91326   0.83331   0.75074   0.00000  Uiso   1.00
C1407  C     0.83620   0.83280   0.61589   0.00000  Uiso   1.00
C1408  C     0.79534   0.81655   0.90658   0.00000  Uiso   1.00
C1409  C     0.87016   0.85112   0.59298   0.00000  Uiso   1.00
C1410  C     0.79447   0.82015   0.95378   0.00000  Uiso   1.00
C1411  C     0.87125   0.84688   0.54591   0.00000  Uiso   1.00
C1412  C     0.83166   0.83384   0.97649   0.00000  Uiso   1.00
C1413  C     0.83427   0.83264   0.52324   0.00000  Uiso   1.00
C1414  C     0.86637   0.84893   0.95244   0.00000  Uiso   1.00
C1415  C     0.79971   0.81731   0.54736   0.00000  Uiso   1.00
C1416  C     0.75851   0.81015   0.97941   0.00000  Uiso   1.00
C1417  C     0.76248   0.80625   0.52566   0.00000  Uiso   1.00
C1418  C     0.90721   0.85713   0.52047   0.00000  Uiso   1.00
C1419  C     0.76337   0.79061   0.88119   0.00000  Uiso   1.00
C1420  C     0.90106   0.87890   0.61777   0.00000  Uiso   1.00
C1421  C     0.71539   0.80960   0.96097   0.00000  Uiso   1.00
C1422  C     0.95004   0.85889   0.53960   0.00000  Uiso   1.00
C1423  C     0.87369   0.71472   0.82080   0.00000  Uiso   1.00
C1424  C     0.79238   0.95193   0.67960   0.00000  Uiso   1.00
C1425  C     0.79217   0.71404   0.67979   0.00000  Uiso   1.00
C1426  C     0.87389   0.95265   0.82062   0.00000  Uiso   1.00
C1427  C     0.90351   0.86019   0.97416   0.00000  Uiso   1.00
C1428  C     0.68802   0.79251   0.75114   0.00000  Uiso   1.00
C1429  C     0.97876   0.87407   0.75271   0.00000  Uiso   1.00
C1430  C     0.97877   0.79250   0.75096   0.00000  Uiso   1.00
C1431  C     0.68799   0.87409   0.75264   0.00000  Uiso   1.00
C1432  C     0.95751   0.83328   0.75165   0.00000  Uiso   1.00
H1433  H     0.89095   0.86263   0.88773   0.00000  Uiso   1.00
H1434  H     0.94488   0.88257   0.66607   0.00000  Uiso   1.00
H1435  H     0.99138   0.78221   0.96263   0.00000  Uiso   1.00
H1436  H     0.99289   0.83103   0.58076   0.00000  Uiso   1.00
H1437  H     0.92418   0.74904   0.84206   0.00000  Uiso   1.00
H1438  H     0.74148   0.91791   0.65901   0.00000  Uiso   1.00
H1439  H     0.74024   0.74609   0.65912   0.00000  Uiso   1.00
H1440  H     0.92554   0.92057   0.84206   0.00000  Uiso   1.00
H1441  H     0.77558   0.80300   0.61222   0.00000  Uiso   1.00
H1442  H     0.73547   0.79753   0.54532   0.00000  Uiso   1.00
H1443  H     0.93059   0.86886   0.95457   0.00000  Uiso   1.00
H1444  H     0.70410   0.76066   0.75100   0.00000  Uiso   1.00
H1445  H     0.96272   0.90593   0.75273   0.00000  Uiso   1.00
H1446  H     0.96274   0.76065   0.74985   0.00000  Uiso   1.00
H1447  H     0.70404   0.90595   0.75345   0.00000  Uiso   1.00
H1448  H     0.73150   0.73279   0.87465   0.00000  Uiso   1.00
N1449  N     0.83333   0.95240   0.75000   0.00000  Uiso   1.00
N1450  N     0.83333   0.71427   0.75000   0.00000  Uiso   1.00
O1451  O     0.77226   0.87154   0.74999   0.00000  Uiso   1.00
O1452  O     0.75373   0.74705   0.89440   0.00000  Uiso   1.00
O1453  O     0.90673   0.91776   0.60669   0.00000  Uiso   1.00
O1454  O     0.92390   0.86059   0.65319   0.00000  Uiso   1.00
O1455  O     0.70438   0.83776   0.93372   0.00000  Uiso   1.00
O1456  O     0.68666   0.77849   0.97682   0.00000  Uiso   1.00
O1457  O     0.97461   0.88717   0.52672   0.00000  Uiso   1.00
O1458  O     0.96289   0.82676   0.57071   0.00000  Uiso   1.00
O1459  O     0.85774   0.71608   0.85778   0.00000  Uiso   1.00
O1460  O     0.91276   0.73375   0.81414   0.00000  Uiso   1.00
O1461  O     0.80796   0.95038   0.64244   0.00000  Uiso   1.00
O1462  O     0.89441   0.79513   0.75000   0.00000  Uiso   1.00
O1463  O     0.75326   0.93321   0.68676   0.00000  Uiso   1.00
O1464  O     0.80781   0.71574   0.64270   0.00000  Uiso   1.00
O1465  O     0.75259   0.73177   0.68694   0.00000  Uiso   1.00
O1466  O     0.85781   0.95102   0.85750   0.00000  Uiso   1.00
O1467  O     0.91350   0.93482   0.81404   0.00000  Uiso   1.00
O1468  O     0.89441   0.87154   0.75000   0.00000  Uiso   1.00
O1469  O     0.77226   0.79513   0.74999   0.00000  Uiso   1.00
O1470  O     0.83333   0.87156   0.68392   0.00000  Uiso   1.00
O1471  O     0.83334   0.79511   0.81607   0.00000  Uiso   1.00
O1472  O     0.83334   0.87156   0.81607   0.00000  Uiso   1.00
O1473  O     0.83333   0.79511   0.68392   0.00000  Uiso   1.00
O1474  O     0.74554   0.80727   0.84900   0.00000  Uiso   1.00
Zn1475 Zn    0.83333   0.88437   0.75000   0.00000  Uiso   1.00
Zn1476 Zn    0.83333   0.78229   0.75000   0.00000  Uiso   1.00
loop_
_geom_bond_atom_site_label_1
_geom_bond_atom_site_label_2
_geom_bond_distance
_geom_bond_site_symmetry_2
_ccdc_geom_bond_type
C1     C2      1.420   .     S
C1     O75     1.292   .     A
C1     O57     1.292   .     A
C2     C34     1.397   .     A
C2     C37     1.396   .     A
C3     C29     1.474   .     S
C3     N56     1.374   .     A
C3     C498    1.428   1_545 S
C4     N55     1.374   .     A
C4     C30     1.474   .     S
C4     C251    1.428   .     S
C5     N56     1.373   .     A
C5     C31     1.473   .     S
C5     C496    1.428   1_545 S
C6     C32     1.473   .     S
C6     N55     1.373   .     A
C6     C249    1.428   .     S
C7     O79     1.294   .     A
C7     O76     1.292   .     A
C7     C13     1.429   .     S
C8     O78     1.292   .     A
C8     O77     1.292   .     A
C8     C11     1.426   .     S
C9     H39     1.086   .     S
C9     C20     1.375   .     A
C9     C11     1.383   .     A
C10    C21     1.378   .     A
C10    C13     1.385   .     A
C10    H47     1.086   .     S
C11    C14     1.408   .     A
C12    O74     1.292   .     A
C12    O68     1.292   .     A
C12    C38     1.421   .     S
C13    C15     1.407   .     A
C14    C16     1.414   .     A
C14    C25     1.486   .     S
C15    C26     1.483   .     S
C15    C17     1.412   .     A
C16    C22     1.425   .     A
C16    C18     1.426   .     A
C17    C24     1.424   .     A
C17    C19     1.425   .     A
C18    C20     1.409   .     A
C18    C757    1.398   .     S
C19    C21     1.408   .     A
C19    C756    1.398   1_554 S
C20    C33     1.392   .     A
C21    C23     1.393   .     A
C22    C27     1.485   .     S
C22    C761    1.391   .     S
C23    H48     1.086   .     S
C23    C760    1.391   1_554 S
C24    C28     1.485   .     S
C24    C771    1.390   1_554 S
C25    O80     1.222   .     D
C25    O58     1.398   .     S
C26    O59     1.223   .     D
C26    O60     1.395   .     S
C27    O61     1.223   .     D
C27    O62     1.398   .     S
C28    O64     1.398   .     S
C28    O63     1.223   .     D
C29    O65     1.223   .     D
C29    O66     1.395   .     S
C30    O67     1.223   .     D
C30    O69     1.395   .     S
C31    O70     1.223   .     D
C31    O71     1.395   .     S
C32    O72     1.223   .     D
C32    O73     1.395   .     S
C33    H49     1.086   .     S
C33    C762    1.390   .     S
C34    H50     1.082   .     S
C34    C200    1.368   1_455 S
C35    C38     1.397   .     A
C35    H51     1.082   .     S
C35    C119    1.367   .     S
C36    H52     1.082   .     S
C36    C38     1.397   .     A
C36    C116    1.368   .     S
C37    H53     1.083   .     S
C37    C199    1.367   1_455 S
H40    O60     1.013   .     S
H41    O144    1.014   .     S
H42    O64     1.014   .     S
H43    O66     1.014   .     S
H44    O69     1.014   .     S
H45    O71     1.013   .     S
H46    O73     1.013   .     S
H54    O58     1.014   .     S
N55    Zn81    2.032   .     S
N56    Zn82    2.032   .     S
O57    Zn81    1.999   .     S
O62    H205    1.014   1_455 S
O68    Zn82    1.999   .     S
O74    Zn81    1.999   .     S
O75    Zn82    1.999   .     S
O76    Zn81    2.008   .     S
O77    Zn82    2.008   .     S
O78    Zn81    2.012   .     S
O79    Zn82    2.012   .     S
C83    C84     1.420   .     S
C83    O157    1.292   .     A
C83    O139    1.292   .     A
C84    C116    1.397   .     A
C84    C119    1.396   .     A
C85    C111    1.474   .     S
C85    N138    1.374   .     A
C85    C580    1.428   1_545 S
C86    N137    1.374   .     A
C86    C112    1.474   .     S
C86    C333    1.428   .     S
C87    N138    1.373   .     A
C87    C113    1.473   .     S
C87    C578    1.428   1_545 S
C88    C114    1.473   .     S
C88    N137    1.373   .     A
C88    C331    1.428   .     S
C89    O161    1.294   .     A
C89    O158    1.292   .     A
C89    C95     1.429   .     S
C90    O160    1.292   .     A
C90    O159    1.292   .     A
C90    C93     1.426   .     S
C91    H121    1.086   .     S
C91    C102    1.375   .     A
C91    C93     1.383   .     A
C92    C103    1.378   .     A
C92    C95     1.385   .     A
C92    H129    1.086   .     S
C93    C96     1.408   .     A
C94    O156    1.292   .     A
C94    O150    1.292   .     A
C94    C120    1.421   .     S
C95    C97     1.407   .     A
C96    C98     1.414   .     A
C96    C107    1.486   .     S
C97    C108    1.483   .     S
C97    C99     1.412   .     A
C98    C104    1.425   .     A
C98    C100    1.426   .     A
C99    C106    1.424   .     A
C99    C101    1.425   .     A
C100   C102    1.409   .     A
C100   C839    1.398   .     S
C101   C103    1.408   .     A
C101   C838    1.398   1_554 S
C102   C115    1.392   .     A
C103   C105    1.393   .     A
C104   C109    1.485   .     S
C104   C843    1.391   .     S
C105   H130    1.086   .     S
C105   C842    1.391   1_554 S
C106   C110    1.485   .     S
C106   C853    1.390   1_554 S
C107   O162    1.222   .     D
C107   O140    1.398   .     S
C108   O141    1.223   .     D
C108   O142    1.395   .     S
C109   O143    1.223   .     D
C109   O144    1.398   .     S
C110   O146    1.398   .     S
C110   O145    1.223   .     D
C111   O147    1.223   .     D
C111   O148    1.395   .     S
C112   O149    1.223   .     D
C112   O151    1.395   .     S
C113   O152    1.223   .     D
C113   O153    1.395   .     S
C114   O154    1.223   .     D
C114   O155    1.395   .     S
C115   H131    1.086   .     S
C115   C844    1.390   .     S
C116   H132    1.082   .     S
C117   C120    1.397   .     A
C117   H133    1.082   .     S
C117   C201    1.367   .     S
C118   H134    1.082   .     S
C118   C120    1.397   .     A
C118   C198    1.368   .     S
C119   H135    1.083   .     S
H122   O142    1.013   .     S
H123   O226    1.014   .     S
H124   O146    1.014   .     S
H125   O148    1.014   .     S
H126   O151    1.014   .     S
H127   O153    1.013   .     S
H128   O155    1.013   .     S
H136   O140    1.014   .     S
N137   Zn163   2.032   .     S
N138   Zn164   2.032   .     S
O139   Zn163   1.999   .     S
O150   Zn164   1.999   .     S
O156   Zn163   1.999   .     S
O157   Zn164   1.999   .     S
O158   Zn163   2.008   .     S
O159   Zn164   2.008   .     S
O160   Zn163   2.012   .     S
O161   Zn164   2.012   .     S
C165   C166    1.420   .     S
C165   O239    1.292   .     A
C165   O221    1.292   .     A
C166   C198    1.397   .     A
C166   C201    1.396   .     A
C167   C193    1.474   .     S
C167   N220    1.374   .     A
C167   C662    1.428   1_545 S
C168   N219    1.374   .     A
C168   C194    1.474   .     S
C168   C415    1.428   .     S
C169   N220    1.373   .     A
C169   C195    1.473   .     S
C169   C660    1.428   1_545 S
C170   C196    1.473   .     S
C170   N219    1.373   .     A
C170   C413    1.428   .     S
C171   O243    1.294   .     A
C171   O240    1.292   .     A
C171   C177    1.429   .     S
C172   O242    1.292   .     A
C172   O241    1.292   .     A
C172   C175    1.426   .     S
C173   H203    1.086   .     S
C173   C184    1.375   .     A
C173   C175    1.383   .     A
C174   C185    1.378   .     A
C174   C177    1.385   .     A
C174   H211    1.086   .     S
C175   C178    1.408   .     A
C176   O238    1.292   .     A
C176   O232    1.292   .     A
C176   C202    1.421   .     S
C177   C179    1.407   .     A
C178   C180    1.414   .     A
C178   C189    1.486   .     S
C179   C190    1.483   .     S
C179   C181    1.412   .     A
C180   C186    1.425   .     A
C180   C182    1.426   .     A
C181   C188    1.424   .     A
C181   C183    1.425   .     A
C182   C184    1.409   .     A
C182   C921    1.398   .     S
C183   C185    1.408   .     A
C183   C920    1.398   1_554 S
C184   C197    1.392   .     A
C185   C187    1.393   .     A
C186   C191    1.485   .     S
C186   C925    1.391   .     S
C187   H212    1.086   .     S
C187   C924    1.391   1_554 S
C188   C192    1.485   .     S
C188   C935    1.390   1_554 S
C189   O244    1.222   .     D
C189   O222    1.398   .     S
C190   O223    1.223   .     D
C190   O224    1.395   .     S
C191   O225    1.223   .     D
C191   O226    1.398   .     S
C192   O228    1.398   .     S
C192   O227    1.223   .     D
C193   O229    1.223   .     D
C193   O230    1.395   .     S
C194   O231    1.223   .     D
C194   O233    1.395   .     S
C195   O234    1.223   .     D
C195   O235    1.395   .     S
C196   O236    1.223   .     D
C196   O237    1.395   .     S
C197   H213    1.086   .     S
C197   C926    1.390   .     S
C198   H214    1.082   .     S
C199   C202    1.397   .     A
C199   H215    1.082   .     S
C199   C37     1.367   1_655 S
C200   H216    1.082   .     S
C200   C202    1.397   .     A
C200   C34     1.368   1_655 S
C201   H217    1.083   .     S
H204   O224    1.013   .     S
H205   O62     1.014   1_655 S
H206   O228    1.014   .     S
H207   O230    1.014   .     S
H208   O233    1.014   .     S
H209   O235    1.013   .     S
H210   O237    1.013   .     S
H218   O222    1.014   .     S
N219   Zn245   2.032   .     S
N220   Zn246   2.032   .     S
O221   Zn245   1.999   .     S
O232   Zn246   1.999   .     S
O238   Zn245   1.999   .     S
O239   Zn246   1.999   .     S
O240   Zn245   2.008   .     S
O241   Zn246   2.008   .     S
O242   Zn245   2.012   .     S
O243   Zn246   2.012   .     S
C247   C248    1.420   .     S
C247   O321    1.292   .     A
C247   O303    1.292   .     A
C248   C280    1.397   .     A
C248   C283    1.396   .     A
C249   C275    1.474   .     S
C249   N302    1.374   .     A
C250   N301    1.374   .     A
C250   C276    1.474   .     S
C250   C497    1.428   .     S
C251   N302    1.373   .     A
C251   C277    1.473   .     S
C252   C278    1.473   .     S
C252   N301    1.373   .     A
C252   C495    1.428   .     S
C253   O325    1.294   .     A
C253   O322    1.292   .     A
C253   C259    1.429   .     S
C254   O324    1.292   .     A
C254   O323    1.292   .     A
C254   C257    1.426   .     S
C255   H285    1.086   .     S
C255   C266    1.375   .     A
C255   C257    1.383   .     A
C256   C267    1.378   .     A
C256   C259    1.385   .     A
C256   H293    1.086   .     S
C257   C260    1.408   .     A
C258   O320    1.292   .     A
C258   O314    1.292   .     A
C258   C284    1.421   .     S
C259   C261    1.407   .     A
C260   C262    1.414   .     A
C260   C271    1.486   .     S
C261   C272    1.483   .     S
C261   C263    1.412   .     A
C262   C268    1.425   .     A
C262   C264    1.426   .     A
C263   C270    1.424   .     A
C263   C265    1.425   .     A
C264   C266    1.409   .     A
C264   C1003   1.398   .     S
C265   C267    1.408   .     A
C265   C1002   1.398   1_554 S
C266   C279    1.392   .     A
C267   C269    1.393   .     A
C268   C273    1.485   .     S
C268   C1007   1.391   .     S
C269   H294    1.086   .     S
C269   C1006   1.391   1_554 S
C270   C274    1.485   .     S
C270   C1017   1.390   1_554 S
C271   O326    1.222   .     D
C271   O304    1.398   .     S
C272   O305    1.223   .     D
C272   O306    1.395   .     S
C273   O307    1.223   .     D
C273   O308    1.398   .     S
C274   O310    1.398   .     S
C274   O309    1.223   .     D
C275   O311    1.223   .     D
C275   O312    1.395   .     S
C276   O313    1.223   .     D
C276   O315    1.395   .     S
C277   O316    1.223   .     D
C277   O317    1.395   .     S
C278   O318    1.223   .     D
C278   O319    1.395   .     S
C279   H295    1.086   .     S
C279   C1008   1.390   .     S
C280   H296    1.082   .     S
C280   C446    1.368   1_455 S
C281   C284    1.397   .     A
C281   H297    1.082   .     S
C281   C365    1.367   .     S
C282   H298    1.082   .     S
C282   C284    1.397   .     A
C282   C362    1.368   .     S
C283   H299    1.083   .     S
C283   C445    1.367   1_455 S
H286   O306    1.013   .     S
H287   O390    1.014   .     S
H288   O310    1.014   .     S
H289   O312    1.014   .     S
H290   O315    1.014   .     S
H291   O317    1.013   .     S
H292   O319    1.013   .     S
H300   O304    1.014   .     S
N301   Zn327   2.032   .     S
N302   Zn328   2.032   .     S
O303   Zn327   1.999   .     S
O308   H451    1.014   1_455 S
O314   Zn328   1.999   .     S
O320   Zn327   1.999   .     S
O321   Zn328   1.999   .     S
O322   Zn327   2.008   .     S
O323   Zn328   2.008   .     S
O324   Zn327   2.012   .     S
O325   Zn328   2.012   .     S
C329   C330    1.420   .     S
C329   O403    1.292   .     A
C329   O385    1.292   .     A
C330   C362    1.397   .     A
C330   C365    1.396   .     A
C331   C357    1.474   .     S
C331   N384    1.374   .     A
C332   N383    1.374   .     A
C332   C358    1.474   .     S
C332   C579    1.428   .     S
C333   N384    1.373   .     A
C333   C359    1.473   .     S
C334   C360    1.473   .     S
C334   N383    1.373   .     A
C334   C577    1.428   .     S
C335   O407    1.294   .     A
C335   O404    1.292   .     A
C335   C341    1.429   .     S
C336   O406    1.292   .     A
C336   O405    1.292   .     A
C336   C339    1.426   .     S
C337   H367    1.086   .     S
C337   C348    1.375   .     A
C337   C339    1.383   .     A
C338   C349    1.378   .     A
C338   C341    1.385   .     A
C338   H375    1.086   .     S
C339   C342    1.408   .     A
C340   O402    1.292   .     A
C340   O396    1.292   .     A
C340   C366    1.421   .     S
C341   C343    1.407   .     A
C342   C344    1.414   .     A
C342   C353    1.486   .     S
C343   C354    1.483   .     S
C343   C345    1.412   .     A
C344   C350    1.425   .     A
C344   C346    1.426   .     A
C345   C352    1.424   .     A
C345   C347    1.425   .     A
C346   C348    1.409   .     A
C346   C1085   1.398   .     S
C347   C349    1.408   .     A
C347   C1084   1.398   1_554 S
C348   C361    1.392   .     A
C349   C351    1.393   .     A
C350   C355    1.485   .     S
C350   C1089   1.391   .     S
C351   H376    1.086   .     S
C351   C1088   1.391   1_554 S
C352   C356    1.485   .     S
C352   C1099   1.390   1_554 S
C353   O408    1.222   .     D
C353   O386    1.398   .     S
C354   O387    1.223   .     D
C354   O388    1.395   .     S
C355   O389    1.223   .     D
C355   O390    1.398   .     S
C356   O392    1.398   .     S
C356   O391    1.223   .     D
C357   O393    1.223   .     D
C357   O394    1.395   .     S
C358   O395    1.223   .     D
C358   O397    1.395   .     S
C359   O398    1.223   .     D
C359   O399    1.395   .     S
C360   O400    1.223   .     D
C360   O401    1.395   .     S
C361   H377    1.086   .     S
C361   C1090   1.390   .     S
C362   H378    1.082   .     S
C363   C366    1.397   .     A
C363   H379    1.082   .     S
C363   C447    1.367   .     S
C364   H380    1.082   .     S
C364   C366    1.397   .     A
C364   C444    1.368   .     S
C365   H381    1.083   .     S
H368   O388    1.013   .     S
H369   O472    1.014   .     S
H370   O392    1.014   .     S
H371   O394    1.014   .     S
H372   O397    1.014   .     S
H373   O399    1.013   .     S
H374   O401    1.013   .     S
H382   O386    1.014   .     S
N383   Zn409   2.032   .     S
N384   Zn410   2.032   .     S
O385   Zn409   1.999   .     S
O396   Zn410   1.999   .     S
O402   Zn409   1.999   .     S
O403   Zn410   1.999   .     S
O404   Zn409   2.008   .     S
O405   Zn410   2.008   .     S
O406   Zn409   2.012   .     S
O407   Zn410   2.012   .     S
C411   C412    1.420   .     S
C411   O485    1.292   .     A
C411   O467    1.292   .     A
C412   C444    1.397   .     A
C412   C447    1.396   .     A
C413   C439    1.474   .     S
C413   N466    1.374   .     A
C414   N465    1.374   .     A
C414   C440    1.474   .     S
C414   C661    1.428   .     S
C415   N466    1.373   .     A
C415   C441    1.473   .     S
C416   C442    1.473   .     S
C416   N465    1.373   .     A
C416   C659    1.428   .     S
C417   O489    1.294   .     A
C417   O486    1.292   .     A
C417   C423    1.429   .     S
C418   O488    1.292   .     A
C418   O487    1.292   .     A
C418   C421    1.426   .     S
C419   H449    1.086   .     S
C419   C430    1.375   .     A
C419   C421    1.383   .     A
C420   C431    1.378   .     A
C420   C423    1.385   .     A
C420   H457    1.086   .     S
C421   C424    1.408   .     A
C422   O484    1.292   .     A
C422   O478    1.292   .     A
C422   C448    1.421   .     S
C423   C425    1.407   .     A
C424   C426    1.414   .     A
C424   C435    1.486   .     S
C425   C436    1.483   .     S
C425   C427    1.412   .     A
C426   C432    1.425   .     A
C426   C428    1.426   .     A
C427   C434    1.424   .     A
C427   C429    1.425   .     A
C428   C430    1.409   .     A
C428   C1167   1.398   .     S
C429   C431    1.408   .     A
C429   C1166   1.398   1_554 S
C430   C443    1.392   .     A
C431   C433    1.393   .     A
C432   C437    1.485   .     S
C432   C1171   1.391   .     S
C433   H458    1.086   .     S
C433   C1170   1.391   1_554 S
C434   C438    1.485   .     S
C434   C1181   1.390   1_554 S
C435   O490    1.222   .     D
C435   O468    1.398   .     S
C436   O469    1.223   .     D
C436   O470    1.395   .     S
C437   O471    1.223   .     D
C437   O472    1.398   .     S
C438   O474    1.398   .     S
C438   O473    1.223   .     D
C439   O475    1.223   .     D
C439   O476    1.395   .     S
C440   O477    1.223   .     D
C440   O479    1.395   .     S
C441   O480    1.223   .     D
C441   O481    1.395   .     S
C442   O482    1.223   .     D
C442   O483    1.395   .     S
C443   H459    1.086   .     S
C443   C1172   1.390   .     S
C444   H460    1.082   .     S
C445   C448    1.397   .     A
C445   H461    1.082   .     S
C445   C283    1.367   1_655 S
C446   H462    1.082   .     S
C446   C448    1.397   .     A
C446   C280    1.368   1_655 S
C447   H463    1.083   .     S
H450   O470    1.013   .     S
H451   O308    1.014   1_655 S
H452   O474    1.014   .     S
H453   O476    1.014   .     S
H454   O479    1.014   .     S
H455   O481    1.013   .     S
H456   O483    1.013   .     S
H464   O468    1.014   .     S
N465   Zn491   2.032   .     S
N466   Zn492   2.032   .     S
O467   Zn491   1.999   .     S
O478   Zn492   1.999   .     S
O484   Zn491   1.999   .     S
O485   Zn492   1.999   .     S
O486   Zn491   2.008   .     S
O487   Zn492   2.008   .     S
O488   Zn491   2.012   .     S
O489   Zn492   2.012   .     S
C493   C494    1.420   .     S
C493   O567    1.292   .     A
C493   O549    1.292   .     A
C494   C526    1.397   .     A
C494   C529    1.396   .     A
C495   C521    1.474   .     S
C495   N548    1.374   .     A
C496   N547    1.374   .     A
C496   C522    1.474   .     S
C496   C5      1.428   1_565 S
C497   N548    1.373   .     A
C497   C523    1.473   .     S
C498   C524    1.473   .     S
C498   N547    1.373   .     A
C498   C3      1.428   1_565 S
C499   O571    1.294   .     A
C499   O568    1.292   .     A
C499   C505    1.429   .     S
C500   O570    1.292   .     A
C500   O569    1.292   .     A
C500   C503    1.426   .     S
C501   H531    1.086   .     S
C501   C512    1.375   .     A
C501   C503    1.383   .     A
C502   C513    1.378   .     A
C502   C505    1.385   .     A
C502   H539    1.086   .     S
C503   C506    1.408   .     A
C504   O566    1.292   .     A
C504   O560    1.292   .     A
C504   C530    1.421   .     S
C505   C507    1.407   .     A
C506   C508    1.414   .     A
C506   C517    1.486   .     S
C507   C518    1.483   .     S
C507   C509    1.412   .     A
C508   C514    1.425   .     A
C508   C510    1.426   .     A
C509   C516    1.424   .     A
C509   C511    1.425   .     A
C510   C512    1.409   .     A
C510   C1249   1.398   .     S
C511   C513    1.408   .     A
C511   C1248   1.398   1_554 S
C512   C525    1.392   .     A
C513   C515    1.393   .     A
C514   C519    1.485   .     S
C514   C1253   1.391   .     S
C515   H540    1.086   .     S
C515   C1252   1.391   1_554 S
C516   C520    1.485   .     S
C516   C1263   1.390   1_554 S
C517   O572    1.222   .     D
C517   O550    1.398   .     S
C518   O551    1.223   .     D
C518   O552    1.395   .     S
C519   O553    1.223   .     D
C519   O554    1.398   .     S
C520   O556    1.398   .     S
C520   O555    1.223   .     D
C521   O557    1.223   .     D
C521   O558    1.395   .     S
C522   O559    1.223   .     D
C522   O561    1.395   .     S
C523   O562    1.223   .     D
C523   O563    1.395   .     S
C524   O564    1.223   .     D
C524   O565    1.395   .     S
C525   H541    1.086   .     S
C525   C1254   1.390   .     S
C526   H542    1.082   .     S
C526   C692    1.368   1_455 S
C527   C530    1.397   .     A
C527   H543    1.082   .     S
C527   C611    1.367   .     S
C528   H544    1.082   .     S
C528   C530    1.397   .     A
C528   C608    1.368   .     S
C529   H545    1.083   .     S
C529   C691    1.367   1_455 S
H532   O552    1.013   .     S
H533   O636    1.014   .     S
H534   O556    1.014   .     S
H535   O558    1.014   .     S
H536   O561    1.014   .     S
H537   O563    1.013   .     S
H538   O565    1.013   .     S
H546   O550    1.014   .     S
N547   Zn573   2.032   .     S
N548   Zn574   2.032   .     S
O549   Zn573   1.999   .     S
O554   H697    1.014   1_455 S
O560   Zn574   1.999   .     S
O566   Zn573   1.999   .     S
O567   Zn574   1.999   .     S
O568   Zn573   2.008   .     S
O569   Zn574   2.008   .     S
O570   Zn573   2.012   .     S
O571   Zn574   2.012   .     S
C575   C576    1.420   .     S
C575   O649    1.292   .     A
C575   O631    1.292   .     A
C576   C608    1.397   .     A
C576   C611    1.396   .     A
C577   C603    1.474   .     S
C577   N630    1.374   .     A
C578   N629    1.374   .     A
C578   C604    1.474   .     S
C578   C87     1.428   1_565 S
C579   N630    1.373   .     A
C579   C605    1.473   .     S
C580   C606    1.473   .     S
C580   N629    1.373   .     A
C580   C85     1.428   1_565 S
C581   O653    1.294   .     A
C581   O650    1.292   .     A
C581   C587    1.429   .     S
C582   O652    1.292   .     A
C582   O651    1.292   .     A
C582   C585    1.426   .     S
C583   H613    1.086   .     S
C583   C594    1.375   .     A
C583   C585    1.383   .     A
C584   C595    1.378   .     A
C584   C587    1.385   .     A
C584   H621    1.086   .     S
C585   C588    1.408   .     A
C586   O648    1.292   .     A
C586   O642    1.292   .     A
C586   C612    1.421   .     S
C587   C589    1.407   .     A
C588   C590    1.414   .     A
C588   C599    1.486   .     S
C589   C600    1.483   .     S
C589   C591    1.412   .     A
C590   C596    1.425   .     A
C590   C592    1.426   .     A
C591   C598    1.424   .     A
C591   C593    1.425   .     A
C592   C594    1.409   .     A
C592   C1331   1.398   .     S
C593   C595    1.408   .     A
C593   C1330   1.398   1_554 S
C594   C607    1.392   .     A
C595   C597    1.393   .     A
C596   C601    1.485   .     S
C596   C1335   1.391   .     S
C597   H622    1.086   .     S
C597   C1334   1.391   1_554 S
C598   C602    1.485   .     S
C598   C1345   1.390   1_554 S
C599   O654    1.222   .     D
C599   O632    1.398   .     S
C600   O633    1.223   .     D
C600   O634    1.395   .     S
C601   O635    1.223   .     D
C601   O636    1.398   .     S
C602   O638    1.398   .     S
C602   O637    1.223   .     D
C603   O639    1.223   .     D
C603   O640    1.395   .     S
C604   O641    1.223   .     D
C604   O643    1.395   .     S
C605   O644    1.223   .     D
C605   O645    1.395   .     S
C606   O646    1.223   .     D
C606   O647    1.395   .     S
C607   H623    1.086   .     S
C607   C1336   1.390   .     S
C608   H624    1.082   .     S
C609   C612    1.397   .     A
C609   H625    1.082   .     S
C609   C693    1.367   .     S
C610   H626    1.082   .     S
C610   C612    1.397   .     A
C610   C690    1.368   .     S
C611   H627    1.083   .     S
H614   O634    1.013   .     S
H615   O718    1.014   .     S
H616   O638    1.014   .     S
H617   O640    1.014   .     S
H618   O643    1.014   .     S
H619   O645    1.013   .     S
H620   O647    1.013   .     S
H628   O632    1.014   .     S
N629   Zn655   2.032   .     S
N630   Zn656   2.032   .     S
O631   Zn655   1.999   .     S
O642   Zn656   1.999   .     S
O648   Zn655   1.999   .     S
O649   Zn656   1.999   .     S
O650   Zn655   2.008   .     S
O651   Zn656   2.008   .     S
O652   Zn655   2.012   .     S
O653   Zn656   2.012   .     S
C657   C658    1.420   .     S
C657   O731    1.292   .     A
C657   O713    1.292   .     A
C658   C690    1.397   .     A
C658   C693    1.396   .     A
C659   C685    1.474   .     S
C659   N712    1.374   .     A
C660   N711    1.374   .     A
C660   C686    1.474   .     S
C660   C169    1.428   1_565 S
C661   N712    1.373   .     A
C661   C687    1.473   .     S
C662   C688    1.473   .     S
C662   N711    1.373   .     A
C662   C167    1.428   1_565 S
C663   O735    1.294   .     A
C663   O732    1.292   .     A
C663   C669    1.429   .     S
C664   O734    1.292   .     A
C664   O733    1.292   .     A
C664   C667    1.426   .     S
C665   H695    1.086   .     S
C665   C676    1.375   .     A
C665   C667    1.383   .     A
C666   C677    1.378   .     A
C666   C669    1.385   .     A
C666   H703    1.086   .     S
C667   C670    1.408   .     A
C668   O730    1.292   .     A
C668   O724    1.292   .     A
C668   C694    1.421   .     S
C669   C671    1.407   .     A
C670   C672    1.414   .     A
C670   C681    1.486   .     S
C671   C682    1.483   .     S
C671   C673    1.412   .     A
C672   C678    1.425   .     A
C672   C674    1.426   .     A
C673   C680    1.424   .     A
C673   C675    1.425   .     A
C674   C676    1.409   .     A
C674   C1413   1.398   .     S
C675   C677    1.408   .     A
C675   C1412   1.398   1_554 S
C676   C689    1.392   .     A
C677   C679    1.393   .     A
C678   C683    1.485   .     S
C678   C1417   1.391   .     S
C679   H704    1.086   .     S
C679   C1416   1.391   1_554 S
C680   C684    1.485   .     S
C680   C1427   1.390   1_554 S
C681   O736    1.222   .     D
C681   O714    1.398   .     S
C682   O715    1.223   .     D
C682   O716    1.395   .     S
C683   O717    1.223   .     D
C683   O718    1.398   .     S
C684   O720    1.398   .     S
C684   O719    1.223   .     D
C685   O721    1.223   .     D
C685   O722    1.395   .     S
C686   O723    1.223   .     D
C686   O725    1.395   .     S
C687   O726    1.223   .     D
C687   O727    1.395   .     S
C688   O728    1.223   .     D
C688   O729    1.395   .     S
C689   H705    1.086   .     S
C689   C1418   1.390   .     S
C690   H706    1.082   .     S
C691   C694    1.397   .     A
C691   H707    1.082   .     S
C691   C529    1.367   1_655 S
C692   H708    1.082   .     S
C692   C694    1.397   .     A
C692   C526    1.368   1_655 S
C693   H709    1.083   .     S
H696   O716    1.013   .     S
H697   O554    1.014   1_655 S
H698   O720    1.014   .     S
H699   O722    1.014   .     S
H700   O725    1.014   .     S
H701   O727    1.013   .     S
H702   O729    1.013   .     S
H710   O714    1.014   .     S
N711   Zn737   2.032   .     S
N712   Zn738   2.032   .     S
O713   Zn737   1.999   .     S
O724   Zn738   1.999   .     S
O730   Zn737   1.999   .     S
O731   Zn738   1.999   .     S
O732   Zn737   2.008   .     S
O733   Zn738   2.008   .     S
O734   Zn737   2.012   .     S
O735   Zn738   2.012   .     S
C739   C740    1.420   .     S
C739   O813    1.292   .     A
C739   O795    1.292   .     A
C740   C772    1.397   .     A
C740   C775    1.396   .     A
C741   C767    1.474   .     S
C741   N794    1.374   .     A
C741   C1236   1.428   1_545 S
C742   N793    1.374   .     A
C742   C768    1.474   .     S
C742   C989    1.428   .     S
C743   N794    1.373   .     A
C743   C769    1.473   .     S
C743   C1234   1.428   1_545 S
C744   C770    1.473   .     S
C744   N793    1.373   .     A
C744   C987    1.428   .     S
C745   O817    1.294   .     A
C745   O814    1.292   .     A
C745   C751    1.429   .     S
C746   O816    1.292   .     A
C746   O815    1.292   .     A
C746   C749    1.426   .     S
C747   H777    1.086   .     S
C747   C758    1.375   .     A
C747   C749    1.383   .     A
C748   C759    1.378   .     A
C748   C751    1.385   .     A
C748   H785    1.086   .     S
C749   C752    1.408   .     A
C750   O812    1.292   .     A
C750   O806    1.292   .     A
C750   C776    1.421   .     S
C751   C753    1.407   .     A
C752   C754    1.414   .     A
C752   C763    1.486   .     S
C753   C764    1.483   .     S
C753   C755    1.412   .     A
C754   C760    1.425   .     A
C754   C756    1.426   .     A
C755   C762    1.424   .     A
C755   C757    1.425   .     A
C756   C758    1.409   .     A
C756   C19     1.398   1_556 S
C757   C759    1.408   .     A
C758   C771    1.392   .     A
C759   C761    1.393   .     A
C760   C765    1.485   .     S
C760   C23     1.391   1_556 S
C761   H786    1.086   .     S
C762   C766    1.485   .     S
C763   O818    1.222   .     D
C763   O796    1.398   .     S
C764   O797    1.223   .     D
C764   O798    1.395   .     S
C765   O799    1.223   .     D
C765   O800    1.398   .     S
C766   O802    1.398   .     S
C766   O801    1.223   .     D
C767   O803    1.223   .     D
C767   O804    1.395   .     S
C768   O805    1.223   .     D
C768   O807    1.395   .     S
C769   O808    1.223   .     D
C769   O809    1.395   .     S
C770   O810    1.223   .     D
C770   O811    1.395   .     S
C771   H787    1.086   .     S
C771   C24     1.390   1_556 S
C772   H788    1.082   .     S
C772   C938    1.368   1_455 S
C773   C776    1.397   .     A
C773   H789    1.082   .     S
C773   C857    1.367   .     S
C774   H790    1.082   .     S
C774   C776    1.397   .     A
C774   C854    1.368   .     S
C775   H791    1.083   .     S
C775   C937    1.367   1_455 S
H778   O798    1.013   .     S
H779   O882    1.014   .     S
H780   O802    1.014   .     S
H781   O804    1.014   .     S
H782   O807    1.014   .     S
H783   O809    1.013   .     S
H784   O811    1.013   .     S
H792   O796    1.014   .     S
N793   Zn819   2.032   .     S
N794   Zn820   2.032   .     S
O795   Zn819   1.999   .     S
O800   H943    1.014   1_455 S
O806   Zn820   1.999   .     S
O812   Zn819   1.999   .     S
O813   Zn820   1.999   .     S
O814   Zn819   2.008   .     S
O815   Zn820   2.008   .     S
O816   Zn819   2.012   .     S
O817   Zn820   2.012   .     S
C821   C822    1.420   .     S
C821   O895    1.292   .     A
C821   O877    1.292   .     A
C822   C854    1.397   .     A
C822   C857    1.396   .     A
C823   C849    1.474   .     S
C823   N876    1.374   .     A
C823   C1318   1.428   1_545 S
C824   N875    1.374   .     A
C824   C850    1.474   .     S
C824   C1071   1.428   .     S
C825   N876    1.373   .     A
C825   C851    1.473   .     S
C825   C1316   1.428   1_545 S
C826   C852    1.473   .     S
C826   N875    1.373   .     A
C826   C1069   1.428   .     S
C827   O899    1.294   .     A
C827   O896    1.292   .     A
C827   C833    1.429   .     S
C828   O898    1.292   .     A
C828   O897    1.292   .     A
C828   C831    1.426   .     S
C829   H859    1.086   .     S
C829   C840    1.375   .     A
C829   C831    1.383   .     A
C830   C841    1.378   .     A
C830   C833    1.385   .     A
C830   H867    1.086   .     S
C831   C834    1.408   .     A
C832   O894    1.292   .     A
C832   O888    1.292   .     A
C832   C858    1.421   .     S
C833   C835    1.407   .     A
C834   C836    1.414   .     A
C834   C845    1.486   .     S
C835   C846    1.483   .     S
C835   C837    1.412   .     A
C836   C842    1.425   .     A
C836   C838    1.426   .     A
C837   C844    1.424   .     A
C837   C839    1.425   .     A
C838   C840    1.409   .     A
C838   C101    1.398   1_556 S
C839   C841    1.408   .     A
C840   C853    1.392   .     A
C841   C843    1.393   .     A
C842   C847    1.485   .     S
C842   C105    1.391   1_556 S
C843   H868    1.086   .     S
C844   C848    1.485   .     S
C845   O900    1.222   .     D
C845   O878    1.398   .     S
C846   O879    1.223   .     D
C846   O880    1.395   .     S
C847   O881    1.223   .     D
C847   O882    1.398   .     S
C848   O884    1.398   .     S
C848   O883    1.223   .     D
C849   O885    1.223   .     D
C849   O886    1.395   .     S
C850   O887    1.223   .     D
C850   O889    1.395   .     S
C851   O890    1.223   .     D
C851   O891    1.395   .     S
C852   O892    1.223   .     D
C852   O893    1.395   .     S
C853   H869    1.086   .     S
C853   C106    1.390   1_556 S
C854   H870    1.082   .     S
C855   C858    1.397   .     A
C855   H871    1.082   .     S
C855   C939    1.367   .     S
C856   H872    1.082   .     S
C856   C858    1.397   .     A
C856   C936    1.368   .     S
C857   H873    1.083   .     S
H860   O880    1.013   .     S
H861   O964    1.014   .     S
H862   O884    1.014   .     S
H863   O886    1.014   .     S
H864   O889    1.014   .     S
H865   O891    1.013   .     S
H866   O893    1.013   .     S
H874   O878    1.014   .     S
N875   Zn901   2.032   .     S
N876   Zn902   2.032   .     S
O877   Zn901   1.999   .     S
O888   Zn902   1.999   .     S
O894   Zn901   1.999   .     S
O895   Zn902   1.999   .     S
O896   Zn901   2.008   .     S
O897   Zn902   2.008   .     S
O898   Zn901   2.012   .     S
O899   Zn902   2.012   .     S
C903   C904    1.420   .     S
C903   O977    1.292   .     A
C903   O959    1.292   .     A
C904   C936    1.397   .     A
C904   C939    1.396   .     A
C905   C931    1.474   .     S
C905   N958    1.374   .     A
C905   C1400   1.428   1_545 S
C906   N957    1.374   .     A
C906   C932    1.474   .     S
C906   C1153   1.428   .     S
C907   N958    1.373   .     A
C907   C933    1.473   .     S
C907   C1398   1.428   1_545 S
C908   C934    1.473   .     S
C908   N957    1.373   .     A
C908   C1151   1.428   .     S
C909   O981    1.294   .     A
C909   O978    1.292   .     A
C909   C915    1.429   .     S
C910   O980    1.292   .     A
C910   O979    1.292   .     A
C910   C913    1.426   .     S
C911   H941    1.086   .     S
C911   C922    1.375   .     A
C911   C913    1.383   .     A
C912   C923    1.378   .     A
C912   C915    1.385   .     A
C912   H949    1.086   .     S
C913   C916    1.408   .     A
C914   O976    1.292   .     A
C914   O970    1.292   .     A
C914   C940    1.421   .     S
C915   C917    1.407   .     A
C916   C918    1.414   .     A
C916   C927    1.486   .     S
C917   C928    1.483   .     S
C917   C919    1.412   .     A
C918   C924    1.425   .     A
C918   C920    1.426   .     A
C919   C926    1.424   .     A
C919   C921    1.425   .     A
C920   C922    1.409   .     A
C920   C183    1.398   1_556 S
C921   C923    1.408   .     A
C922   C935    1.392   .     A
C923   C925    1.393   .     A
C924   C929    1.485   .     S
C924   C187    1.391   1_556 S
C925   H950    1.086   .     S
C926   C930    1.485   .     S
C927   O982    1.222   .     D
C927   O960    1.398   .     S
C928   O961    1.223   .     D
C928   O962    1.395   .     S
C929   O963    1.223   .     D
C929   O964    1.398   .     S
C930   O966    1.398   .     S
C930   O965    1.223   .     D
C931   O967    1.223   .     D
C931   O968    1.395   .     S
C932   O969    1.223   .     D
C932   O971    1.395   .     S
C933   O972    1.223   .     D
C933   O973    1.395   .     S
C934   O974    1.223   .     D
C934   O975    1.395   .     S
C935   H951    1.086   .     S
C935   C188    1.390   1_556 S
C936   H952    1.082   .     S
C937   C940    1.397   .     A
C937   H953    1.082   .     S
C937   C775    1.367   1_655 S
C938   H954    1.082   .     S
C938   C940    1.397   .     A
C938   C772    1.368   1_655 S
C939   H955    1.083   .     S
H942   O962    1.013   .     S
H943   O800    1.014   1_655 S
H944   O966    1.014   .     S
H945   O968    1.014   .     S
H946   O971    1.014   .     S
H947   O973    1.013   .     S
H948   O975    1.013   .     S
H956   O960    1.014   .     S
N957   Zn983   2.032   .     S
N958   Zn984   2.032   .     S
O959   Zn983   1.999   .     S
O970   Zn984   1.999   .     S
O976   Zn983   1.999   .     S
O977   Zn984   1.999   .     S
O978   Zn983   2.008   .     S
O979   Zn984   2.008   .     S
O980   Zn983   2.012   .     S
O981   Zn984   2.012   .     S
C985   C986    1.420   .     S
C985   O1059   1.292   .     A
C985   O1041   1.292   .     A
C986   C1018   1.397   .     A
C986   C1021   1.396   .     A
C987   C1013   1.474   .     S
C987   N1040   1.374   .     A
C988   N1039   1.374   .     A
C988   C1014   1.474   .     S
C988   C1235   1.428   .     S
C989   N1040   1.373   .     A
C989   C1015   1.473   .     S
C990   C1016   1.473   .     S
C990   N1039   1.373   .     A
C990   C1233   1.428   .     S
C991   O1063   1.294   .     A
C991   O1060   1.292   .     A
C991   C997    1.429   .     S
C992   O1062   1.292   .     A
C992   O1061   1.292   .     A
C992   C995    1.426   .     S
C993   H1023   1.086   .     S
C993   C1004   1.375   .     A
C993   C995    1.383   .     A
C994   C1005   1.378   .     A
C994   C997    1.385   .     A
C994   H1031   1.086   .     S
C995   C998    1.408   .     A
C996   O1058   1.292   .     A
C996   O1052   1.292   .     A
C996   C1022   1.421   .     S
C997   C999    1.407   .     A
C998   C1000   1.414   .     A
C998   C1009   1.486   .     S
C999   C1010   1.483   .     S
C999   C1001   1.412   .     A
C1000  C1006   1.425   .     A
C1000  C1002   1.426   .     A
C1001  C1008   1.424   .     A
C1001  C1003   1.425   .     A
C1002  C1004   1.409   .     A
C1002  C265    1.398   1_556 S
C1003  C1005   1.408   .     A
C1004  C1017   1.392   .     A
C1005  C1007   1.393   .     A
C1006  C1011   1.485   .     S
C1006  C269    1.391   1_556 S
C1007  H1032   1.086   .     S
C1008  C1012   1.485   .     S
C1009  O1064   1.222   .     D
C1009  O1042   1.398   .     S
C1010  O1043   1.223   .     D
C1010  O1044   1.395   .     S
C1011  O1045   1.223   .     D
C1011  O1046   1.398   .     S
C1012  O1048   1.398   .     S
C1012  O1047   1.223   .     D
C1013  O1049   1.223   .     D
C1013  O1050   1.395   .     S
C1014  O1051   1.223   .     D
C1014  O1053   1.395   .     S
C1015  O1054   1.223   .     D
C1015  O1055   1.395   .     S
C1016  O1056   1.223   .     D
C1016  O1057   1.395   .     S
C1017  H1033   1.086   .     S
C1017  C270    1.390   1_556 S
C1018  H1034   1.082   .     S
C1018  C1184   1.368   1_455 S
C1019  C1022   1.397   .     A
C1019  H1035   1.082   .     S
C1019  C1103   1.367   .     S
C1020  H1036   1.082   .     S
C1020  C1022   1.397   .     A
C1020  C1100   1.368   .     S
C1021  H1037   1.083   .     S
C1021  C1183   1.367   1_455 S
H1024  O1044   1.013   .     S
H1025  O1128   1.014   .     S
H1026  O1048   1.014   .     S
H1027  O1050   1.014   .     S
H1028  O1053   1.014   .     S
H1029  O1055   1.013   .     S
H1030  O1057   1.013   .     S
H1038  O1042   1.014   .     S
N1039  Zn1065  2.032   .     S
N1040  Zn1066  2.032   .     S
O1041  Zn1065  1.999   .     S
O1046  H1189   1.014   1_455 S
O1052  Zn1066  1.999   .     S
O1058  Zn1065  1.999   .     S
O1059  Zn1066  1.999   .     S
O1060  Zn1065  2.008   .     S
O1061  Zn1066  2.008   .     S
O1062  Zn1065  2.012   .     S
O1063  Zn1066  2.012   .     S
C1067  C1068   1.420   .     S
C1067  O1141   1.292   .     A
C1067  O1123   1.292   .     A
C1068  C1100   1.397   .     A
C1068  C1103   1.396   .     A
C1069  C1095   1.474   .     S
C1069  N1122   1.374   .     A
C1070  N1121   1.374   .     A
C1070  C1096   1.474   .     S
C1070  C1317   1.428   .     S
C1071  N1122   1.373   .     A
C1071  C1097   1.473   .     S
C1072  C1098   1.473   .     S
C1072  N1121   1.373   .     A
C1072  C1315   1.428   .     S
C1073  O1145   1.294   .     A
C1073  O1142   1.292   .     A
C1073  C1079   1.429   .     S
C1074  O1144   1.292   .     A
C1074  O1143   1.292   .     A
C1074  C1077   1.426   .     S
C1075  H1105   1.086   .     S
C1075  C1086   1.375   .     A
C1075  C1077   1.383   .     A
C1076  C1087   1.378   .     A
C1076  C1079   1.385   .     A
C1076  H1113   1.086   .     S
C1077  C1080   1.408   .     A
C1078  O1140   1.292   .     A
C1078  O1134   1.292   .     A
C1078  C1104   1.421   .     S
C1079  C1081   1.407   .     A
C1080  C1082   1.414   .     A
C1080  C1091   1.486   .     S
C1081  C1092   1.483   .     S
C1081  C1083   1.412   .     A
C1082  C1088   1.425   .     A
C1082  C1084   1.426   .     A
C1083  C1090   1.424   .     A
C1083  C1085   1.425   .     A
C1084  C1086   1.409   .     A
C1084  C347    1.398   1_556 S
C1085  C1087   1.408   .     A
C1086  C1099   1.392   .     A
C1087  C1089   1.393   .     A
C1088  C1093   1.485   .     S
C1088  C351    1.391   1_556 S
C1089  H1114   1.086   .     S
C1090  C1094   1.485   .     S
C1091  O1146   1.222   .     D
C1091  O1124   1.398   .     S
C1092  O1125   1.223   .     D
C1092  O1126   1.395   .     S
C1093  O1127   1.223   .     D
C1093  O1128   1.398   .     S
C1094  O1130   1.398   .     S
C1094  O1129   1.223   .     D
C1095  O1131   1.223   .     D
C1095  O1132   1.395   .     S
C1096  O1133   1.223   .     D
C1096  O1135   1.395   .     S
C1097  O1136   1.223   .     D
C1097  O1137   1.395   .     S
C1098  O1138   1.223   .     D
C1098  O1139   1.395   .     S
C1099  H1115   1.086   .     S
C1099  C352    1.390   1_556 S
C1100  H1116   1.082   .     S
C1101  C1104   1.397   .     A
C1101  H1117   1.082   .     S
C1101  C1185   1.367   .     S
C1102  H1118   1.082   .     S
C1102  C1104   1.397   .     A
C1102  C1182   1.368   .     S
C1103  H1119   1.083   .     S
H1106  O1126   1.013   .     S
H1107  O1210   1.014   .     S
H1108  O1130   1.014   .     S
H1109  O1132   1.014   .     S
H1110  O1135   1.014   .     S
H1111  O1137   1.013   .     S
H1112  O1139   1.013   .     S
H1120  O1124   1.014   .     S
N1121  Zn1147  2.032   .     S
N1122  Zn1148  2.032   .     S
O1123  Zn1147  1.999   .     S
O1134  Zn1148  1.999   .     S
O1140  Zn1147  1.999   .     S
O1141  Zn1148  1.999   .     S
O1142  Zn1147  2.008   .     S
O1143  Zn1148  2.008   .     S
O1144  Zn1147  2.012   .     S
O1145  Zn1148  2.012   .     S
C1149  C1150   1.420   .     S
C1149  O1223   1.292   .     A
C1149  O1205   1.292   .     A
C1150  C1182   1.397   .     A
C1150  C1185   1.396   .     A
C1151  C1177   1.474   .     S
C1151  N1204   1.374   .     A
C1152  N1203   1.374   .     A
C1152  C1178   1.474   .     S
C1152  C1399   1.428   .     S
C1153  N1204   1.373   .     A
C1153  C1179   1.473   .     S
C1154  C1180   1.473   .     S
C1154  N1203   1.373   .     A
C1154  C1397   1.428   .     S
C1155  O1227   1.294   .     A
C1155  O1224   1.292   .     A
C1155  C1161   1.429   .     S
C1156  O1226   1.292   .     A
C1156  O1225   1.292   .     A
C1156  C1159   1.426   .     S
C1157  H1187   1.086   .     S
C1157  C1168   1.375   .     A
C1157  C1159   1.383   .     A
C1158  C1169   1.378   .     A
C1158  C1161   1.385   .     A
C1158  H1195   1.086   .     S
C1159  C1162   1.408   .     A
C1160  O1222   1.292   .     A
C1160  O1216   1.292   .     A
C1160  C1186   1.421   .     S
C1161  C1163   1.407   .     A
C1162  C1164   1.414   .     A
C1162  C1173   1.486   .     S
C1163  C1174   1.483   .     S
C1163  C1165   1.412   .     A
C1164  C1170   1.425   .     A
C1164  C1166   1.426   .     A
C1165  C1172   1.424   .     A
C1165  C1167   1.425   .     A
C1166  C1168   1.409   .     A
C1166  C429    1.398   1_556 S
C1167  C1169   1.408   .     A
C1168  C1181   1.392   .     A
C1169  C1171   1.393   .     A
C1170  C1175   1.485   .     S
C1170  C433    1.391   1_556 S
C1171  H1196   1.086   .     S
C1172  C1176   1.485   .     S
C1173  O1228   1.222   .     D
C1173  O1206   1.398   .     S
C1174  O1207   1.223   .     D
C1174  O1208   1.395   .     S
C1175  O1209   1.223   .     D
C1175  O1210   1.398   .     S
C1176  O1212   1.398   .     S
C1176  O1211   1.223   .     D
C1177  O1213   1.223   .     D
C1177  O1214   1.395   .     S
C1178  O1215   1.223   .     D
C1178  O1217   1.395   .     S
C1179  O1218   1.223   .     D
C1179  O1219   1.395   .     S
C1180  O1220   1.223   .     D
C1180  O1221   1.395   .     S
C1181  H1197   1.086   .     S
C1181  C434    1.390   1_556 S
C1182  H1198   1.082   .     S
C1183  C1186   1.397   .     A
C1183  H1199   1.082   .     S
C1183  C1021   1.367   1_655 S
C1184  H1200   1.082   .     S
C1184  C1186   1.397   .     A
C1184  C1018   1.368   1_655 S
C1185  H1201   1.083   .     S
H1188  O1208   1.013   .     S
H1189  O1046   1.014   1_655 S
H1190  O1212   1.014   .     S
H1191  O1214   1.014   .     S
H1192  O1217   1.014   .     S
H1193  O1219   1.013   .     S
H1194  O1221   1.013   .     S
H1202  O1206   1.014   .     S
N1203  Zn1229  2.032   .     S
N1204  Zn1230  2.032   .     S
O1205  Zn1229  1.999   .     S
O1216  Zn1230  1.999   .     S
O1222  Zn1229  1.999   .     S
O1223  Zn1230  1.999   .     S
O1224  Zn1229  2.008   .     S
O1225  Zn1230  2.008   .     S
O1226  Zn1229  2.012   .     S
O1227  Zn1230  2.012   .     S
C1231  C1232   1.420   .     S
C1231  O1305   1.292   .     A
C1231  O1287   1.292   .     A
C1232  C1264   1.397   .     A
C1232  C1267   1.396   .     A
C1233  C1259   1.474   .     S
C1233  N1286   1.374   .     A
C1234  N1285   1.374   .     A
C1234  C1260   1.474   .     S
C1234  C743    1.428   1_565 S
C1235  N1286   1.373   .     A
C1235  C1261   1.473   .     S
C1236  C1262   1.473   .     S
C1236  N1285   1.373   .     A
C1236  C741    1.428   1_565 S
C1237  O1309   1.294   .     A
C1237  O1306   1.292   .     A
C1237  C1243   1.429   .     S
C1238  O1308   1.292   .     A
C1238  O1307   1.292   .     A
C1238  C1241   1.426   .     S
C1239  H1269   1.086   .     S
C1239  C1250   1.375   .     A
C1239  C1241   1.383   .     A
C1240  C1251   1.378   .     A
C1240  C1243   1.385   .     A
C1240  H1277   1.086   .     S
C1241  C1244   1.408   .     A
C1242  O1304   1.292   .     A
C1242  O1298   1.292   .     A
C1242  C1268   1.421   .     S
C1243  C1245   1.407   .     A
C1244  C1246   1.414   .     A
C1244  C1255   1.486   .     S
C1245  C1256   1.483   .     S
C1245  C1247   1.412   .     A
C1246  C1252   1.425   .     A
C1246  C1248   1.426   .     A
C1247  C1254   1.424   .     A
C1247  C1249   1.425   .     A
C1248  C1250   1.409   .     A
C1248  C511    1.398   1_556 S
C1249  C1251   1.408   .     A
C1250  C1263   1.392   .     A
C1251  C1253   1.393   .     A
C1252  C1257   1.485   .     S
C1252  C515    1.391   1_556 S
C1253  H1278   1.086   .     S
C1254  C1258   1.485   .     S
C1255  O1310   1.222   .     D
C1255  O1288   1.398   .     S
C1256  O1289   1.223   .     D
C1256  O1290   1.395   .     S
C1257  O1291   1.223   .     D
C1257  O1292   1.398   .     S
C1258  O1294   1.398   .     S
C1258  O1293   1.223   .     D
C1259  O1295   1.223   .     D
C1259  O1296   1.395   .     S
C1260  O1297   1.223   .     D
C1260  O1299   1.395   .     S
C1261  O1300   1.223   .     D
C1261  O1301   1.395   .     S
C1262  O1302   1.223   .     D
C1262  O1303   1.395   .     S
C1263  H1279   1.086   .     S
C1263  C516    1.390   1_556 S
C1264  H1280   1.082   .     S
C1264  C1430   1.368   1_455 S
C1265  C1268   1.397   .     A
C1265  H1281   1.082   .     S
C1265  C1349   1.367   .     S
C1266  H1282   1.082   .     S
C1266  C1268   1.397   .     A
C1266  C1346   1.368   .     S
C1267  H1283   1.083   .     S
C1267  C1429   1.367   1_455 S
H1270  O1290   1.013   .     S
H1271  O1374   1.014   .     S
H1272  O1294   1.014   .     S
H1273  O1296   1.014   .     S
H1274  O1299   1.014   .     S
H1275  O1301   1.013   .     S
H1276  O1303   1.013   .     S
H1284  O1288   1.014   .     S
N1285  Zn1311  2.032   .     S
N1286  Zn1312  2.032   .     S
O1287  Zn1311  1.999   .     S
O1292  H1435   1.014   1_455 S
O1298  Zn1312  1.999   .     S
O1304  Zn1311  1.999   .     S
O1305  Zn1312  1.999   .     S
O1306  Zn1311  2.008   .     S
O1307  Zn1312  2.008   .     S
O1308  Zn1311  2.012   .     S
O1309  Zn1312  2.012   .     S
C1313  C1314   1.420   .     S
C1313  O1387   1.292   .     A
C1313  O1369   1.292   .     A
C1314  C1346   1.397   .     A
C1314  C1349   1.396   .     A
C1315  C1341   1.474   .     S
C1315  N1368   1.374   .     A
C1316  N1367   1.374   .     A
C1316  C1342   1.474   .     S
C1316  C825    1.428   1_565 S
C1317  N1368   1.373   .     A
C1317  C1343   1.473   .     S
C1318  C1344   1.473   .     S
C1318  N1367   1.373   .     A
C1318  C823    1.428   1_565 S
C1319  O1391   1.294   .     A
C1319  O1388   1.292   .     A
C1319  C1325   1.429   .     S
C1320  O1390   1.292   .     A
C1320  O1389   1.292   .     A
C1320  C1323   1.426   .     S
C1321  H1351   1.086   .     S
C1321  C1332   1.375   .     A
C1321  C1323   1.383   .     A
C1322  C1333   1.378   .     A
C1322  C1325   1.385   .     A
C1322  H1359   1.086   .     S
C1323  C1326   1.408   .     A
C1324  O1386   1.292   .     A
C1324  O1380   1.292   .     A
C1324  C1350   1.421   .     S
C1325  C1327   1.407   .     A
C1326  C1328   1.414   .     A
C1326  C1337   1.486   .     S
C1327  C1338   1.483   .     S
C1327  C1329   1.412   .     A
C1328  C1334   1.425   .     A
C1328  C1330   1.426   .     A
C1329  C1336   1.424   .     A
C1329  C1331   1.425   .     A
C1330  C1332   1.409   .     A
C1330  C593    1.398   1_556 S
C1331  C1333   1.408   .     A
C1332  C1345   1.392   .     A
C1333  C1335   1.393   .     A
C1334  C1339   1.485   .     S
C1334  C597    1.391   1_556 S
C1335  H1360   1.086   .     S
C1336  C1340   1.485   .     S
C1337  O1392   1.222   .     D
C1337  O1370   1.398   .     S
C1338  O1371   1.223   .     D
C1338  O1372   1.395   .     S
C1339  O1373   1.223   .     D
C1339  O1374   1.398   .     S
C1340  O1376   1.398   .     S
C1340  O1375   1.223   .     D
C1341  O1377   1.223   .     D
C1341  O1378   1.395   .     S
C1342  O1379   1.223   .     D
C1342  O1381   1.395   .     S
C1343  O1382   1.223   .     D
C1343  O1383   1.395   .     S
C1344  O1384   1.223   .     D
C1344  O1385   1.395   .     S
C1345  H1361   1.086   .     S
C1345  C598    1.390   1_556 S
C1346  H1362   1.082   .     S
C1347  C1350   1.397   .     A
C1347  H1363   1.082   .     S
C1347  C1431   1.367   .     S
C1348  H1364   1.082   .     S
C1348  C1350   1.397   .     A
C1348  C1428   1.368   .     S
C1349  H1365   1.083   .     S
H1352  O1372   1.013   .     S
H1353  O1456   1.014   .     S
H1354  O1376   1.014   .     S
H1355  O1378   1.014   .     S
H1356  O1381   1.014   .     S
H1357  O1383   1.013   .     S
H1358  O1385   1.013   .     S
H1366  O1370   1.014   .     S
N1367  Zn1393  2.032   .     S
N1368  Zn1394  2.032   .     S
O1369  Zn1393  1.999   .     S
O1380  Zn1394  1.999   .     S
O1386  Zn1393  1.999   .     S
O1387  Zn1394  1.999   .     S
O1388  Zn1393  2.008   .     S
O1389  Zn1394  2.008   .     S
O1390  Zn1393  2.012   .     S
O1391  Zn1394  2.012   .     S
C1395  C1396   1.420   .     S
C1395  O1469   1.292   .     A
C1395  O1451   1.292   .     A
C1396  C1428   1.397   .     A
C1396  C1431   1.396   .     A
C1397  C1423   1.474   .     S
C1397  N1450   1.374   .     A
C1398  N1449   1.374   .     A
C1398  C1424   1.474   .     S
C1398  C907    1.428   1_565 S
C1399  N1450   1.373   .     A
C1399  C1425   1.473   .     S
C1400  C1426   1.473   .     S
C1400  N1449   1.373   .     A
C1400  C905    1.428   1_565 S
C1401  O1473   1.294   .     A
C1401  O1470   1.292   .     A
C1401  C1407   1.429   .     S
C1402  O1472   1.292   .     A
C1402  O1471   1.292   .     A
C1402  C1405   1.426   .     S
C1403  H1433   1.086   .     S
C1403  C1414   1.375   .     A
C1403  C1405   1.383   .     A
C1404  C1415   1.378   .     A
C1404  C1407   1.385   .     A
C1404  H1441   1.086   .     S
C1405  C1408   1.408   .     A
C1406  O1468   1.292   .     A
C1406  O1462   1.292   .     A
C1406  C1432   1.421   .     S
C1407  C1409   1.407   .     A
C1408  C1410   1.414   .     A
C1408  C1419   1.486   .     S
C1409  C1420   1.483   .     S
C1409  C1411   1.412   .     A
C1410  C1416   1.425   .     A
C1410  C1412   1.426   .     A
C1411  C1418   1.424   .     A
C1411  C1413   1.425   .     A
C1412  C1414   1.409   .     A
C1412  C675    1.398   1_556 S
C1413  C1415   1.408   .     A
C1414  C1427   1.392   .     A
C1415  C1417   1.393   .     A
C1416  C1421   1.485   .     S
C1416  C679    1.391   1_556 S
C1417  H1442   1.086   .     S
C1418  C1422   1.485   .     S
C1419  O1474   1.222   .     D
C1419  O1452   1.398   .     S
C1420  O1453   1.223   .     D
C1420  O1454   1.395   .     S
C1421  O1455   1.223   .     D
C1421  O1456   1.398   .     S
C1422  O1458   1.398   .     S
C1422  O1457   1.223   .     D
C1423  O1459   1.223   .     D
C1423  O1460   1.395   .     S
C1424  O1461   1.223   .     D
C1424  O1463   1.395   .     S
C1425  O1464   1.223   .     D
C1425  O1465   1.395   .     S
C1426  O1466   1.223   .     D
C1426  O1467   1.395   .     S
C1427  H1443   1.086   .     S
C1427  C680    1.390   1_556 S
C1428  H1444   1.082   .     S
C1429  C1432   1.397   .     A
C1429  H1445   1.082   .     S
C1429  C1267   1.367   1_655 S
C1430  H1446   1.082   .     S
C1430  C1432   1.397   .     A
C1430  C1264   1.368   1_655 S
C1431  H1447   1.083   .     S
H1434  O1454   1.013   .     S
H1435  O1292   1.014   1_655 S
H1436  O1458   1.014   .     S
H1437  O1460   1.014   .     S
H1438  O1463   1.014   .     S
H1439  O1465   1.013   .     S
H1440  O1467   1.013   .     S
H1448  O1452   1.014   .     S
N1449  Zn1475  2.032   .     S
N1450  Zn1476  2.032   .     S
O1451  Zn1475  1.999   .     S
O1462  Zn1476  1.999   .     S
O1468  Zn1475  1.999   .     S
O1469  Zn1476  1.999   .     S
O1470  Zn1475  2.008   .     S
O1471  Zn1476  2.008   .     S
O1472  Zn1475  2.012   .     S
O1473  Zn1476  2.012   .     S
