data_str_m3_o10_o16_pcu_sym.50
_audit_creation_date              2020-01-03
_audit_creation_method            'Materials Studio'
_symmetry_space_group_name_H-M    'P1'
_symmetry_Int_Tables_number       1
_symmetry_cell_setting            triclinic
loop_
_symmetry_equiv_pos_as_xyz
  x,y,z
_cell_length_a                    23.4692
_cell_length_b                    25.7210
_cell_length_c                    25.1101
_cell_angle_alpha                 92.5058
_cell_angle_beta                  102.4420
_cell_angle_gamma                 93.9452
loop_
_atom_site_label
_atom_site_type_symbol
_atom_site_fract_x
_atom_site_fract_y
_atom_site_fract_z
_atom_site_U_iso_or_equiv
_atom_site_adp_type
_atom_site_occupancy
Br1    Br    0.11002   0.20111   0.10278   0.00000  Uiso   1.00
C2     C     0.01477   0.26485   0.24857   0.00000  Uiso   1.00
C3     C     0.06303   0.19436   0.41139   0.00000  Uiso   1.00
C4     C     0.02247   0.31938   0.24774   0.00000  Uiso   1.00
C5     C     0.03815   0.17658   0.35385   0.00000  Uiso   1.00
C6     C     0.31084   0.01394   0.25218   0.00000  Uiso   1.00
C7     C     0.31855   0.06848   0.25140   0.00000  Uiso   1.00
C8     C     0.29692   0.16272   0.14604   0.00000  Uiso   1.00
C9     C     0.27988   0.12547   0.49837   0.00000  Uiso   1.00
C10    C     0.27653   0.15904   0.08807   0.00000  Uiso   1.00
C11    C     0.02643   0.21321   0.44351   0.00000  Uiso   1.00
C12    C     0.04602   0.22044   0.49967   0.00000  Uiso   1.00
C13    C     0.14169   0.19182   0.49286   0.00000  Uiso   1.00
C14    C     0.10120   0.20625   0.02526   0.00000  Uiso   1.00
C15    C     0.12308   0.19081   0.43540   0.00000  Uiso   1.00
C16    C     0.19862   0.17550   0.01346   0.00000  Uiso   1.00
C17    C     0.22958   0.15085   0.47780   0.00000  Uiso   1.00
C18    C     0.21356   0.15744   0.42261   0.00000  Uiso   1.00
C19    C     0.16520   0.18410   0.40367   0.00000  Uiso   1.00
C20    C     0.22775   0.18513   0.06712   0.00000  Uiso   1.00
C21    C     0.30216   0.12786   0.05427   0.00000  Uiso   1.00
H22    H     0.00687   0.10731   0.07076   0.00000  Uiso   1.00
H23    H     0.16161   0.19932   0.36430   0.00000  Uiso   1.00
H24    H     0.06488   0.00306   0.24351   0.00000  Uiso   1.00
H25    H     0.26842   0.33026   0.25640   0.00000  Uiso   1.00
H26    H     0.15704   0.12237   0.21264   0.00000  Uiso   1.00
H27    H     0.17627   0.21311   0.28403   0.00000  Uiso   1.00
H28    H     0.24072   0.14582   0.39506   0.00000  Uiso   1.00
H29    H     0.30245   0.10519   0.47135   0.00000  Uiso   1.00
H30    H     0.21515   0.21485   0.09272   0.00000  Uiso   1.00
H31    H     0.31522   0.22084   0.42543   0.00000  Uiso   1.00
H32    H     0.01584   0.23298   0.02384   0.00000  Uiso   1.00
N33    N     0.14493   0.15223   0.23542   0.00000  Uiso   1.00
N34    N     0.18840   0.18110   0.26457   0.00000  Uiso   1.00
O35    O     0.29769   0.24629   0.25357   0.00000  Uiso   1.00
O36    O     0.05742   0.23704   0.24423   0.00000  Uiso   1.00
O37    O     0.31490   0.17358   0.33380   0.00000  Uiso   1.00
O38    O     0.07463   0.16433   0.32446   0.00000  Uiso   1.00
O39    O     0.27592   0.09629   0.25576   0.00000  Uiso   1.00
O40    O     0.03565   0.08704   0.24642   0.00000  Uiso   1.00
O41    O     0.25870   0.16901   0.17554   0.00000  Uiso   1.00
O42    O     0.01843   0.15976   0.16620   0.00000  Uiso   1.00
Zn43   Zn    0.27119   0.17284   0.25623   0.00000  Uiso   1.00
Zn44   Zn    0.06214   0.16049   0.24376   0.00000  Uiso   1.00
Br45   Br    0.44336   0.20111   0.10278   0.00000  Uiso   1.00
C46    C     0.34811   0.26485   0.24857   0.00000  Uiso   1.00
C47    C     0.39637   0.19436   0.41139   0.00000  Uiso   1.00
C48    C     0.35580   0.31938   0.24774   0.00000  Uiso   1.00
C49    C     0.37148   0.17658   0.35385   0.00000  Uiso   1.00
C50    C     0.64417   0.01394   0.25218   0.00000  Uiso   1.00
C51    C     0.65189   0.06848   0.25140   0.00000  Uiso   1.00
C52    C     0.63026   0.16272   0.14604   0.00000  Uiso   1.00
C53    C     0.61321   0.12547   0.49837   0.00000  Uiso   1.00
C54    C     0.60987   0.15904   0.08807   0.00000  Uiso   1.00
C55    C     0.35977   0.21321   0.44351   0.00000  Uiso   1.00
C56    C     0.37935   0.22044   0.49967   0.00000  Uiso   1.00
C57    C     0.47502   0.19182   0.49286   0.00000  Uiso   1.00
C58    C     0.43453   0.20625   0.02526   0.00000  Uiso   1.00
C59    C     0.45641   0.19081   0.43540   0.00000  Uiso   1.00
C60    C     0.53195   0.17550   0.01346   0.00000  Uiso   1.00
C61    C     0.56292   0.15085   0.47780   0.00000  Uiso   1.00
C62    C     0.54689   0.15744   0.42261   0.00000  Uiso   1.00
C63    C     0.49853   0.18410   0.40367   0.00000  Uiso   1.00
C64    C     0.56108   0.18513   0.06712   0.00000  Uiso   1.00
C65    C     0.63549   0.12786   0.05427   0.00000  Uiso   1.00
H66    H     0.34020   0.10731   0.07076   0.00000  Uiso   1.00
H67    H     0.49494   0.19932   0.36430   0.00000  Uiso   1.00
H68    H     0.39822   0.00306   0.24351   0.00000  Uiso   1.00
H69    H     0.60176   0.33026   0.25640   0.00000  Uiso   1.00
H70    H     0.49037   0.12237   0.21264   0.00000  Uiso   1.00
H71    H     0.50961   0.21311   0.28403   0.00000  Uiso   1.00
H72    H     0.57406   0.14582   0.39506   0.00000  Uiso   1.00
H73    H     0.63578   0.10519   0.47135   0.00000  Uiso   1.00
H74    H     0.54848   0.21485   0.09272   0.00000  Uiso   1.00
H75    H     0.64855   0.22084   0.42543   0.00000  Uiso   1.00
H76    H     0.34917   0.23298   0.02384   0.00000  Uiso   1.00
N77    N     0.47827   0.15223   0.23542   0.00000  Uiso   1.00
N78    N     0.52173   0.18110   0.26457   0.00000  Uiso   1.00
O79    O     0.63102   0.24629   0.25357   0.00000  Uiso   1.00
O80    O     0.39075   0.23704   0.24423   0.00000  Uiso   1.00
O81    O     0.64823   0.17358   0.33380   0.00000  Uiso   1.00
O82    O     0.40796   0.16433   0.32446   0.00000  Uiso   1.00
O83    O     0.60925   0.09629   0.25576   0.00000  Uiso   1.00
O84    O     0.36898   0.08704   0.24642   0.00000  Uiso   1.00
O85    O     0.59204   0.16901   0.17554   0.00000  Uiso   1.00
O86    O     0.35177   0.15976   0.16620   0.00000  Uiso   1.00
Zn87   Zn    0.60453   0.17284   0.25623   0.00000  Uiso   1.00
Zn88   Zn    0.39547   0.16049   0.24376   0.00000  Uiso   1.00
Br89   Br    0.77669   0.20111   0.10278   0.00000  Uiso   1.00
C90    C     0.68144   0.26485   0.24857   0.00000  Uiso   1.00
C91    C     0.72970   0.19436   0.41139   0.00000  Uiso   1.00
C92    C     0.68914   0.31938   0.24774   0.00000  Uiso   1.00
C93    C     0.70481   0.17658   0.35385   0.00000  Uiso   1.00
C94    C     0.97751   0.01394   0.25218   0.00000  Uiso   1.00
C95    C     0.98522   0.06848   0.25140   0.00000  Uiso   1.00
C96    C     0.96359   0.16272   0.14604   0.00000  Uiso   1.00
C97    C     0.94654   0.12547   0.49837   0.00000  Uiso   1.00
C98    C     0.94320   0.15904   0.08807   0.00000  Uiso   1.00
C99    C     0.69310   0.21321   0.44351   0.00000  Uiso   1.00
C100   C     0.71268   0.22044   0.49967   0.00000  Uiso   1.00
C101   C     0.80835   0.19182   0.49286   0.00000  Uiso   1.00
C102   C     0.76786   0.20625   0.02526   0.00000  Uiso   1.00
C103   C     0.78974   0.19081   0.43540   0.00000  Uiso   1.00
C104   C     0.86528   0.17550   0.01346   0.00000  Uiso   1.00
C105   C     0.89625   0.15085   0.47780   0.00000  Uiso   1.00
C106   C     0.88023   0.15744   0.42261   0.00000  Uiso   1.00
C107   C     0.83186   0.18410   0.40367   0.00000  Uiso   1.00
C108   C     0.89441   0.18513   0.06712   0.00000  Uiso   1.00
C109   C     0.96883   0.12786   0.05427   0.00000  Uiso   1.00
H110   H     0.67353   0.10731   0.07076   0.00000  Uiso   1.00
H111   H     0.82828   0.19932   0.36430   0.00000  Uiso   1.00
H112   H     0.73155   0.00306   0.24351   0.00000  Uiso   1.00
H113   H     0.93509   0.33026   0.25640   0.00000  Uiso   1.00
H114   H     0.82371   0.12237   0.21264   0.00000  Uiso   1.00
H115   H     0.84294   0.21311   0.28403   0.00000  Uiso   1.00
H116   H     0.90739   0.14582   0.39506   0.00000  Uiso   1.00
H117   H     0.96911   0.10519   0.47135   0.00000  Uiso   1.00
H118   H     0.88182   0.21485   0.09272   0.00000  Uiso   1.00
H119   H     0.98188   0.22084   0.42543   0.00000  Uiso   1.00
H120   H     0.68251   0.23298   0.02384   0.00000  Uiso   1.00
N121   N     0.81160   0.15223   0.23542   0.00000  Uiso   1.00
N122   N     0.85507   0.18110   0.26457   0.00000  Uiso   1.00
O123   O     0.96435   0.24629   0.25357   0.00000  Uiso   1.00
O124   O     0.72408   0.23704   0.24423   0.00000  Uiso   1.00
O125   O     0.98157   0.17358   0.33380   0.00000  Uiso   1.00
O126   O     0.74130   0.16433   0.32446   0.00000  Uiso   1.00
O127   O     0.94258   0.09629   0.25576   0.00000  Uiso   1.00
O128   O     0.70231   0.08704   0.24642   0.00000  Uiso   1.00
O129   O     0.92537   0.16901   0.17554   0.00000  Uiso   1.00
O130   O     0.68510   0.15976   0.16620   0.00000  Uiso   1.00
Zn131  Zn    0.93786   0.17284   0.25623   0.00000  Uiso   1.00
Zn132  Zn    0.72881   0.16049   0.24376   0.00000  Uiso   1.00
Br133  Br    0.11002   0.53444   0.10278   0.00000  Uiso   1.00
C134   C     0.01477   0.59819   0.24857   0.00000  Uiso   1.00
C135   C     0.06303   0.52769   0.41139   0.00000  Uiso   1.00
C136   C     0.02247   0.65272   0.24774   0.00000  Uiso   1.00
C137   C     0.03815   0.50991   0.35385   0.00000  Uiso   1.00
C138   C     0.31084   0.34728   0.25218   0.00000  Uiso   1.00
C139   C     0.31855   0.40181   0.25140   0.00000  Uiso   1.00
C140   C     0.29692   0.49605   0.14604   0.00000  Uiso   1.00
C141   C     0.27988   0.45880   0.49837   0.00000  Uiso   1.00
C142   C     0.27653   0.49238   0.08807   0.00000  Uiso   1.00
C143   C     0.02643   0.54655   0.44351   0.00000  Uiso   1.00
C144   C     0.04602   0.55378   0.49967   0.00000  Uiso   1.00
C145   C     0.14169   0.52515   0.49286   0.00000  Uiso   1.00
C146   C     0.10120   0.53959   0.02526   0.00000  Uiso   1.00
C147   C     0.12308   0.52415   0.43540   0.00000  Uiso   1.00
C148   C     0.19862   0.50883   0.01346   0.00000  Uiso   1.00
C149   C     0.22958   0.48418   0.47780   0.00000  Uiso   1.00
C150   C     0.21356   0.49077   0.42261   0.00000  Uiso   1.00
C151   C     0.16520   0.51743   0.40367   0.00000  Uiso   1.00
C152   C     0.22775   0.51846   0.06712   0.00000  Uiso   1.00
C153   C     0.30216   0.46120   0.05427   0.00000  Uiso   1.00
H154   H     0.00687   0.44064   0.07076   0.00000  Uiso   1.00
H155   H     0.16161   0.53266   0.36430   0.00000  Uiso   1.00
H156   H     0.06488   0.33639   0.24351   0.00000  Uiso   1.00
H157   H     0.26842   0.66360   0.25640   0.00000  Uiso   1.00
H158   H     0.15704   0.45571   0.21264   0.00000  Uiso   1.00
H159   H     0.17627   0.54644   0.28403   0.00000  Uiso   1.00
H160   H     0.24072   0.47915   0.39506   0.00000  Uiso   1.00
H161   H     0.30245   0.43852   0.47135   0.00000  Uiso   1.00
H162   H     0.21515   0.54819   0.09272   0.00000  Uiso   1.00
H163   H     0.31522   0.55418   0.42543   0.00000  Uiso   1.00
H164   H     0.01584   0.56631   0.02384   0.00000  Uiso   1.00
N165   N     0.14493   0.48556   0.23542   0.00000  Uiso   1.00
N166   N     0.18840   0.51444   0.26457   0.00000  Uiso   1.00
O167   O     0.29769   0.57963   0.25357   0.00000  Uiso   1.00
O168   O     0.05742   0.57038   0.24423   0.00000  Uiso   1.00
O169   O     0.31490   0.50691   0.33380   0.00000  Uiso   1.00
O170   O     0.07463   0.49766   0.32446   0.00000  Uiso   1.00
O171   O     0.27592   0.42962   0.25576   0.00000  Uiso   1.00
O172   O     0.03565   0.42037   0.24642   0.00000  Uiso   1.00
O173   O     0.25870   0.50234   0.17554   0.00000  Uiso   1.00
O174   O     0.01843   0.49309   0.16620   0.00000  Uiso   1.00
Zn175  Zn    0.27119   0.50618   0.25623   0.00000  Uiso   1.00
Zn176  Zn    0.06214   0.49382   0.24376   0.00000  Uiso   1.00
Br177  Br    0.44336   0.53444   0.10278   0.00000  Uiso   1.00
C178   C     0.34811   0.59819   0.24857   0.00000  Uiso   1.00
C179   C     0.39637   0.52769   0.41139   0.00000  Uiso   1.00
C180   C     0.35580   0.65272   0.24774   0.00000  Uiso   1.00
C181   C     0.37148   0.50991   0.35385   0.00000  Uiso   1.00
C182   C     0.64417   0.34728   0.25218   0.00000  Uiso   1.00
C183   C     0.65189   0.40181   0.25140   0.00000  Uiso   1.00
C184   C     0.63026   0.49605   0.14604   0.00000  Uiso   1.00
C185   C     0.61321   0.45880   0.49837   0.00000  Uiso   1.00
C186   C     0.60987   0.49238   0.08807   0.00000  Uiso   1.00
C187   C     0.35977   0.54655   0.44351   0.00000  Uiso   1.00
C188   C     0.37935   0.55378   0.49967   0.00000  Uiso   1.00
C189   C     0.47502   0.52515   0.49286   0.00000  Uiso   1.00
C190   C     0.43453   0.53959   0.02526   0.00000  Uiso   1.00
C191   C     0.45641   0.52415   0.43540   0.00000  Uiso   1.00
C192   C     0.53195   0.50883   0.01346   0.00000  Uiso   1.00
C193   C     0.56292   0.48418   0.47780   0.00000  Uiso   1.00
C194   C     0.54689   0.49077   0.42261   0.00000  Uiso   1.00
C195   C     0.49853   0.51743   0.40367   0.00000  Uiso   1.00
C196   C     0.56108   0.51846   0.06712   0.00000  Uiso   1.00
C197   C     0.63549   0.46120   0.05427   0.00000  Uiso   1.00
H198   H     0.34020   0.44064   0.07076   0.00000  Uiso   1.00
H199   H     0.49494   0.53266   0.36430   0.00000  Uiso   1.00
H200   H     0.39822   0.33639   0.24351   0.00000  Uiso   1.00
H201   H     0.60176   0.66360   0.25640   0.00000  Uiso   1.00
H202   H     0.49037   0.45571   0.21264   0.00000  Uiso   1.00
H203   H     0.50961   0.54644   0.28403   0.00000  Uiso   1.00
H204   H     0.57406   0.47915   0.39506   0.00000  Uiso   1.00
H205   H     0.63578   0.43852   0.47135   0.00000  Uiso   1.00
H206   H     0.54848   0.54819   0.09272   0.00000  Uiso   1.00
H207   H     0.64855   0.55418   0.42543   0.00000  Uiso   1.00
H208   H     0.34917   0.56631   0.02384   0.00000  Uiso   1.00
N209   N     0.47827   0.48556   0.23542   0.00000  Uiso   1.00
N210   N     0.52173   0.51444   0.26457   0.00000  Uiso   1.00
O211   O     0.63102   0.57963   0.25357   0.00000  Uiso   1.00
O212   O     0.39075   0.57038   0.24423   0.00000  Uiso   1.00
O213   O     0.64823   0.50691   0.33380   0.00000  Uiso   1.00
O214   O     0.40796   0.49766   0.32446   0.00000  Uiso   1.00
O215   O     0.60925   0.42962   0.25576   0.00000  Uiso   1.00
O216   O     0.36898   0.42037   0.24642   0.00000  Uiso   1.00
O217   O     0.59204   0.50234   0.17554   0.00000  Uiso   1.00
O218   O     0.35177   0.49309   0.16620   0.00000  Uiso   1.00
Zn219  Zn    0.60453   0.50618   0.25623   0.00000  Uiso   1.00
Zn220  Zn    0.39547   0.49382   0.24376   0.00000  Uiso   1.00
Br221  Br    0.77669   0.53444   0.10278   0.00000  Uiso   1.00
C222   C     0.68144   0.59819   0.24857   0.00000  Uiso   1.00
C223   C     0.72970   0.52769   0.41139   0.00000  Uiso   1.00
C224   C     0.68914   0.65272   0.24774   0.00000  Uiso   1.00
C225   C     0.70481   0.50991   0.35385   0.00000  Uiso   1.00
C226   C     0.97751   0.34728   0.25218   0.00000  Uiso   1.00
C227   C     0.98522   0.40181   0.25140   0.00000  Uiso   1.00
C228   C     0.96359   0.49605   0.14604   0.00000  Uiso   1.00
C229   C     0.94654   0.45880   0.49837   0.00000  Uiso   1.00
C230   C     0.94320   0.49238   0.08807   0.00000  Uiso   1.00
C231   C     0.69310   0.54655   0.44351   0.00000  Uiso   1.00
C232   C     0.71268   0.55378   0.49967   0.00000  Uiso   1.00
C233   C     0.80835   0.52515   0.49286   0.00000  Uiso   1.00
C234   C     0.76786   0.53959   0.02526   0.00000  Uiso   1.00
C235   C     0.78974   0.52415   0.43540   0.00000  Uiso   1.00
C236   C     0.86528   0.50883   0.01346   0.00000  Uiso   1.00
C237   C     0.89625   0.48418   0.47780   0.00000  Uiso   1.00
C238   C     0.88023   0.49077   0.42261   0.00000  Uiso   1.00
C239   C     0.83186   0.51743   0.40367   0.00000  Uiso   1.00
C240   C     0.89441   0.51846   0.06712   0.00000  Uiso   1.00
C241   C     0.96883   0.46120   0.05427   0.00000  Uiso   1.00
H242   H     0.67353   0.44064   0.07076   0.00000  Uiso   1.00
H243   H     0.82828   0.53266   0.36430   0.00000  Uiso   1.00
H244   H     0.73155   0.33639   0.24351   0.00000  Uiso   1.00
H245   H     0.93509   0.66360   0.25640   0.00000  Uiso   1.00
H246   H     0.82371   0.45571   0.21264   0.00000  Uiso   1.00
H247   H     0.84294   0.54644   0.28403   0.00000  Uiso   1.00
H248   H     0.90739   0.47915   0.39506   0.00000  Uiso   1.00
H249   H     0.96911   0.43852   0.47135   0.00000  Uiso   1.00
H250   H     0.88182   0.54819   0.09272   0.00000  Uiso   1.00
H251   H     0.98188   0.55418   0.42543   0.00000  Uiso   1.00
H252   H     0.68251   0.56631   0.02384   0.00000  Uiso   1.00
N253   N     0.81160   0.48556   0.23542   0.00000  Uiso   1.00
N254   N     0.85507   0.51444   0.26457   0.00000  Uiso   1.00
O255   O     0.96435   0.57963   0.25357   0.00000  Uiso   1.00
O256   O     0.72408   0.57038   0.24423   0.00000  Uiso   1.00
O257   O     0.98157   0.50691   0.33380   0.00000  Uiso   1.00
O258   O     0.74130   0.49766   0.32446   0.00000  Uiso   1.00
O259   O     0.94258   0.42962   0.25576   0.00000  Uiso   1.00
O260   O     0.70231   0.42037   0.24642   0.00000  Uiso   1.00
O261   O     0.92537   0.50234   0.17554   0.00000  Uiso   1.00
O262   O     0.68510   0.49309   0.16620   0.00000  Uiso   1.00
Zn263  Zn    0.93786   0.50618   0.25623   0.00000  Uiso   1.00
Zn264  Zn    0.72881   0.49382   0.24376   0.00000  Uiso   1.00
Br265  Br    0.11002   0.86777   0.10278   0.00000  Uiso   1.00
C266   C     0.01477   0.93152   0.24857   0.00000  Uiso   1.00
C267   C     0.06303   0.86102   0.41139   0.00000  Uiso   1.00
C268   C     0.02247   0.98605   0.24774   0.00000  Uiso   1.00
C269   C     0.03815   0.84325   0.35385   0.00000  Uiso   1.00
C270   C     0.31084   0.68061   0.25218   0.00000  Uiso   1.00
C271   C     0.31855   0.73515   0.25140   0.00000  Uiso   1.00
C272   C     0.29692   0.82939   0.14604   0.00000  Uiso   1.00
C273   C     0.27988   0.79214   0.49837   0.00000  Uiso   1.00
C274   C     0.27653   0.82571   0.08807   0.00000  Uiso   1.00
C275   C     0.02643   0.87988   0.44351   0.00000  Uiso   1.00
C276   C     0.04602   0.88711   0.49967   0.00000  Uiso   1.00
C277   C     0.14169   0.85849   0.49286   0.00000  Uiso   1.00
C278   C     0.10120   0.87292   0.02526   0.00000  Uiso   1.00
C279   C     0.12308   0.85748   0.43540   0.00000  Uiso   1.00
C280   C     0.19862   0.84216   0.01346   0.00000  Uiso   1.00
C281   C     0.22958   0.81751   0.47780   0.00000  Uiso   1.00
C282   C     0.21356   0.82410   0.42261   0.00000  Uiso   1.00
C283   C     0.16520   0.85077   0.40367   0.00000  Uiso   1.00
C284   C     0.22775   0.85179   0.06712   0.00000  Uiso   1.00
C285   C     0.30216   0.79453   0.05427   0.00000  Uiso   1.00
H286   H     0.00687   0.77397   0.07076   0.00000  Uiso   1.00
H287   H     0.16161   0.86599   0.36430   0.00000  Uiso   1.00
H288   H     0.06488   0.66973   0.24351   0.00000  Uiso   1.00
H289   H     0.26842   0.99693   0.25640   0.00000  Uiso   1.00
H290   H     0.15704   0.78904   0.21264   0.00000  Uiso   1.00
H291   H     0.17627   0.87977   0.28403   0.00000  Uiso   1.00
H292   H     0.24072   0.81249   0.39506   0.00000  Uiso   1.00
H293   H     0.30245   0.77185   0.47135   0.00000  Uiso   1.00
H294   H     0.21515   0.88152   0.09272   0.00000  Uiso   1.00
H295   H     0.31522   0.88751   0.42543   0.00000  Uiso   1.00
H296   H     0.01584   0.89964   0.02384   0.00000  Uiso   1.00
N297   N     0.14493   0.81890   0.23542   0.00000  Uiso   1.00
N298   N     0.18840   0.84777   0.26457   0.00000  Uiso   1.00
O299   O     0.29769   0.91296   0.25357   0.00000  Uiso   1.00
O300   O     0.05742   0.90371   0.24423   0.00000  Uiso   1.00
O301   O     0.31490   0.84024   0.33380   0.00000  Uiso   1.00
O302   O     0.07463   0.83099   0.32446   0.00000  Uiso   1.00
O303   O     0.27592   0.76296   0.25576   0.00000  Uiso   1.00
O304   O     0.03565   0.75371   0.24642   0.00000  Uiso   1.00
O305   O     0.25870   0.83567   0.17554   0.00000  Uiso   1.00
O306   O     0.01843   0.82642   0.16620   0.00000  Uiso   1.00
Zn307  Zn    0.27119   0.83951   0.25623   0.00000  Uiso   1.00
Zn308  Zn    0.06214   0.82716   0.24376   0.00000  Uiso   1.00
Br309  Br    0.44336   0.86777   0.10278   0.00000  Uiso   1.00
C310   C     0.34811   0.93152   0.24857   0.00000  Uiso   1.00
C311   C     0.39637   0.86102   0.41139   0.00000  Uiso   1.00
C312   C     0.35580   0.98605   0.24774   0.00000  Uiso   1.00
C313   C     0.37148   0.84325   0.35385   0.00000  Uiso   1.00
C314   C     0.64417   0.68061   0.25218   0.00000  Uiso   1.00
C315   C     0.65189   0.73515   0.25140   0.00000  Uiso   1.00
C316   C     0.63026   0.82939   0.14604   0.00000  Uiso   1.00
C317   C     0.61321   0.79214   0.49837   0.00000  Uiso   1.00
C318   C     0.60987   0.82571   0.08807   0.00000  Uiso   1.00
C319   C     0.35977   0.87988   0.44351   0.00000  Uiso   1.00
C320   C     0.37935   0.88711   0.49967   0.00000  Uiso   1.00
C321   C     0.47502   0.85849   0.49286   0.00000  Uiso   1.00
C322   C     0.43453   0.87292   0.02526   0.00000  Uiso   1.00
C323   C     0.45641   0.85748   0.43540   0.00000  Uiso   1.00
C324   C     0.53195   0.84216   0.01346   0.00000  Uiso   1.00
C325   C     0.56292   0.81751   0.47780   0.00000  Uiso   1.00
C326   C     0.54689   0.82410   0.42261   0.00000  Uiso   1.00
C327   C     0.49853   0.85077   0.40367   0.00000  Uiso   1.00
C328   C     0.56108   0.85179   0.06712   0.00000  Uiso   1.00
C329   C     0.63549   0.79453   0.05427   0.00000  Uiso   1.00
H330   H     0.34020   0.77397   0.07076   0.00000  Uiso   1.00
H331   H     0.49494   0.86599   0.36430   0.00000  Uiso   1.00
H332   H     0.39822   0.66973   0.24351   0.00000  Uiso   1.00
H333   H     0.60176   0.99693   0.25640   0.00000  Uiso   1.00
H334   H     0.49037   0.78904   0.21264   0.00000  Uiso   1.00
H335   H     0.50961   0.87977   0.28403   0.00000  Uiso   1.00
H336   H     0.57406   0.81249   0.39506   0.00000  Uiso   1.00
H337   H     0.63578   0.77185   0.47135   0.00000  Uiso   1.00
H338   H     0.54848   0.88152   0.09272   0.00000  Uiso   1.00
H339   H     0.64855   0.88751   0.42543   0.00000  Uiso   1.00
H340   H     0.34917   0.89964   0.02384   0.00000  Uiso   1.00
N341   N     0.47827   0.81890   0.23542   0.00000  Uiso   1.00
N342   N     0.52173   0.84777   0.26457   0.00000  Uiso   1.00
O343   O     0.63102   0.91296   0.25357   0.00000  Uiso   1.00
O344   O     0.39075   0.90371   0.24423   0.00000  Uiso   1.00
O345   O     0.64823   0.84024   0.33380   0.00000  Uiso   1.00
O346   O     0.40796   0.83099   0.32446   0.00000  Uiso   1.00
O347   O     0.60925   0.76296   0.25576   0.00000  Uiso   1.00
O348   O     0.36898   0.75371   0.24642   0.00000  Uiso   1.00
O349   O     0.59204   0.83567   0.17554   0.00000  Uiso   1.00
O350   O     0.35177   0.82642   0.16620   0.00000  Uiso   1.00
Zn351  Zn    0.60453   0.83951   0.25623   0.00000  Uiso   1.00
Zn352  Zn    0.39547   0.82716   0.24376   0.00000  Uiso   1.00
Br353  Br    0.77669   0.86777   0.10278   0.00000  Uiso   1.00
C354   C     0.68144   0.93152   0.24857   0.00000  Uiso   1.00
C355   C     0.72970   0.86102   0.41139   0.00000  Uiso   1.00
C356   C     0.68914   0.98605   0.24774   0.00000  Uiso   1.00
C357   C     0.70481   0.84325   0.35385   0.00000  Uiso   1.00
C358   C     0.97751   0.68061   0.25218   0.00000  Uiso   1.00
C359   C     0.98522   0.73515   0.25140   0.00000  Uiso   1.00
C360   C     0.96359   0.82939   0.14604   0.00000  Uiso   1.00
C361   C     0.94654   0.79214   0.49837   0.00000  Uiso   1.00
C362   C     0.94320   0.82571   0.08807   0.00000  Uiso   1.00
C363   C     0.69310   0.87988   0.44351   0.00000  Uiso   1.00
C364   C     0.71268   0.88711   0.49967   0.00000  Uiso   1.00
C365   C     0.80835   0.85849   0.49286   0.00000  Uiso   1.00
C366   C     0.76786   0.87292   0.02526   0.00000  Uiso   1.00
C367   C     0.78974   0.85748   0.43540   0.00000  Uiso   1.00
C368   C     0.86528   0.84216   0.01346   0.00000  Uiso   1.00
C369   C     0.89625   0.81751   0.47780   0.00000  Uiso   1.00
C370   C     0.88023   0.82410   0.42261   0.00000  Uiso   1.00
C371   C     0.83186   0.85077   0.40367   0.00000  Uiso   1.00
C372   C     0.89441   0.85179   0.06712   0.00000  Uiso   1.00
C373   C     0.96883   0.79453   0.05427   0.00000  Uiso   1.00
H374   H     0.67353   0.77397   0.07076   0.00000  Uiso   1.00
H375   H     0.82828   0.86599   0.36430   0.00000  Uiso   1.00
H376   H     0.73155   0.66973   0.24351   0.00000  Uiso   1.00
H377   H     0.93509   0.99693   0.25640   0.00000  Uiso   1.00
H378   H     0.82371   0.78904   0.21264   0.00000  Uiso   1.00
H379   H     0.84294   0.87977   0.28403   0.00000  Uiso   1.00
H380   H     0.90739   0.81249   0.39506   0.00000  Uiso   1.00
H381   H     0.96911   0.77185   0.47135   0.00000  Uiso   1.00
H382   H     0.88182   0.88152   0.09272   0.00000  Uiso   1.00
H383   H     0.98188   0.88751   0.42543   0.00000  Uiso   1.00
H384   H     0.68251   0.89964   0.02384   0.00000  Uiso   1.00
N385   N     0.81160   0.81890   0.23542   0.00000  Uiso   1.00
N386   N     0.85507   0.84777   0.26457   0.00000  Uiso   1.00
O387   O     0.96435   0.91296   0.25357   0.00000  Uiso   1.00
O388   O     0.72408   0.90371   0.24423   0.00000  Uiso   1.00
O389   O     0.98157   0.84024   0.33380   0.00000  Uiso   1.00
O390   O     0.74130   0.83099   0.32446   0.00000  Uiso   1.00
O391   O     0.94258   0.76296   0.25576   0.00000  Uiso   1.00
O392   O     0.70231   0.75371   0.24642   0.00000  Uiso   1.00
O393   O     0.92537   0.83567   0.17554   0.00000  Uiso   1.00
O394   O     0.68510   0.82642   0.16620   0.00000  Uiso   1.00
Zn395  Zn    0.93786   0.83951   0.25623   0.00000  Uiso   1.00
Zn396  Zn    0.72881   0.82716   0.24376   0.00000  Uiso   1.00
Br397  Br    0.11002   0.20111   0.60278   0.00000  Uiso   1.00
C398   C     0.01477   0.26485   0.74857   0.00000  Uiso   1.00
C399   C     0.06303   0.19436   0.91139   0.00000  Uiso   1.00
C400   C     0.02247   0.31938   0.74774   0.00000  Uiso   1.00
C401   C     0.03815   0.17658   0.85385   0.00000  Uiso   1.00
C402   C     0.31084   0.01394   0.75218   0.00000  Uiso   1.00
C403   C     0.31855   0.06848   0.75140   0.00000  Uiso   1.00
C404   C     0.29692   0.16272   0.64604   0.00000  Uiso   1.00
C405   C     0.27988   0.12547   0.99837   0.00000  Uiso   1.00
C406   C     0.27653   0.15904   0.58807   0.00000  Uiso   1.00
C407   C     0.02643   0.21321   0.94351   0.00000  Uiso   1.00
C408   C     0.04602   0.22044   0.99967   0.00000  Uiso   1.00
C409   C     0.14169   0.19182   0.99286   0.00000  Uiso   1.00
C410   C     0.10120   0.20625   0.52526   0.00000  Uiso   1.00
C411   C     0.12308   0.19081   0.93540   0.00000  Uiso   1.00
C412   C     0.19862   0.17550   0.51346   0.00000  Uiso   1.00
C413   C     0.22958   0.15085   0.97780   0.00000  Uiso   1.00
C414   C     0.21356   0.15744   0.92261   0.00000  Uiso   1.00
C415   C     0.16520   0.18410   0.90367   0.00000  Uiso   1.00
C416   C     0.22775   0.18513   0.56712   0.00000  Uiso   1.00
C417   C     0.30216   0.12786   0.55427   0.00000  Uiso   1.00
H418   H     0.00687   0.10731   0.57076   0.00000  Uiso   1.00
H419   H     0.16161   0.19932   0.86430   0.00000  Uiso   1.00
H420   H     0.06488   0.00306   0.74351   0.00000  Uiso   1.00
H421   H     0.26842   0.33026   0.75640   0.00000  Uiso   1.00
H422   H     0.15704   0.12237   0.71264   0.00000  Uiso   1.00
H423   H     0.17627   0.21311   0.78403   0.00000  Uiso   1.00
H424   H     0.24072   0.14582   0.89506   0.00000  Uiso   1.00
H425   H     0.30245   0.10519   0.97135   0.00000  Uiso   1.00
H426   H     0.21515   0.21485   0.59272   0.00000  Uiso   1.00
H427   H     0.31522   0.22084   0.92543   0.00000  Uiso   1.00
H428   H     0.01584   0.23298   0.52384   0.00000  Uiso   1.00
N429   N     0.14493   0.15223   0.73542   0.00000  Uiso   1.00
N430   N     0.18840   0.18110   0.76457   0.00000  Uiso   1.00
O431   O     0.29769   0.24629   0.75357   0.00000  Uiso   1.00
O432   O     0.05742   0.23704   0.74423   0.00000  Uiso   1.00
O433   O     0.31490   0.17358   0.83380   0.00000  Uiso   1.00
O434   O     0.07463   0.16433   0.82446   0.00000  Uiso   1.00
O435   O     0.27592   0.09629   0.75576   0.00000  Uiso   1.00
O436   O     0.03565   0.08704   0.74642   0.00000  Uiso   1.00
O437   O     0.25870   0.16901   0.67554   0.00000  Uiso   1.00
O438   O     0.01843   0.15976   0.66620   0.00000  Uiso   1.00
Zn439  Zn    0.27119   0.17284   0.75623   0.00000  Uiso   1.00
Zn440  Zn    0.06214   0.16049   0.74376   0.00000  Uiso   1.00
Br441  Br    0.44336   0.20111   0.60278   0.00000  Uiso   1.00
C442   C     0.34811   0.26485   0.74857   0.00000  Uiso   1.00
C443   C     0.39637   0.19436   0.91139   0.00000  Uiso   1.00
C444   C     0.35580   0.31938   0.74774   0.00000  Uiso   1.00
C445   C     0.37148   0.17658   0.85385   0.00000  Uiso   1.00
C446   C     0.64417   0.01394   0.75218   0.00000  Uiso   1.00
C447   C     0.65189   0.06848   0.75140   0.00000  Uiso   1.00
C448   C     0.63026   0.16272   0.64604   0.00000  Uiso   1.00
C449   C     0.61321   0.12547   0.99837   0.00000  Uiso   1.00
C450   C     0.60987   0.15904   0.58807   0.00000  Uiso   1.00
C451   C     0.35977   0.21321   0.94351   0.00000  Uiso   1.00
C452   C     0.37935   0.22044   0.99967   0.00000  Uiso   1.00
C453   C     0.47502   0.19182   0.99286   0.00000  Uiso   1.00
C454   C     0.43453   0.20625   0.52526   0.00000  Uiso   1.00
C455   C     0.45641   0.19081   0.93540   0.00000  Uiso   1.00
C456   C     0.53195   0.17550   0.51346   0.00000  Uiso   1.00
C457   C     0.56292   0.15085   0.97780   0.00000  Uiso   1.00
C458   C     0.54689   0.15744   0.92261   0.00000  Uiso   1.00
C459   C     0.49853   0.18410   0.90367   0.00000  Uiso   1.00
C460   C     0.56108   0.18513   0.56712   0.00000  Uiso   1.00
C461   C     0.63549   0.12786   0.55427   0.00000  Uiso   1.00
H462   H     0.34020   0.10731   0.57076   0.00000  Uiso   1.00
H463   H     0.49494   0.19932   0.86430   0.00000  Uiso   1.00
H464   H     0.39822   0.00306   0.74351   0.00000  Uiso   1.00
H465   H     0.60176   0.33026   0.75640   0.00000  Uiso   1.00
H466   H     0.49037   0.12237   0.71264   0.00000  Uiso   1.00
H467   H     0.50961   0.21311   0.78403   0.00000  Uiso   1.00
H468   H     0.57406   0.14582   0.89506   0.00000  Uiso   1.00
H469   H     0.63578   0.10519   0.97135   0.00000  Uiso   1.00
H470   H     0.54848   0.21485   0.59272   0.00000  Uiso   1.00
H471   H     0.64855   0.22084   0.92543   0.00000  Uiso   1.00
H472   H     0.34917   0.23298   0.52384   0.00000  Uiso   1.00
N473   N     0.47827   0.15223   0.73542   0.00000  Uiso   1.00
N474   N     0.52173   0.18110   0.76457   0.00000  Uiso   1.00
O475   O     0.63102   0.24629   0.75357   0.00000  Uiso   1.00
O476   O     0.39075   0.23704   0.74423   0.00000  Uiso   1.00
O477   O     0.64823   0.17358   0.83380   0.00000  Uiso   1.00
O478   O     0.40796   0.16433   0.82446   0.00000  Uiso   1.00
O479   O     0.60925   0.09629   0.75576   0.00000  Uiso   1.00
O480   O     0.36898   0.08704   0.74642   0.00000  Uiso   1.00
O481   O     0.59204   0.16901   0.67554   0.00000  Uiso   1.00
O482   O     0.35177   0.15976   0.66620   0.00000  Uiso   1.00
Zn483  Zn    0.60453   0.17284   0.75623   0.00000  Uiso   1.00
Zn484  Zn    0.39547   0.16049   0.74376   0.00000  Uiso   1.00
Br485  Br    0.77669   0.20111   0.60278   0.00000  Uiso   1.00
C486   C     0.68144   0.26485   0.74857   0.00000  Uiso   1.00
C487   C     0.72970   0.19436   0.91139   0.00000  Uiso   1.00
C488   C     0.68914   0.31938   0.74774   0.00000  Uiso   1.00
C489   C     0.70481   0.17658   0.85385   0.00000  Uiso   1.00
C490   C     0.97751   0.01394   0.75218   0.00000  Uiso   1.00
C491   C     0.98522   0.06848   0.75140   0.00000  Uiso   1.00
C492   C     0.96359   0.16272   0.64604   0.00000  Uiso   1.00
C493   C     0.94654   0.12547   0.99837   0.00000  Uiso   1.00
C494   C     0.94320   0.15904   0.58807   0.00000  Uiso   1.00
C495   C     0.69310   0.21321   0.94351   0.00000  Uiso   1.00
C496   C     0.71268   0.22044   0.99967   0.00000  Uiso   1.00
C497   C     0.80835   0.19182   0.99286   0.00000  Uiso   1.00
C498   C     0.76786   0.20625   0.52526   0.00000  Uiso   1.00
C499   C     0.78974   0.19081   0.93540   0.00000  Uiso   1.00
C500   C     0.86528   0.17550   0.51346   0.00000  Uiso   1.00
C501   C     0.89625   0.15085   0.97780   0.00000  Uiso   1.00
C502   C     0.88023   0.15744   0.92261   0.00000  Uiso   1.00
C503   C     0.83186   0.18410   0.90367   0.00000  Uiso   1.00
C504   C     0.89441   0.18513   0.56712   0.00000  Uiso   1.00
C505   C     0.96883   0.12786   0.55427   0.00000  Uiso   1.00
H506   H     0.67353   0.10731   0.57076   0.00000  Uiso   1.00
H507   H     0.82828   0.19932   0.86430   0.00000  Uiso   1.00
H508   H     0.73155   0.00306   0.74351   0.00000  Uiso   1.00
H509   H     0.93509   0.33026   0.75640   0.00000  Uiso   1.00
H510   H     0.82371   0.12237   0.71264   0.00000  Uiso   1.00
H511   H     0.84294   0.21311   0.78403   0.00000  Uiso   1.00
H512   H     0.90739   0.14582   0.89506   0.00000  Uiso   1.00
H513   H     0.96911   0.10519   0.97135   0.00000  Uiso   1.00
H514   H     0.88182   0.21485   0.59272   0.00000  Uiso   1.00
H515   H     0.98188   0.22084   0.92543   0.00000  Uiso   1.00
H516   H     0.68251   0.23298   0.52384   0.00000  Uiso   1.00
N517   N     0.81160   0.15223   0.73542   0.00000  Uiso   1.00
N518   N     0.85507   0.18110   0.76457   0.00000  Uiso   1.00
O519   O     0.96435   0.24629   0.75357   0.00000  Uiso   1.00
O520   O     0.72408   0.23704   0.74423   0.00000  Uiso   1.00
O521   O     0.98157   0.17358   0.83380   0.00000  Uiso   1.00
O522   O     0.74130   0.16433   0.82446   0.00000  Uiso   1.00
O523   O     0.94258   0.09629   0.75576   0.00000  Uiso   1.00
O524   O     0.70231   0.08704   0.74642   0.00000  Uiso   1.00
O525   O     0.92537   0.16901   0.67554   0.00000  Uiso   1.00
O526   O     0.68510   0.15976   0.66620   0.00000  Uiso   1.00
Zn527  Zn    0.93786   0.17284   0.75623   0.00000  Uiso   1.00
Zn528  Zn    0.72881   0.16049   0.74376   0.00000  Uiso   1.00
Br529  Br    0.11002   0.53444   0.60278   0.00000  Uiso   1.00
C530   C     0.01477   0.59819   0.74857   0.00000  Uiso   1.00
C531   C     0.06303   0.52769   0.91139   0.00000  Uiso   1.00
C532   C     0.02247   0.65272   0.74774   0.00000  Uiso   1.00
C533   C     0.03815   0.50991   0.85385   0.00000  Uiso   1.00
C534   C     0.31084   0.34728   0.75218   0.00000  Uiso   1.00
C535   C     0.31855   0.40181   0.75140   0.00000  Uiso   1.00
C536   C     0.29692   0.49605   0.64604   0.00000  Uiso   1.00
C537   C     0.27988   0.45880   0.99837   0.00000  Uiso   1.00
C538   C     0.27653   0.49238   0.58807   0.00000  Uiso   1.00
C539   C     0.02643   0.54655   0.94351   0.00000  Uiso   1.00
C540   C     0.04602   0.55378   0.99967   0.00000  Uiso   1.00
C541   C     0.14169   0.52515   0.99286   0.00000  Uiso   1.00
C542   C     0.10120   0.53959   0.52526   0.00000  Uiso   1.00
C543   C     0.12308   0.52415   0.93540   0.00000  Uiso   1.00
C544   C     0.19862   0.50883   0.51346   0.00000  Uiso   1.00
C545   C     0.22958   0.48418   0.97780   0.00000  Uiso   1.00
C546   C     0.21356   0.49077   0.92261   0.00000  Uiso   1.00
C547   C     0.16520   0.51743   0.90367   0.00000  Uiso   1.00
C548   C     0.22775   0.51846   0.56712   0.00000  Uiso   1.00
C549   C     0.30216   0.46120   0.55427   0.00000  Uiso   1.00
H550   H     0.00687   0.44064   0.57076   0.00000  Uiso   1.00
H551   H     0.16161   0.53266   0.86430   0.00000  Uiso   1.00
H552   H     0.06488   0.33639   0.74351   0.00000  Uiso   1.00
H553   H     0.26842   0.66360   0.75640   0.00000  Uiso   1.00
H554   H     0.15704   0.45571   0.71264   0.00000  Uiso   1.00
H555   H     0.17627   0.54644   0.78403   0.00000  Uiso   1.00
H556   H     0.24072   0.47915   0.89506   0.00000  Uiso   1.00
H557   H     0.30245   0.43852   0.97135   0.00000  Uiso   1.00
H558   H     0.21515   0.54819   0.59272   0.00000  Uiso   1.00
H559   H     0.31522   0.55418   0.92543   0.00000  Uiso   1.00
H560   H     0.01584   0.56631   0.52384   0.00000  Uiso   1.00
N561   N     0.14493   0.48556   0.73542   0.00000  Uiso   1.00
N562   N     0.18840   0.51444   0.76457   0.00000  Uiso   1.00
O563   O     0.29769   0.57963   0.75357   0.00000  Uiso   1.00
O564   O     0.05742   0.57038   0.74423   0.00000  Uiso   1.00
O565   O     0.31490   0.50691   0.83380   0.00000  Uiso   1.00
O566   O     0.07463   0.49766   0.82446   0.00000  Uiso   1.00
O567   O     0.27592   0.42962   0.75576   0.00000  Uiso   1.00
O568   O     0.03565   0.42037   0.74642   0.00000  Uiso   1.00
O569   O     0.25870   0.50234   0.67554   0.00000  Uiso   1.00
O570   O     0.01843   0.49309   0.66620   0.00000  Uiso   1.00
Zn571  Zn    0.27119   0.50618   0.75623   0.00000  Uiso   1.00
Zn572  Zn    0.06214   0.49382   0.74376   0.00000  Uiso   1.00
Br573  Br    0.44336   0.53444   0.60278   0.00000  Uiso   1.00
C574   C     0.34811   0.59819   0.74857   0.00000  Uiso   1.00
C575   C     0.39637   0.52769   0.91139   0.00000  Uiso   1.00
C576   C     0.35580   0.65272   0.74774   0.00000  Uiso   1.00
C577   C     0.37148   0.50991   0.85385   0.00000  Uiso   1.00
C578   C     0.64417   0.34728   0.75218   0.00000  Uiso   1.00
C579   C     0.65189   0.40181   0.75140   0.00000  Uiso   1.00
C580   C     0.63026   0.49605   0.64604   0.00000  Uiso   1.00
C581   C     0.61321   0.45880   0.99837   0.00000  Uiso   1.00
C582   C     0.60987   0.49238   0.58807   0.00000  Uiso   1.00
C583   C     0.35977   0.54655   0.94351   0.00000  Uiso   1.00
C584   C     0.37935   0.55378   0.99967   0.00000  Uiso   1.00
C585   C     0.47502   0.52515   0.99286   0.00000  Uiso   1.00
C586   C     0.43453   0.53959   0.52526   0.00000  Uiso   1.00
C587   C     0.45641   0.52415   0.93540   0.00000  Uiso   1.00
C588   C     0.53195   0.50883   0.51346   0.00000  Uiso   1.00
C589   C     0.56292   0.48418   0.97780   0.00000  Uiso   1.00
C590   C     0.54689   0.49077   0.92261   0.00000  Uiso   1.00
C591   C     0.49853   0.51743   0.90367   0.00000  Uiso   1.00
C592   C     0.56108   0.51846   0.56712   0.00000  Uiso   1.00
C593   C     0.63549   0.46120   0.55427   0.00000  Uiso   1.00
H594   H     0.34020   0.44064   0.57076   0.00000  Uiso   1.00
H595   H     0.49494   0.53266   0.86430   0.00000  Uiso   1.00
H596   H     0.39822   0.33639   0.74351   0.00000  Uiso   1.00
H597   H     0.60176   0.66360   0.75640   0.00000  Uiso   1.00
H598   H     0.49037   0.45571   0.71264   0.00000  Uiso   1.00
H599   H     0.50961   0.54644   0.78403   0.00000  Uiso   1.00
H600   H     0.57406   0.47915   0.89506   0.00000  Uiso   1.00
H601   H     0.63578   0.43852   0.97135   0.00000  Uiso   1.00
H602   H     0.54848   0.54819   0.59272   0.00000  Uiso   1.00
H603   H     0.64855   0.55418   0.92543   0.00000  Uiso   1.00
H604   H     0.34917   0.56631   0.52384   0.00000  Uiso   1.00
N605   N     0.47827   0.48556   0.73542   0.00000  Uiso   1.00
N606   N     0.52173   0.51444   0.76457   0.00000  Uiso   1.00
O607   O     0.63102   0.57963   0.75357   0.00000  Uiso   1.00
O608   O     0.39075   0.57038   0.74423   0.00000  Uiso   1.00
O609   O     0.64823   0.50691   0.83380   0.00000  Uiso   1.00
O610   O     0.40796   0.49766   0.82446   0.00000  Uiso   1.00
O611   O     0.60925   0.42962   0.75576   0.00000  Uiso   1.00
O612   O     0.36898   0.42037   0.74642   0.00000  Uiso   1.00
O613   O     0.59204   0.50234   0.67554   0.00000  Uiso   1.00
O614   O     0.35177   0.49309   0.66620   0.00000  Uiso   1.00
Zn615  Zn    0.60453   0.50618   0.75623   0.00000  Uiso   1.00
Zn616  Zn    0.39547   0.49382   0.74376   0.00000  Uiso   1.00
Br617  Br    0.77669   0.53444   0.60278   0.00000  Uiso   1.00
C618   C     0.68144   0.59819   0.74857   0.00000  Uiso   1.00
C619   C     0.72970   0.52769   0.91139   0.00000  Uiso   1.00
C620   C     0.68914   0.65272   0.74774   0.00000  Uiso   1.00
C621   C     0.70481   0.50991   0.85385   0.00000  Uiso   1.00
C622   C     0.97751   0.34728   0.75218   0.00000  Uiso   1.00
C623   C     0.98522   0.40181   0.75140   0.00000  Uiso   1.00
C624   C     0.96359   0.49605   0.64604   0.00000  Uiso   1.00
C625   C     0.94654   0.45880   0.99837   0.00000  Uiso   1.00
C626   C     0.94320   0.49238   0.58807   0.00000  Uiso   1.00
C627   C     0.69310   0.54655   0.94351   0.00000  Uiso   1.00
C628   C     0.71268   0.55378   0.99967   0.00000  Uiso   1.00
C629   C     0.80835   0.52515   0.99286   0.00000  Uiso   1.00
C630   C     0.76786   0.53959   0.52526   0.00000  Uiso   1.00
C631   C     0.78974   0.52415   0.93540   0.00000  Uiso   1.00
C632   C     0.86528   0.50883   0.51346   0.00000  Uiso   1.00
C633   C     0.89625   0.48418   0.97780   0.00000  Uiso   1.00
C634   C     0.88023   0.49077   0.92261   0.00000  Uiso   1.00
C635   C     0.83186   0.51743   0.90367   0.00000  Uiso   1.00
C636   C     0.89441   0.51846   0.56712   0.00000  Uiso   1.00
C637   C     0.96883   0.46120   0.55427   0.00000  Uiso   1.00
H638   H     0.67353   0.44064   0.57076   0.00000  Uiso   1.00
H639   H     0.82828   0.53266   0.86430   0.00000  Uiso   1.00
H640   H     0.73155   0.33639   0.74351   0.00000  Uiso   1.00
H641   H     0.93509   0.66360   0.75640   0.00000  Uiso   1.00
H642   H     0.82371   0.45571   0.71264   0.00000  Uiso   1.00
H643   H     0.84294   0.54644   0.78403   0.00000  Uiso   1.00
H644   H     0.90739   0.47915   0.89506   0.00000  Uiso   1.00
H645   H     0.96911   0.43852   0.97135   0.00000  Uiso   1.00
H646   H     0.88182   0.54819   0.59272   0.00000  Uiso   1.00
H647   H     0.98188   0.55418   0.92543   0.00000  Uiso   1.00
H648   H     0.68251   0.56631   0.52384   0.00000  Uiso   1.00
N649   N     0.81160   0.48556   0.73542   0.00000  Uiso   1.00
N650   N     0.85507   0.51444   0.76457   0.00000  Uiso   1.00
O651   O     0.96435   0.57963   0.75357   0.00000  Uiso   1.00
O652   O     0.72408   0.57038   0.74423   0.00000  Uiso   1.00
O653   O     0.98157   0.50691   0.83380   0.00000  Uiso   1.00
O654   O     0.74130   0.49766   0.82446   0.00000  Uiso   1.00
O655   O     0.94258   0.42962   0.75576   0.00000  Uiso   1.00
O656   O     0.70231   0.42037   0.74642   0.00000  Uiso   1.00
O657   O     0.92537   0.50234   0.67554   0.00000  Uiso   1.00
O658   O     0.68510   0.49309   0.66620   0.00000  Uiso   1.00
Zn659  Zn    0.93786   0.50618   0.75623   0.00000  Uiso   1.00
Zn660  Zn    0.72881   0.49382   0.74376   0.00000  Uiso   1.00
Br661  Br    0.11002   0.86777   0.60278   0.00000  Uiso   1.00
C662   C     0.01477   0.93152   0.74857   0.00000  Uiso   1.00
C663   C     0.06303   0.86102   0.91139   0.00000  Uiso   1.00
C664   C     0.02247   0.98605   0.74774   0.00000  Uiso   1.00
C665   C     0.03815   0.84325   0.85385   0.00000  Uiso   1.00
C666   C     0.31084   0.68061   0.75218   0.00000  Uiso   1.00
C667   C     0.31855   0.73515   0.75140   0.00000  Uiso   1.00
C668   C     0.29692   0.82939   0.64604   0.00000  Uiso   1.00
C669   C     0.27988   0.79214   0.99837   0.00000  Uiso   1.00
C670   C     0.27653   0.82571   0.58807   0.00000  Uiso   1.00
C671   C     0.02643   0.87988   0.94351   0.00000  Uiso   1.00
C672   C     0.04602   0.88711   0.99967   0.00000  Uiso   1.00
C673   C     0.14169   0.85849   0.99286   0.00000  Uiso   1.00
C674   C     0.10120   0.87292   0.52526   0.00000  Uiso   1.00
C675   C     0.12308   0.85748   0.93540   0.00000  Uiso   1.00
C676   C     0.19862   0.84216   0.51346   0.00000  Uiso   1.00
C677   C     0.22958   0.81751   0.97780   0.00000  Uiso   1.00
C678   C     0.21356   0.82410   0.92261   0.00000  Uiso   1.00
C679   C     0.16520   0.85077   0.90367   0.00000  Uiso   1.00
C680   C     0.22775   0.85179   0.56712   0.00000  Uiso   1.00
C681   C     0.30216   0.79453   0.55427   0.00000  Uiso   1.00
H682   H     0.00687   0.77397   0.57076   0.00000  Uiso   1.00
H683   H     0.16161   0.86599   0.86430   0.00000  Uiso   1.00
H684   H     0.06488   0.66973   0.74351   0.00000  Uiso   1.00
H685   H     0.26842   0.99693   0.75640   0.00000  Uiso   1.00
H686   H     0.15704   0.78904   0.71264   0.00000  Uiso   1.00
H687   H     0.17627   0.87977   0.78403   0.00000  Uiso   1.00
H688   H     0.24072   0.81249   0.89506   0.00000  Uiso   1.00
H689   H     0.30245   0.77185   0.97135   0.00000  Uiso   1.00
H690   H     0.21515   0.88152   0.59272   0.00000  Uiso   1.00
H691   H     0.31522   0.88751   0.92543   0.00000  Uiso   1.00
H692   H     0.01584   0.89964   0.52384   0.00000  Uiso   1.00
N693   N     0.14493   0.81890   0.73542   0.00000  Uiso   1.00
N694   N     0.18840   0.84777   0.76457   0.00000  Uiso   1.00
O695   O     0.29769   0.91296   0.75357   0.00000  Uiso   1.00
O696   O     0.05742   0.90371   0.74423   0.00000  Uiso   1.00
O697   O     0.31490   0.84024   0.83380   0.00000  Uiso   1.00
O698   O     0.07463   0.83099   0.82446   0.00000  Uiso   1.00
O699   O     0.27592   0.76296   0.75576   0.00000  Uiso   1.00
O700   O     0.03565   0.75371   0.74642   0.00000  Uiso   1.00
O701   O     0.25870   0.83567   0.67554   0.00000  Uiso   1.00
O702   O     0.01843   0.82642   0.66620   0.00000  Uiso   1.00
Zn703  Zn    0.27119   0.83951   0.75623   0.00000  Uiso   1.00
Zn704  Zn    0.06214   0.82716   0.74376   0.00000  Uiso   1.00
Br705  Br    0.44336   0.86777   0.60278   0.00000  Uiso   1.00
C706   C     0.34811   0.93152   0.74857   0.00000  Uiso   1.00
C707   C     0.39637   0.86102   0.91139   0.00000  Uiso   1.00
C708   C     0.35580   0.98605   0.74774   0.00000  Uiso   1.00
C709   C     0.37148   0.84325   0.85385   0.00000  Uiso   1.00
C710   C     0.64417   0.68061   0.75218   0.00000  Uiso   1.00
C711   C     0.65189   0.73515   0.75140   0.00000  Uiso   1.00
C712   C     0.63026   0.82939   0.64604   0.00000  Uiso   1.00
C713   C     0.61321   0.79214   0.99837   0.00000  Uiso   1.00
C714   C     0.60987   0.82571   0.58807   0.00000  Uiso   1.00
C715   C     0.35977   0.87988   0.94351   0.00000  Uiso   1.00
C716   C     0.37935   0.88711   0.99967   0.00000  Uiso   1.00
C717   C     0.47502   0.85849   0.99286   0.00000  Uiso   1.00
C718   C     0.43453   0.87292   0.52526   0.00000  Uiso   1.00
C719   C     0.45641   0.85748   0.93540   0.00000  Uiso   1.00
C720   C     0.53195   0.84216   0.51346   0.00000  Uiso   1.00
C721   C     0.56292   0.81751   0.97780   0.00000  Uiso   1.00
C722   C     0.54689   0.82410   0.92261   0.00000  Uiso   1.00
C723   C     0.49853   0.85077   0.90367   0.00000  Uiso   1.00
C724   C     0.56108   0.85179   0.56712   0.00000  Uiso   1.00
C725   C     0.63549   0.79453   0.55427   0.00000  Uiso   1.00
H726   H     0.34020   0.77397   0.57076   0.00000  Uiso   1.00
H727   H     0.49494   0.86599   0.86430   0.00000  Uiso   1.00
H728   H     0.39822   0.66973   0.74351   0.00000  Uiso   1.00
H729   H     0.60176   0.99693   0.75640   0.00000  Uiso   1.00
H730   H     0.49037   0.78904   0.71264   0.00000  Uiso   1.00
H731   H     0.50961   0.87977   0.78403   0.00000  Uiso   1.00
H732   H     0.57406   0.81249   0.89506   0.00000  Uiso   1.00
H733   H     0.63578   0.77185   0.97135   0.00000  Uiso   1.00
H734   H     0.54848   0.88152   0.59272   0.00000  Uiso   1.00
H735   H     0.64855   0.88751   0.92543   0.00000  Uiso   1.00
H736   H     0.34917   0.89964   0.52384   0.00000  Uiso   1.00
N737   N     0.47827   0.81890   0.73542   0.00000  Uiso   1.00
N738   N     0.52173   0.84777   0.76457   0.00000  Uiso   1.00
O739   O     0.63102   0.91296   0.75357   0.00000  Uiso   1.00
O740   O     0.39075   0.90371   0.74423   0.00000  Uiso   1.00
O741   O     0.64823   0.84024   0.83380   0.00000  Uiso   1.00
O742   O     0.40796   0.83099   0.82446   0.00000  Uiso   1.00
O743   O     0.60925   0.76296   0.75576   0.00000  Uiso   1.00
O744   O     0.36898   0.75371   0.74642   0.00000  Uiso   1.00
O745   O     0.59204   0.83567   0.67554   0.00000  Uiso   1.00
O746   O     0.35177   0.82642   0.66620   0.00000  Uiso   1.00
Zn747  Zn    0.60453   0.83951   0.75623   0.00000  Uiso   1.00
Zn748  Zn    0.39547   0.82716   0.74376   0.00000  Uiso   1.00
Br749  Br    0.77669   0.86777   0.60278   0.00000  Uiso   1.00
C750   C     0.68144   0.93152   0.74857   0.00000  Uiso   1.00
C751   C     0.72970   0.86102   0.91139   0.00000  Uiso   1.00
C752   C     0.68914   0.98605   0.74774   0.00000  Uiso   1.00
C753   C     0.70481   0.84325   0.85385   0.00000  Uiso   1.00
C754   C     0.97751   0.68061   0.75218   0.00000  Uiso   1.00
C755   C     0.98522   0.73515   0.75140   0.00000  Uiso   1.00
C756   C     0.96359   0.82939   0.64604   0.00000  Uiso   1.00
C757   C     0.94654   0.79214   0.99837   0.00000  Uiso   1.00
C758   C     0.94320   0.82571   0.58807   0.00000  Uiso   1.00
C759   C     0.69310   0.87988   0.94351   0.00000  Uiso   1.00
C760   C     0.71268   0.88711   0.99967   0.00000  Uiso   1.00
C761   C     0.80835   0.85849   0.99286   0.00000  Uiso   1.00
C762   C     0.76786   0.87292   0.52526   0.00000  Uiso   1.00
C763   C     0.78974   0.85748   0.93540   0.00000  Uiso   1.00
C764   C     0.86528   0.84216   0.51346   0.00000  Uiso   1.00
C765   C     0.89625   0.81751   0.97780   0.00000  Uiso   1.00
C766   C     0.88023   0.82410   0.92261   0.00000  Uiso   1.00
C767   C     0.83186   0.85077   0.90367   0.00000  Uiso   1.00
C768   C     0.89441   0.85179   0.56712   0.00000  Uiso   1.00
C769   C     0.96883   0.79453   0.55427   0.00000  Uiso   1.00
H770   H     0.67353   0.77397   0.57076   0.00000  Uiso   1.00
H771   H     0.82828   0.86599   0.86430   0.00000  Uiso   1.00
H772   H     0.73155   0.66973   0.74351   0.00000  Uiso   1.00
H773   H     0.93509   0.99693   0.75640   0.00000  Uiso   1.00
H774   H     0.82371   0.78904   0.71264   0.00000  Uiso   1.00
H775   H     0.84294   0.87977   0.78403   0.00000  Uiso   1.00
H776   H     0.90739   0.81249   0.89506   0.00000  Uiso   1.00
H777   H     0.96911   0.77185   0.97135   0.00000  Uiso   1.00
H778   H     0.88182   0.88152   0.59272   0.00000  Uiso   1.00
H779   H     0.98188   0.88751   0.92543   0.00000  Uiso   1.00
H780   H     0.68251   0.89964   0.52384   0.00000  Uiso   1.00
N781   N     0.81160   0.81890   0.73542   0.00000  Uiso   1.00
N782   N     0.85507   0.84777   0.76457   0.00000  Uiso   1.00
O783   O     0.96435   0.91296   0.75357   0.00000  Uiso   1.00
O784   O     0.72408   0.90371   0.74423   0.00000  Uiso   1.00
O785   O     0.98157   0.84024   0.83380   0.00000  Uiso   1.00
O786   O     0.74130   0.83099   0.82446   0.00000  Uiso   1.00
O787   O     0.94258   0.76296   0.75576   0.00000  Uiso   1.00
O788   O     0.70231   0.75371   0.74642   0.00000  Uiso   1.00
O789   O     0.92537   0.83567   0.67554   0.00000  Uiso   1.00
O790   O     0.68510   0.82642   0.66620   0.00000  Uiso   1.00
Zn791  Zn    0.93786   0.83951   0.75623   0.00000  Uiso   1.00
Zn792  Zn    0.72881   0.82716   0.74376   0.00000  Uiso   1.00
loop_
_geom_bond_atom_site_label_1
_geom_bond_atom_site_label_2
_geom_bond_distance
_geom_bond_site_symmetry_2
_ccdc_geom_bond_type
Br1    C14     1.924   .     S
C2     C4      1.403   .     S
C2     O36     1.290   .     A
C2     O123    1.279   1_455 S
C3     C11     1.395   .     A
C3     C15     1.419   .     A
C3     C5      1.476   .     S
C4     C226    1.337   1_455 S
C4     H156    1.088   .     S
C5     O38     1.291   .     A
C5     O125    1.310   1_455 S
C6     C7      1.404   .     S
C6     C312    1.337   1_545 S
C6     H289    1.088   1_545 S
C7     O39     1.290   .     A
C7     O84     1.279   .     S
C8     O41     1.294   .     A
C8     C10     1.428   .     S
C8     O86     1.286   .     S
C9     H29     1.084   .     S
C9     C17     1.400   .     A
C9     C417    1.385   .     S
C10    C21     1.397   .     A
C10    C20     1.384   .     A
C11    C12     1.386   .     A
C11    H119    1.081   1_455 S
C12    C410    1.396   .     S
C12    H428    1.083   .     S
C13    C15     1.413   .     A
C13    C410    1.435   .     S
C13    C412    1.424   .     S
C14    C409    1.435   1_554 S
C14    C408    1.396   1_554 S
C15    C19     1.412   .     A
C16    C20     1.376   .     A
C16    C409    1.424   1_554 S
C16    C413    1.423   1_554 S
C17    C18     1.377   .     A
C17    C412    1.423   .     S
C18    H28     1.083   .     S
C18    C19     1.374   .     A
C19    H23     1.068   .     S
C20    H30     1.075   .     S
C21    C405    1.385   1_554 S
C21    H66     1.083   .     S
H22    C109    1.083   1_455 S
H24    C268    1.088   1_545 S
H25    C138    1.088   .     S
H26    N33     1.029   .     S
H27    N34     1.027   .     S
H31    C55     1.081   .     S
H32    C408    1.083   1_554 S
N33    N34     1.286   .     D
N33    Zn44    2.023   .     S
N34    Zn43    2.023   .     S
O35    Zn43    1.956   .     S
O35    C46     1.279   .     S
O36    Zn44    1.979   .     S
O37    Zn43    1.995   .     S
O37    C49     1.310   .     S
O38    Zn44    1.981   .     S
O39    Zn43    1.979   .     S
O40    Zn44    1.956   .     S
O40    C95     1.279   1_455 S
O41    Zn43    1.981   .     S
O42    Zn44    1.995   .     S
O42    C96     1.286   1_455 S
Br45   C58     1.924   .     S
C46    C48     1.403   .     S
C46    O80     1.290   .     A
C47    C55     1.395   .     A
C47    C59     1.419   .     A
C47    C49     1.476   .     S
C48    C138    1.337   .     S
C48    H200    1.088   .     S
C49    O82     1.291   .     A
C50    C51     1.404   .     S
C50    C356    1.337   1_545 S
C50    H333    1.088   1_545 S
C51    O83     1.290   .     A
C51    O128    1.279   .     S
C52    O85     1.294   .     A
C52    C54     1.428   .     S
C52    O130    1.286   .     S
C53    H73     1.084   .     S
C53    C61     1.400   .     A
C53    C461    1.385   .     S
C54    C65     1.397   .     A
C54    C64     1.384   .     A
C55    C56     1.386   .     A
C56    C454    1.396   .     S
C56    H472    1.083   .     S
C57    C59     1.413   .     A
C57    C454    1.435   .     S
C57    C456    1.424   .     S
C58    C453    1.435   1_554 S
C58    C452    1.396   1_554 S
C59    C63     1.412   .     A
C60    C64     1.376   .     A
C60    C453    1.424   1_554 S
C60    C457    1.423   1_554 S
C61    C62     1.377   .     A
C61    C456    1.423   .     S
C62    H72     1.083   .     S
C62    C63     1.374   .     A
C63    H67     1.068   .     S
C64    H74     1.075   .     S
C65    C449    1.385   1_554 S
C65    H110    1.083   .     S
H68    C312    1.088   1_545 S
H69    C182    1.088   .     S
H70    N77     1.029   .     S
H71    N78     1.027   .     S
H75    C99     1.081   .     S
H76    C452    1.083   1_554 S
N77    N78     1.286   .     D
N77    Zn88    2.023   .     S
N78    Zn87    2.023   .     S
O79    Zn87    1.956   .     S
O79    C90     1.279   .     S
O80    Zn88    1.979   .     S
O81    Zn87    1.995   .     S
O81    C93     1.310   .     S
O82    Zn88    1.981   .     S
O83    Zn87    1.979   .     S
O84    Zn88    1.956   .     S
O85    Zn87    1.981   .     S
O86    Zn88    1.995   .     S
Br89   C102    1.924   .     S
C90    C92     1.403   .     S
C90    O124    1.290   .     A
C91    C99     1.395   .     A
C91    C103    1.419   .     A
C91    C93     1.476   .     S
C92    C182    1.337   .     S
C92    H244    1.088   .     S
C93    O126    1.291   .     A
C94    C95     1.404   .     S
C94    C268    1.337   1_645 S
C94    H377    1.088   1_545 S
C95    O127    1.290   .     A
C95    O40     1.279   1_655 S
C96    O129    1.294   .     A
C96    C98     1.428   .     S
C96    O42     1.286   1_655 S
C97    H117    1.084   .     S
C97    C105    1.400   .     A
C97    C505    1.385   .     S
C98    C109    1.397   .     A
C98    C108    1.384   .     A
C99    C100    1.386   .     A
C100   C498    1.396   .     S
C100   H516    1.083   .     S
C101   C103    1.413   .     A
C101   C498    1.435   .     S
C101   C500    1.424   .     S
C102   C497    1.435   1_554 S
C102   C496    1.396   1_554 S
C103   C107    1.412   .     A
C104   C108    1.376   .     A
C104   C497    1.424   1_554 S
C104   C501    1.423   1_554 S
C105   C106    1.377   .     A
C105   C500    1.423   .     S
C106   H116    1.083   .     S
C106   C107    1.374   .     A
C107   H111    1.068   .     S
C108   H118    1.075   .     S
C109   C493    1.385   1_554 S
C109   H22     1.083   1_655 S
H112   C356    1.088   1_545 S
H113   C226    1.088   .     S
H114   N121    1.029   .     S
H115   N122    1.027   .     S
H119   C11     1.081   1_655 S
H120   C496    1.083   1_554 S
N121   N122    1.286   .     D
N121   Zn132   2.023   .     S
N122   Zn131   2.023   .     S
O123   Zn131   1.956   .     S
O123   C2      1.279   1_655 S
O124   Zn132   1.979   .     S
O125   Zn131   1.995   .     S
O125   C5      1.310   1_655 S
O126   Zn132   1.981   .     S
O127   Zn131   1.979   .     S
O128   Zn132   1.956   .     S
O129   Zn131   1.981   .     S
O130   Zn132   1.995   .     S
Br133  C146    1.924   .     S
C134   C136    1.403   .     S
C134   O168    1.290   .     A
C134   O255    1.279   1_455 S
C135   C143    1.395   .     A
C135   C147    1.419   .     A
C135   C137    1.476   .     S
C136   C358    1.337   1_455 S
C136   H288    1.088   .     S
C137   O170    1.291   .     A
C137   O257    1.310   1_455 S
C138   C139    1.404   .     S
C139   O171    1.290   .     A
C139   O216    1.279   .     S
C140   O173    1.294   .     A
C140   C142    1.428   .     S
C140   O218    1.286   .     S
C141   H161    1.084   .     S
C141   C149    1.400   .     A
C141   C549    1.385   .     S
C142   C153    1.397   .     A
C142   C152    1.384   .     A
C143   C144    1.386   .     A
C143   H251    1.081   1_455 S
C144   C542    1.396   .     S
C144   H560    1.083   .     S
C145   C147    1.413   .     A
C145   C542    1.435   .     S
C145   C544    1.424   .     S
C146   C541    1.435   1_554 S
C146   C540    1.396   1_554 S
C147   C151    1.412   .     A
C148   C152    1.376   .     A
C148   C541    1.424   1_554 S
C148   C545    1.423   1_554 S
C149   C150    1.377   .     A
C149   C544    1.423   .     S
C150   H160    1.083   .     S
C150   C151    1.374   .     A
C151   H155    1.068   .     S
C152   H162    1.075   .     S
C153   C537    1.385   1_554 S
C153   H198    1.083   .     S
H154   C241    1.083   1_455 S
H157   C270    1.088   .     S
H158   N165    1.029   .     S
H159   N166    1.027   .     S
H163   C187    1.081   .     S
H164   C540    1.083   1_554 S
N165   N166    1.286   .     D
N165   Zn176   2.023   .     S
N166   Zn175   2.023   .     S
O167   Zn175   1.956   .     S
O167   C178    1.279   .     S
O168   Zn176   1.979   .     S
O169   Zn175   1.995   .     S
O169   C181    1.310   .     S
O170   Zn176   1.981   .     S
O171   Zn175   1.979   .     S
O172   Zn176   1.956   .     S
O172   C227    1.279   1_455 S
O173   Zn175   1.981   .     S
O174   Zn176   1.995   .     S
O174   C228    1.286   1_455 S
Br177  C190    1.924   .     S
C178   C180    1.403   .     S
C178   O212    1.290   .     A
C179   C187    1.395   .     A
C179   C191    1.419   .     A
C179   C181    1.476   .     S
C180   C270    1.337   .     S
C180   H332    1.088   .     S
C181   O214    1.291   .     A
C182   C183    1.404   .     S
C183   O215    1.290   .     A
C183   O260    1.279   .     S
C184   O217    1.294   .     A
C184   C186    1.428   .     S
C184   O262    1.286   .     S
C185   H205    1.084   .     S
C185   C193    1.400   .     A
C185   C593    1.385   .     S
C186   C197    1.397   .     A
C186   C196    1.384   .     A
C187   C188    1.386   .     A
C188   C586    1.396   .     S
C188   H604    1.083   .     S
C189   C191    1.413   .     A
C189   C586    1.435   .     S
C189   C588    1.424   .     S
C190   C585    1.435   1_554 S
C190   C584    1.396   1_554 S
C191   C195    1.412   .     A
C192   C196    1.376   .     A
C192   C585    1.424   1_554 S
C192   C589    1.423   1_554 S
C193   C194    1.377   .     A
C193   C588    1.423   .     S
C194   H204    1.083   .     S
C194   C195    1.374   .     A
C195   H199    1.068   .     S
C196   H206    1.075   .     S
C197   C581    1.385   1_554 S
C197   H242    1.083   .     S
H201   C314    1.088   .     S
H202   N209    1.029   .     S
H203   N210    1.027   .     S
H207   C231    1.081   .     S
H208   C584    1.083   1_554 S
N209   N210    1.286   .     D
N209   Zn220   2.023   .     S
N210   Zn219   2.023   .     S
O211   Zn219   1.956   .     S
O211   C222    1.279   .     S
O212   Zn220   1.979   .     S
O213   Zn219   1.995   .     S
O213   C225    1.310   .     S
O214   Zn220   1.981   .     S
O215   Zn219   1.979   .     S
O216   Zn220   1.956   .     S
O217   Zn219   1.981   .     S
O218   Zn220   1.995   .     S
Br221  C234    1.924   .     S
C222   C224    1.403   .     S
C222   O256    1.290   .     A
C223   C231    1.395   .     A
C223   C235    1.419   .     A
C223   C225    1.476   .     S
C224   C314    1.337   .     S
C224   H376    1.088   .     S
C225   O258    1.291   .     A
C226   C227    1.404   .     S
C226   C4      1.337   1_655 S
C227   O259    1.290   .     A
C227   O172    1.279   1_655 S
C228   O261    1.294   .     A
C228   C230    1.428   .     S
C228   O174    1.286   1_655 S
C229   H249    1.084   .     S
C229   C237    1.400   .     A
C229   C637    1.385   .     S
C230   C241    1.397   .     A
C230   C240    1.384   .     A
C231   C232    1.386   .     A
C232   C630    1.396   .     S
C232   H648    1.083   .     S
C233   C235    1.413   .     A
C233   C630    1.435   .     S
C233   C632    1.424   .     S
C234   C629    1.435   1_554 S
C234   C628    1.396   1_554 S
C235   C239    1.412   .     A
C236   C240    1.376   .     A
C236   C629    1.424   1_554 S
C236   C633    1.423   1_554 S
C237   C238    1.377   .     A
C237   C632    1.423   .     S
C238   H248    1.083   .     S
C238   C239    1.374   .     A
C239   H243    1.068   .     S
C240   H250    1.075   .     S
C241   C625    1.385   1_554 S
C241   H154    1.083   1_655 S
H245   C358    1.088   .     S
H246   N253    1.029   .     S
H247   N254    1.027   .     S
H251   C143    1.081   1_655 S
H252   C628    1.083   1_554 S
N253   N254    1.286   .     D
N253   Zn264   2.023   .     S
N254   Zn263   2.023   .     S
O255   Zn263   1.956   .     S
O255   C134    1.279   1_655 S
O256   Zn264   1.979   .     S
O257   Zn263   1.995   .     S
O257   C137    1.310   1_655 S
O258   Zn264   1.981   .     S
O259   Zn263   1.979   .     S
O260   Zn264   1.956   .     S
O261   Zn263   1.981   .     S
O262   Zn264   1.995   .     S
Br265  C278    1.924   .     S
C266   C268    1.403   .     S
C266   O300    1.290   .     A
C266   O387    1.279   1_455 S
C267   C275    1.395   .     A
C267   C279    1.419   .     A
C267   C269    1.476   .     S
C268   C94     1.337   1_465 S
C268   H24     1.088   1_565 S
C269   O302    1.291   .     A
C269   O389    1.310   1_455 S
C270   C271    1.404   .     S
C271   O303    1.290   .     A
C271   O348    1.279   .     S
C272   O305    1.294   .     A
C272   C274    1.428   .     S
C272   O350    1.286   .     S
C273   H293    1.084   .     S
C273   C281    1.400   .     A
C273   C681    1.385   .     S
C274   C285    1.397   .     A
C274   C284    1.384   .     A
C275   C276    1.386   .     A
C275   H383    1.081   1_455 S
C276   C674    1.396   .     S
C276   H692    1.083   .     S
C277   C279    1.413   .     A
C277   C674    1.435   .     S
C277   C676    1.424   .     S
C278   C673    1.435   1_554 S
C278   C672    1.396   1_554 S
C279   C283    1.412   .     A
C280   C284    1.376   .     A
C280   C673    1.424   1_554 S
C280   C677    1.423   1_554 S
C281   C282    1.377   .     A
C281   C676    1.423   .     S
C282   H292    1.083   .     S
C282   C283    1.374   .     A
C283   H287    1.068   .     S
C284   H294    1.075   .     S
C285   C669    1.385   1_554 S
C285   H330    1.083   .     S
H286   C373    1.083   1_455 S
H289   C6      1.088   1_565 S
H290   N297    1.029   .     S
H291   N298    1.027   .     S
H295   C319    1.081   .     S
H296   C672    1.083   1_554 S
N297   N298    1.286   .     D
N297   Zn308   2.023   .     S
N298   Zn307   2.023   .     S
O299   Zn307   1.956   .     S
O299   C310    1.279   .     S
O300   Zn308   1.979   .     S
O301   Zn307   1.995   .     S
O301   C313    1.310   .     S
O302   Zn308   1.981   .     S
O303   Zn307   1.979   .     S
O304   Zn308   1.956   .     S
O304   C359    1.279   1_455 S
O305   Zn307   1.981   .     S
O306   Zn308   1.995   .     S
O306   C360    1.286   1_455 S
Br309  C322    1.924   .     S
C310   C312    1.403   .     S
C310   O344    1.290   .     A
C311   C319    1.395   .     A
C311   C323    1.419   .     A
C311   C313    1.476   .     S
C312   C6      1.337   1_565 S
C312   H68     1.088   1_565 S
C313   O346    1.291   .     A
C314   C315    1.404   .     S
C315   O347    1.290   .     A
C315   O392    1.279   .     S
C316   O349    1.294   .     A
C316   C318    1.428   .     S
C316   O394    1.286   .     S
C317   H337    1.084   .     S
C317   C325    1.400   .     A
C317   C725    1.385   .     S
C318   C329    1.397   .     A
C318   C328    1.384   .     A
C319   C320    1.386   .     A
C320   C718    1.396   .     S
C320   H736    1.083   .     S
C321   C323    1.413   .     A
C321   C718    1.435   .     S
C321   C720    1.424   .     S
C322   C717    1.435   1_554 S
C322   C716    1.396   1_554 S
C323   C327    1.412   .     A
C324   C328    1.376   .     A
C324   C717    1.424   1_554 S
C324   C721    1.423   1_554 S
C325   C326    1.377   .     A
C325   C720    1.423   .     S
C326   H336    1.083   .     S
C326   C327    1.374   .     A
C327   H331    1.068   .     S
C328   H338    1.075   .     S
C329   C713    1.385   1_554 S
C329   H374    1.083   .     S
H333   C50     1.088   1_565 S
H334   N341    1.029   .     S
H335   N342    1.027   .     S
H339   C363    1.081   .     S
H340   C716    1.083   1_554 S
N341   N342    1.286   .     D
N341   Zn352   2.023   .     S
N342   Zn351   2.023   .     S
O343   Zn351   1.956   .     S
O343   C354    1.279   .     S
O344   Zn352   1.979   .     S
O345   Zn351   1.995   .     S
O345   C357    1.310   .     S
O346   Zn352   1.981   .     S
O347   Zn351   1.979   .     S
O348   Zn352   1.956   .     S
O349   Zn351   1.981   .     S
O350   Zn352   1.995   .     S
Br353  C366    1.924   .     S
C354   C356    1.403   .     S
C354   O388    1.290   .     A
C355   C363    1.395   .     A
C355   C367    1.419   .     A
C355   C357    1.476   .     S
C356   C50     1.337   1_565 S
C356   H112    1.088   1_565 S
C357   O390    1.291   .     A
C358   C359    1.404   .     S
C358   C136    1.337   1_655 S
C359   O391    1.290   .     A
C359   O304    1.279   1_655 S
C360   O393    1.294   .     A
C360   C362    1.428   .     S
C360   O306    1.286   1_655 S
C361   H381    1.084   .     S
C361   C369    1.400   .     A
C361   C769    1.385   .     S
C362   C373    1.397   .     A
C362   C372    1.384   .     A
C363   C364    1.386   .     A
C364   C762    1.396   .     S
C364   H780    1.083   .     S
C365   C367    1.413   .     A
C365   C762    1.435   .     S
C365   C764    1.424   .     S
C366   C761    1.435   1_554 S
C366   C760    1.396   1_554 S
C367   C371    1.412   .     A
C368   C372    1.376   .     A
C368   C761    1.424   1_554 S
C368   C765    1.423   1_554 S
C369   C370    1.377   .     A
C369   C764    1.423   .     S
C370   H380    1.083   .     S
C370   C371    1.374   .     A
C371   H375    1.068   .     S
C372   H382    1.075   .     S
C373   C757    1.385   1_554 S
C373   H286    1.083   1_655 S
H377   C94     1.088   1_565 S
H378   N385    1.029   .     S
H379   N386    1.027   .     S
H383   C275    1.081   1_655 S
H384   C760    1.083   1_554 S
N385   N386    1.286   .     D
N385   Zn396   2.023   .     S
N386   Zn395   2.023   .     S
O387   Zn395   1.956   .     S
O387   C266    1.279   1_655 S
O388   Zn396   1.979   .     S
O389   Zn395   1.995   .     S
O389   C269    1.310   1_655 S
O390   Zn396   1.981   .     S
O391   Zn395   1.979   .     S
O392   Zn396   1.956   .     S
O393   Zn395   1.981   .     S
O394   Zn396   1.995   .     S
Br397  C410    1.924   .     S
C398   C400    1.403   .     S
C398   O432    1.290   .     A
C398   O519    1.279   1_455 S
C399   C407    1.395   .     A
C399   C411    1.419   .     A
C399   C401    1.476   .     S
C400   C622    1.337   1_455 S
C400   H552    1.088   .     S
C401   O434    1.291   .     A
C401   O521    1.310   1_455 S
C402   C403    1.404   .     S
C402   C708    1.337   1_545 S
C402   H685    1.088   1_545 S
C403   O435    1.290   .     A
C403   O480    1.279   .     S
C404   O437    1.294   .     A
C404   C406    1.428   .     S
C404   O482    1.286   .     S
C405   H425    1.084   .     S
C405   C413    1.400   .     A
C405   C21     1.385   1_556 S
C406   C417    1.397   .     A
C406   C416    1.384   .     A
C407   C408    1.386   .     A
C407   H515    1.081   1_455 S
C408   C14     1.396   1_556 S
C408   H32     1.083   1_556 S
C409   C411    1.413   .     A
C409   C14     1.435   1_556 S
C409   C16     1.424   1_556 S
C411   C415    1.412   .     A
C412   C416    1.376   .     A
C413   C414    1.377   .     A
C413   C16     1.423   1_556 S
C414   H424    1.083   .     S
C414   C415    1.374   .     A
C415   H419    1.068   .     S
C416   H426    1.075   .     S
C417   H462    1.083   .     S
H418   C505    1.083   1_455 S
H420   C664    1.088   1_545 S
H421   C534    1.088   .     S
H422   N429    1.029   .     S
H423   N430    1.027   .     S
H427   C451    1.081   .     S
N429   N430    1.286   .     D
N429   Zn440   2.023   .     S
N430   Zn439   2.023   .     S
O431   Zn439   1.956   .     S
O431   C442    1.279   .     S
O432   Zn440   1.979   .     S
O433   Zn439   1.995   .     S
O433   C445    1.310   .     S
O434   Zn440   1.981   .     S
O435   Zn439   1.979   .     S
O436   Zn440   1.956   .     S
O436   C491    1.279   1_455 S
O437   Zn439   1.981   .     S
O438   Zn440   1.995   .     S
O438   C492    1.286   1_455 S
Br441  C454    1.924   .     S
C442   C444    1.403   .     S
C442   O476    1.290   .     A
C443   C451    1.395   .     A
C443   C455    1.419   .     A
C443   C445    1.476   .     S
C444   C534    1.337   .     S
C444   H596    1.088   .     S
C445   O478    1.291   .     A
C446   C447    1.404   .     S
C446   C752    1.337   1_545 S
C446   H729    1.088   1_545 S
C447   O479    1.290   .     A
C447   O524    1.279   .     S
C448   O481    1.294   .     A
C448   C450    1.428   .     S
C448   O526    1.286   .     S
C449   H469    1.084   .     S
C449   C457    1.400   .     A
C449   C65     1.385   1_556 S
C450   C461    1.397   .     A
C450   C460    1.384   .     A
C451   C452    1.386   .     A
C452   C58     1.396   1_556 S
C452   H76     1.083   1_556 S
C453   C455    1.413   .     A
C453   C58     1.435   1_556 S
C453   C60     1.424   1_556 S
C455   C459    1.412   .     A
C456   C460    1.376   .     A
C457   C458    1.377   .     A
C457   C60     1.423   1_556 S
C458   H468    1.083   .     S
C458   C459    1.374   .     A
C459   H463    1.068   .     S
C460   H470    1.075   .     S
C461   H506    1.083   .     S
H464   C708    1.088   1_545 S
H465   C578    1.088   .     S
H466   N473    1.029   .     S
H467   N474    1.027   .     S
H471   C495    1.081   .     S
N473   N474    1.286   .     D
N473   Zn484   2.023   .     S
N474   Zn483   2.023   .     S
O475   Zn483   1.956   .     S
O475   C486    1.279   .     S
O476   Zn484   1.979   .     S
O477   Zn483   1.995   .     S
O477   C489    1.310   .     S
O478   Zn484   1.981   .     S
O479   Zn483   1.979   .     S
O480   Zn484   1.956   .     S
O481   Zn483   1.981   .     S
O482   Zn484   1.995   .     S
Br485  C498    1.924   .     S
C486   C488    1.403   .     S
C486   O520    1.290   .     A
C487   C495    1.395   .     A
C487   C499    1.419   .     A
C487   C489    1.476   .     S
C488   C578    1.337   .     S
C488   H640    1.088   .     S
C489   O522    1.291   .     A
C490   C491    1.404   .     S
C490   C664    1.337   1_645 S
C490   H773    1.088   1_545 S
C491   O523    1.290   .     A
C491   O436    1.279   1_655 S
C492   O525    1.294   .     A
C492   C494    1.428   .     S
C492   O438    1.286   1_655 S
C493   H513    1.084   .     S
C493   C501    1.400   .     A
C493   C109    1.385   1_556 S
C494   C505    1.397   .     A
C494   C504    1.384   .     A
C495   C496    1.386   .     A
C496   C102    1.396   1_556 S
C496   H120    1.083   1_556 S
C497   C499    1.413   .     A
C497   C102    1.435   1_556 S
C497   C104    1.424   1_556 S
C499   C503    1.412   .     A
C500   C504    1.376   .     A
C501   C502    1.377   .     A
C501   C104    1.423   1_556 S
C502   H512    1.083   .     S
C502   C503    1.374   .     A
C503   H507    1.068   .     S
C504   H514    1.075   .     S
C505   H418    1.083   1_655 S
H508   C752    1.088   1_545 S
H509   C622    1.088   .     S
H510   N517    1.029   .     S
H511   N518    1.027   .     S
H515   C407    1.081   1_655 S
N517   N518    1.286   .     D
N517   Zn528   2.023   .     S
N518   Zn527   2.023   .     S
O519   Zn527   1.956   .     S
O519   C398    1.279   1_655 S
O520   Zn528   1.979   .     S
O521   Zn527   1.995   .     S
O521   C401    1.310   1_655 S
O522   Zn528   1.981   .     S
O523   Zn527   1.979   .     S
O524   Zn528   1.956   .     S
O525   Zn527   1.981   .     S
O526   Zn528   1.995   .     S
Br529  C542    1.924   .     S
C530   C532    1.403   .     S
C530   O564    1.290   .     A
C530   O651    1.279   1_455 S
C531   C539    1.395   .     A
C531   C543    1.419   .     A
C531   C533    1.476   .     S
C532   C754    1.337   1_455 S
C532   H684    1.088   .     S
C533   O566    1.291   .     A
C533   O653    1.310   1_455 S
C534   C535    1.404   .     S
C535   O567    1.290   .     A
C535   O612    1.279   .     S
C536   O569    1.294   .     A
C536   C538    1.428   .     S
C536   O614    1.286   .     S
C537   H557    1.084   .     S
C537   C545    1.400   .     A
C537   C153    1.385   1_556 S
C538   C549    1.397   .     A
C538   C548    1.384   .     A
C539   C540    1.386   .     A
C539   H647    1.081   1_455 S
C540   C146    1.396   1_556 S
C540   H164    1.083   1_556 S
C541   C543    1.413   .     A
C541   C146    1.435   1_556 S
C541   C148    1.424   1_556 S
C543   C547    1.412   .     A
C544   C548    1.376   .     A
C545   C546    1.377   .     A
C545   C148    1.423   1_556 S
C546   H556    1.083   .     S
C546   C547    1.374   .     A
C547   H551    1.068   .     S
C548   H558    1.075   .     S
C549   H594    1.083   .     S
H550   C637    1.083   1_455 S
H553   C666    1.088   .     S
H554   N561    1.029   .     S
H555   N562    1.027   .     S
H559   C583    1.081   .     S
N561   N562    1.286   .     D
N561   Zn572   2.023   .     S
N562   Zn571   2.023   .     S
O563   Zn571   1.956   .     S
O563   C574    1.279   .     S
O564   Zn572   1.979   .     S
O565   Zn571   1.995   .     S
O565   C577    1.310   .     S
O566   Zn572   1.981   .     S
O567   Zn571   1.979   .     S
O568   Zn572   1.956   .     S
O568   C623    1.279   1_455 S
O569   Zn571   1.981   .     S
O570   Zn572   1.995   .     S
O570   C624    1.286   1_455 S
Br573  C586    1.924   .     S
C574   C576    1.403   .     S
C574   O608    1.290   .     A
C575   C583    1.395   .     A
C575   C587    1.419   .     A
C575   C577    1.476   .     S
C576   C666    1.337   .     S
C576   H728    1.088   .     S
C577   O610    1.291   .     A
C578   C579    1.404   .     S
C579   O611    1.290   .     A
C579   O656    1.279   .     S
C580   O613    1.294   .     A
C580   C582    1.428   .     S
C580   O658    1.286   .     S
C581   H601    1.084   .     S
C581   C589    1.400   .     A
C581   C197    1.385   1_556 S
C582   C593    1.397   .     A
C582   C592    1.384   .     A
C583   C584    1.386   .     A
C584   C190    1.396   1_556 S
C584   H208    1.083   1_556 S
C585   C587    1.413   .     A
C585   C190    1.435   1_556 S
C585   C192    1.424   1_556 S
C587   C591    1.412   .     A
C588   C592    1.376   .     A
C589   C590    1.377   .     A
C589   C192    1.423   1_556 S
C590   H600    1.083   .     S
C590   C591    1.374   .     A
C591   H595    1.068   .     S
C592   H602    1.075   .     S
C593   H638    1.083   .     S
H597   C710    1.088   .     S
H598   N605    1.029   .     S
H599   N606    1.027   .     S
H603   C627    1.081   .     S
N605   N606    1.286   .     D
N605   Zn616   2.023   .     S
N606   Zn615   2.023   .     S
O607   Zn615   1.956   .     S
O607   C618    1.279   .     S
O608   Zn616   1.979   .     S
O609   Zn615   1.995   .     S
O609   C621    1.310   .     S
O610   Zn616   1.981   .     S
O611   Zn615   1.979   .     S
O612   Zn616   1.956   .     S
O613   Zn615   1.981   .     S
O614   Zn616   1.995   .     S
Br617  C630    1.924   .     S
C618   C620    1.403   .     S
C618   O652    1.290   .     A
C619   C627    1.395   .     A
C619   C631    1.419   .     A
C619   C621    1.476   .     S
C620   C710    1.337   .     S
C620   H772    1.088   .     S
C621   O654    1.291   .     A
C622   C623    1.404   .     S
C622   C400    1.337   1_655 S
C623   O655    1.290   .     A
C623   O568    1.279   1_655 S
C624   O657    1.294   .     A
C624   C626    1.428   .     S
C624   O570    1.286   1_655 S
C625   H645    1.084   .     S
C625   C633    1.400   .     A
C625   C241    1.385   1_556 S
C626   C637    1.397   .     A
C626   C636    1.384   .     A
C627   C628    1.386   .     A
C628   C234    1.396   1_556 S
C628   H252    1.083   1_556 S
C629   C631    1.413   .     A
C629   C234    1.435   1_556 S
C629   C236    1.424   1_556 S
C631   C635    1.412   .     A
C632   C636    1.376   .     A
C633   C634    1.377   .     A
C633   C236    1.423   1_556 S
C634   H644    1.083   .     S
C634   C635    1.374   .     A
C635   H639    1.068   .     S
C636   H646    1.075   .     S
C637   H550    1.083   1_655 S
H641   C754    1.088   .     S
H642   N649    1.029   .     S
H643   N650    1.027   .     S
H647   C539    1.081   1_655 S
N649   N650    1.286   .     D
N649   Zn660   2.023   .     S
N650   Zn659   2.023   .     S
O651   Zn659   1.956   .     S
O651   C530    1.279   1_655 S
O652   Zn660   1.979   .     S
O653   Zn659   1.995   .     S
O653   C533    1.310   1_655 S
O654   Zn660   1.981   .     S
O655   Zn659   1.979   .     S
O656   Zn660   1.956   .     S
O657   Zn659   1.981   .     S
O658   Zn660   1.995   .     S
Br661  C674    1.924   .     S
C662   C664    1.403   .     S
C662   O696    1.290   .     A
C662   O783    1.279   1_455 S
C663   C671    1.395   .     A
C663   C675    1.419   .     A
C663   C665    1.476   .     S
C664   C490    1.337   1_465 S
C664   H420    1.088   1_565 S
C665   O698    1.291   .     A
C665   O785    1.310   1_455 S
C666   C667    1.404   .     S
C667   O699    1.290   .     A
C667   O744    1.279   .     S
C668   O701    1.294   .     A
C668   C670    1.428   .     S
C668   O746    1.286   .     S
C669   H689    1.084   .     S
C669   C677    1.400   .     A
C669   C285    1.385   1_556 S
C670   C681    1.397   .     A
C670   C680    1.384   .     A
C671   C672    1.386   .     A
C671   H779    1.081   1_455 S
C672   C278    1.396   1_556 S
C672   H296    1.083   1_556 S
C673   C675    1.413   .     A
C673   C278    1.435   1_556 S
C673   C280    1.424   1_556 S
C675   C679    1.412   .     A
C676   C680    1.376   .     A
C677   C678    1.377   .     A
C677   C280    1.423   1_556 S
C678   H688    1.083   .     S
C678   C679    1.374   .     A
C679   H683    1.068   .     S
C680   H690    1.075   .     S
C681   H726    1.083   .     S
H682   C769    1.083   1_455 S
H685   C402    1.088   1_565 S
H686   N693    1.029   .     S
H687   N694    1.027   .     S
H691   C715    1.081   .     S
N693   N694    1.286   .     D
N693   Zn704   2.023   .     S
N694   Zn703   2.023   .     S
O695   Zn703   1.956   .     S
O695   C706    1.279   .     S
O696   Zn704   1.979   .     S
O697   Zn703   1.995   .     S
O697   C709    1.310   .     S
O698   Zn704   1.981   .     S
O699   Zn703   1.979   .     S
O700   Zn704   1.956   .     S
O700   C755    1.279   1_455 S
O701   Zn703   1.981   .     S
O702   Zn704   1.995   .     S
O702   C756    1.286   1_455 S
Br705  C718    1.924   .     S
C706   C708    1.403   .     S
C706   O740    1.290   .     A
C707   C715    1.395   .     A
C707   C719    1.419   .     A
C707   C709    1.476   .     S
C708   C402    1.337   1_565 S
C708   H464    1.088   1_565 S
C709   O742    1.291   .     A
C710   C711    1.404   .     S
C711   O743    1.290   .     A
C711   O788    1.279   .     S
C712   O745    1.294   .     A
C712   C714    1.428   .     S
C712   O790    1.286   .     S
C713   H733    1.084   .     S
C713   C721    1.400   .     A
C713   C329    1.385   1_556 S
C714   C725    1.397   .     A
C714   C724    1.384   .     A
C715   C716    1.386   .     A
C716   C322    1.396   1_556 S
C716   H340    1.083   1_556 S
C717   C719    1.413   .     A
C717   C322    1.435   1_556 S
C717   C324    1.424   1_556 S
C719   C723    1.412   .     A
C720   C724    1.376   .     A
C721   C722    1.377   .     A
C721   C324    1.423   1_556 S
C722   H732    1.083   .     S
C722   C723    1.374   .     A
C723   H727    1.068   .     S
C724   H734    1.075   .     S
C725   H770    1.083   .     S
H729   C446    1.088   1_565 S
H730   N737    1.029   .     S
H731   N738    1.027   .     S
H735   C759    1.081   .     S
N737   N738    1.286   .     D
N737   Zn748   2.023   .     S
N738   Zn747   2.023   .     S
O739   Zn747   1.956   .     S
O739   C750    1.279   .     S
O740   Zn748   1.979   .     S
O741   Zn747   1.995   .     S
O741   C753    1.310   .     S
O742   Zn748   1.981   .     S
O743   Zn747   1.979   .     S
O744   Zn748   1.956   .     S
O745   Zn747   1.981   .     S
O746   Zn748   1.995   .     S
Br749  C762    1.924   .     S
C750   C752    1.403   .     S
C750   O784    1.290   .     A
C751   C759    1.395   .     A
C751   C763    1.419   .     A
C751   C753    1.476   .     S
C752   C446    1.337   1_565 S
C752   H508    1.088   1_565 S
C753   O786    1.291   .     A
C754   C755    1.404   .     S
C754   C532    1.337   1_655 S
C755   O787    1.290   .     A
C755   O700    1.279   1_655 S
C756   O789    1.294   .     A
C756   C758    1.428   .     S
C756   O702    1.286   1_655 S
C757   H777    1.084   .     S
C757   C765    1.400   .     A
C757   C373    1.385   1_556 S
C758   C769    1.397   .     A
C758   C768    1.384   .     A
C759   C760    1.386   .     A
C760   C366    1.396   1_556 S
C760   H384    1.083   1_556 S
C761   C763    1.413   .     A
C761   C366    1.435   1_556 S
C761   C368    1.424   1_556 S
C763   C767    1.412   .     A
C764   C768    1.376   .     A
C765   C766    1.377   .     A
C765   C368    1.423   1_556 S
C766   H776    1.083   .     S
C766   C767    1.374   .     A
C767   H771    1.068   .     S
C768   H778    1.075   .     S
C769   H682    1.083   1_655 S
H773   C490    1.088   1_565 S
H774   N781    1.029   .     S
H775   N782    1.027   .     S
H779   C671    1.081   1_655 S
N781   N782    1.286   .     D
N781   Zn792   2.023   .     S
N782   Zn791   2.023   .     S
O783   Zn791   1.956   .     S
O783   C662    1.279   1_655 S
O784   Zn792   1.979   .     S
O785   Zn791   1.995   .     S
O785   C665    1.310   1_655 S
O786   Zn792   1.981   .     S
O787   Zn791   1.979   .     S
O788   Zn792   1.956   .     S
O789   Zn791   1.981   .     S
O790   Zn792   1.995   .     S
