data_str_m3_o10_o17_pcu_sym.171
_audit_creation_date              2020-01-03
_audit_creation_method            'Materials Studio'
_symmetry_space_group_name_H-M    'P1'
_symmetry_Int_Tables_number       1
_symmetry_cell_setting            triclinic
loop_
_symmetry_equiv_pos_as_xyz
  x,y,z
_cell_length_a                    23.2923
_cell_length_b                    25.6897
_cell_length_c                    29.8437
_cell_angle_alpha                 91.1961
_cell_angle_beta                  85.6371
_cell_angle_gamma                 93.7548
loop_
_atom_site_label
_atom_site_type_symbol
_atom_site_fract_x
_atom_site_fract_y
_atom_site_fract_z
_atom_site_U_iso_or_equiv
_atom_site_adp_type
_atom_site_occupancy
C1     C     0.18195   0.26492   0.24881   0.00000  Uiso   1.00
C2     C     0.15138   0.06841   0.25116   0.00000  Uiso   1.00
C3     C     0.25588   0.22217   0.47167   0.00000  Uiso   1.00
C4     C     0.07806   0.11066   0.02824   0.00000  Uiso   1.00
C5     C     0.19001   0.31943   0.24810   0.00000  Uiso   1.00
C6     C     0.14333   0.01390   0.25184   0.00000  Uiso   1.00
C7     C     0.16721   0.16629   0.33648   0.00000  Uiso   1.00
C8     C     0.16613   0.16707   0.16351   0.00000  Uiso   1.00
C9     C     0.12032   0.14188   0.09530   0.00000  Uiso   1.00
C10    C     0.21275   0.19200   0.40465   0.00000  Uiso   1.00
C11    C     0.16529   0.16844   0.11583   0.00000  Uiso   1.00
C12    C     0.16811   0.16491   0.38413   0.00000  Uiso   1.00
C13    C     0.21064   0.19512   0.09111   0.00000  Uiso   1.00
C14    C     0.12338   0.13738   0.40882   0.00000  Uiso   1.00
C15    C     0.21170   0.19604   0.04445   0.00000  Uiso   1.00
C16    C     0.12250   0.13639   0.45547   0.00000  Uiso   1.00
C17    C     0.16666   0.16744   0.02330   0.00000  Uiso   1.00
C18    C     0.16700   0.16575   0.47664   0.00000  Uiso   1.00
C19    C     0.12124   0.14025   0.04896   0.00000  Uiso   1.00
C20    C     0.21208   0.19337   0.45099   0.00000  Uiso   1.00
C21    C     0.25655   0.22398   0.01837   0.00000  Uiso   1.00
C22    C     0.07860   0.10734   0.48153   0.00000  Uiso   1.00
H23    H     0.08587   0.12094   0.11546   0.00000  Uiso   1.00
H24    H     0.24697   0.21323   0.38448   0.00000  Uiso   1.00
H25    H     0.24442   0.21516   0.10900   0.00000  Uiso   1.00
H26    H     0.08966   0.11715   0.39097   0.00000  Uiso   1.00
H27    H     0.28977   0.24337   0.45121   0.00000  Uiso   1.00
H28    H     0.04412   0.08939   0.04862   0.00000  Uiso   1.00
H29    H     0.23407   0.00317   0.24451   0.00000  Uiso   1.00
H30    H     0.09926   0.33016   0.25541   0.00000  Uiso   1.00
H31    H     0.00466   0.12757   0.21599   0.00000  Uiso   1.00
H32    H     0.32868   0.20576   0.28402   0.00000  Uiso   1.00
N33    N     0.31678   0.15265   0.23783   0.00000  Uiso   1.00
N34    N     0.01656   0.18068   0.26217   0.00000  Uiso   1.00
O35    O     0.12975   0.24619   0.25299   0.00000  Uiso   1.00
O36    O     0.20358   0.08714   0.24702   0.00000  Uiso   1.00
O37    O     0.22613   0.23721   0.24519   0.00000  Uiso   1.00
O38    O     0.10720   0.09613   0.25482   0.00000  Uiso   1.00
O39    O     0.11847   0.17117   0.31998   0.00000  Uiso   1.00
O40    O     0.21486   0.16216   0.18003   0.00000  Uiso   1.00
O41    O     0.21485   0.16219   0.31218   0.00000  Uiso   1.00
O42    O     0.11848   0.17115   0.18783   0.00000  Uiso   1.00
Zn43   Zn    0.10231   0.17266   0.25521   0.00000  Uiso   1.00
Zn44   Zn    0.23102   0.16067   0.24479   0.00000  Uiso   1.00
C45    C     0.30531   0.25626   0.03864   0.00000  Uiso   1.00
C46    C     0.28502   0.30818   0.05772   0.00000  Uiso   1.00
H47    H     0.26779   0.33067   0.03090   0.00000  Uiso   1.00
H48    H     0.25082   0.30206   0.08539   0.00000  Uiso   1.00
H49    H     0.32198   0.33149   0.07107   0.00000  Uiso   1.00
H50    H     0.32420   0.23407   0.06482   0.00000  Uiso   1.00
H51    H     0.00797   0.26510   0.01271   0.00000  Uiso   1.00
C52    C     0.03285   0.07137   0.46128   0.00000  Uiso   1.00
C53    C     0.31422   0.10097   0.45103   0.00000  Uiso   1.00
H54    H     0.29363   0.11696   0.48271   0.00000  Uiso   1.00
H55    H     0.32734   0.13342   0.42768   0.00000  Uiso   1.00
H56    H     0.28208   0.07405   0.43524   0.00000  Uiso   1.00
H57    H     0.05066   0.05100   0.43068   0.00000  Uiso   1.00
H58    H     0.01783   0.03976   0.48505   0.00000  Uiso   1.00
C59    C     0.51529   0.26492   0.24881   0.00000  Uiso   1.00
C60    C     0.48471   0.06841   0.25116   0.00000  Uiso   1.00
C61    C     0.58921   0.22217   0.47167   0.00000  Uiso   1.00
C62    C     0.41139   0.11066   0.02824   0.00000  Uiso   1.00
C63    C     0.52334   0.31943   0.24810   0.00000  Uiso   1.00
C64    C     0.47666   0.01390   0.25184   0.00000  Uiso   1.00
C65    C     0.50054   0.16629   0.33648   0.00000  Uiso   1.00
C66    C     0.49947   0.16707   0.16351   0.00000  Uiso   1.00
C67    C     0.45365   0.14188   0.09530   0.00000  Uiso   1.00
C68    C     0.54608   0.19200   0.40465   0.00000  Uiso   1.00
C69    C     0.49862   0.16844   0.11583   0.00000  Uiso   1.00
C70    C     0.50145   0.16491   0.38413   0.00000  Uiso   1.00
C71    C     0.54397   0.19512   0.09111   0.00000  Uiso   1.00
C72    C     0.45671   0.13738   0.40882   0.00000  Uiso   1.00
C73    C     0.54504   0.19604   0.04445   0.00000  Uiso   1.00
C74    C     0.45584   0.13639   0.45547   0.00000  Uiso   1.00
C75    C     0.49999   0.16744   0.02330   0.00000  Uiso   1.00
C76    C     0.50033   0.16575   0.47664   0.00000  Uiso   1.00
C77    C     0.45458   0.14025   0.04896   0.00000  Uiso   1.00
C78    C     0.54541   0.19337   0.45099   0.00000  Uiso   1.00
C79    C     0.58988   0.22398   0.01837   0.00000  Uiso   1.00
C80    C     0.41193   0.10734   0.48153   0.00000  Uiso   1.00
H81    H     0.41920   0.12094   0.11546   0.00000  Uiso   1.00
H82    H     0.58030   0.21323   0.38448   0.00000  Uiso   1.00
H83    H     0.57775   0.21516   0.10900   0.00000  Uiso   1.00
H84    H     0.42299   0.11715   0.39097   0.00000  Uiso   1.00
H85    H     0.62311   0.24337   0.45121   0.00000  Uiso   1.00
H86    H     0.37745   0.08939   0.04862   0.00000  Uiso   1.00
H87    H     0.56740   0.00317   0.24451   0.00000  Uiso   1.00
H88    H     0.43260   0.33016   0.25541   0.00000  Uiso   1.00
H89    H     0.33799   0.12757   0.21599   0.00000  Uiso   1.00
H90    H     0.66201   0.20576   0.28402   0.00000  Uiso   1.00
N91    N     0.65011   0.15265   0.23783   0.00000  Uiso   1.00
N92    N     0.34989   0.18068   0.26217   0.00000  Uiso   1.00
O93    O     0.46308   0.24619   0.25299   0.00000  Uiso   1.00
O94    O     0.53692   0.08714   0.24702   0.00000  Uiso   1.00
O95    O     0.55946   0.23721   0.24519   0.00000  Uiso   1.00
O96    O     0.44054   0.09613   0.25482   0.00000  Uiso   1.00
O97    O     0.45181   0.17117   0.31998   0.00000  Uiso   1.00
O98    O     0.54819   0.16216   0.18003   0.00000  Uiso   1.00
O99    O     0.54819   0.16219   0.31218   0.00000  Uiso   1.00
O100   O     0.45181   0.17115   0.18783   0.00000  Uiso   1.00
Zn101  Zn    0.43565   0.17266   0.25521   0.00000  Uiso   1.00
Zn102  Zn    0.56435   0.16067   0.24479   0.00000  Uiso   1.00
C103   C     0.63864   0.25626   0.03864   0.00000  Uiso   1.00
C104   C     0.61836   0.30818   0.05772   0.00000  Uiso   1.00
H105   H     0.60112   0.33067   0.03090   0.00000  Uiso   1.00
H106   H     0.58415   0.30206   0.08539   0.00000  Uiso   1.00
H107   H     0.65531   0.33149   0.07107   0.00000  Uiso   1.00
H108   H     0.65753   0.23407   0.06482   0.00000  Uiso   1.00
H109   H     0.34131   0.26510   0.01271   0.00000  Uiso   1.00
C110   C     0.36618   0.07137   0.46128   0.00000  Uiso   1.00
C111   C     0.64755   0.10097   0.45103   0.00000  Uiso   1.00
H112   H     0.62696   0.11696   0.48271   0.00000  Uiso   1.00
H113   H     0.66068   0.13342   0.42768   0.00000  Uiso   1.00
H114   H     0.61541   0.07405   0.43524   0.00000  Uiso   1.00
H115   H     0.38399   0.05100   0.43068   0.00000  Uiso   1.00
H116   H     0.35117   0.03976   0.48505   0.00000  Uiso   1.00
C117   C     0.84862   0.26492   0.24881   0.00000  Uiso   1.00
C118   C     0.81804   0.06841   0.25116   0.00000  Uiso   1.00
C119   C     0.92254   0.22217   0.47167   0.00000  Uiso   1.00
C120   C     0.74473   0.11066   0.02824   0.00000  Uiso   1.00
C121   C     0.85667   0.31943   0.24810   0.00000  Uiso   1.00
C122   C     0.80999   0.01390   0.25184   0.00000  Uiso   1.00
C123   C     0.83388   0.16629   0.33648   0.00000  Uiso   1.00
C124   C     0.83280   0.16707   0.16351   0.00000  Uiso   1.00
C125   C     0.78699   0.14188   0.09530   0.00000  Uiso   1.00
C126   C     0.87941   0.19200   0.40465   0.00000  Uiso   1.00
C127   C     0.83196   0.16844   0.11583   0.00000  Uiso   1.00
C128   C     0.83478   0.16491   0.38413   0.00000  Uiso   1.00
C129   C     0.87730   0.19512   0.09111   0.00000  Uiso   1.00
C130   C     0.79004   0.13738   0.40882   0.00000  Uiso   1.00
C131   C     0.87837   0.19604   0.04445   0.00000  Uiso   1.00
C132   C     0.78917   0.13639   0.45547   0.00000  Uiso   1.00
C133   C     0.83332   0.16744   0.02330   0.00000  Uiso   1.00
C134   C     0.83367   0.16575   0.47664   0.00000  Uiso   1.00
C135   C     0.78791   0.14025   0.04896   0.00000  Uiso   1.00
C136   C     0.87874   0.19337   0.45099   0.00000  Uiso   1.00
C137   C     0.92322   0.22398   0.01837   0.00000  Uiso   1.00
C138   C     0.74526   0.10734   0.48153   0.00000  Uiso   1.00
H139   H     0.75253   0.12094   0.11546   0.00000  Uiso   1.00
H140   H     0.91364   0.21323   0.38448   0.00000  Uiso   1.00
H141   H     0.91108   0.21516   0.10900   0.00000  Uiso   1.00
H142   H     0.75632   0.11715   0.39097   0.00000  Uiso   1.00
H143   H     0.95644   0.24337   0.45121   0.00000  Uiso   1.00
H144   H     0.71079   0.08939   0.04862   0.00000  Uiso   1.00
H145   H     0.90074   0.00317   0.24451   0.00000  Uiso   1.00
H146   H     0.76593   0.33016   0.25541   0.00000  Uiso   1.00
H147   H     0.67132   0.12757   0.21599   0.00000  Uiso   1.00
H148   H     0.99534   0.20576   0.28402   0.00000  Uiso   1.00
N149   N     0.98344   0.15265   0.23783   0.00000  Uiso   1.00
N150   N     0.68322   0.18068   0.26217   0.00000  Uiso   1.00
O151   O     0.79642   0.24619   0.25299   0.00000  Uiso   1.00
O152   O     0.87025   0.08714   0.24702   0.00000  Uiso   1.00
O153   O     0.89280   0.23721   0.24519   0.00000  Uiso   1.00
O154   O     0.77387   0.09613   0.25482   0.00000  Uiso   1.00
O155   O     0.78514   0.17117   0.31998   0.00000  Uiso   1.00
O156   O     0.88153   0.16216   0.18003   0.00000  Uiso   1.00
O157   O     0.88152   0.16219   0.31218   0.00000  Uiso   1.00
O158   O     0.78515   0.17115   0.18783   0.00000  Uiso   1.00
Zn159  Zn    0.76898   0.17266   0.25521   0.00000  Uiso   1.00
Zn160  Zn    0.89769   0.16067   0.24479   0.00000  Uiso   1.00
C161   C     0.97197   0.25626   0.03864   0.00000  Uiso   1.00
C162   C     0.95169   0.30818   0.05772   0.00000  Uiso   1.00
H163   H     0.93446   0.33067   0.03090   0.00000  Uiso   1.00
H164   H     0.91748   0.30206   0.08539   0.00000  Uiso   1.00
H165   H     0.98864   0.33149   0.07107   0.00000  Uiso   1.00
H166   H     0.99086   0.23407   0.06482   0.00000  Uiso   1.00
H167   H     0.67464   0.26510   0.01271   0.00000  Uiso   1.00
C168   C     0.69952   0.07137   0.46128   0.00000  Uiso   1.00
C169   C     0.98088   0.10097   0.45103   0.00000  Uiso   1.00
H170   H     0.96029   0.11696   0.48271   0.00000  Uiso   1.00
H171   H     0.99401   0.13342   0.42768   0.00000  Uiso   1.00
H172   H     0.94875   0.07405   0.43524   0.00000  Uiso   1.00
H173   H     0.71732   0.05100   0.43068   0.00000  Uiso   1.00
H174   H     0.68450   0.03976   0.48505   0.00000  Uiso   1.00
C175   C     0.18195   0.59826   0.24881   0.00000  Uiso   1.00
C176   C     0.15138   0.40174   0.25116   0.00000  Uiso   1.00
C177   C     0.25588   0.55551   0.47167   0.00000  Uiso   1.00
C178   C     0.07806   0.44399   0.02824   0.00000  Uiso   1.00
C179   C     0.19001   0.65277   0.24810   0.00000  Uiso   1.00
C180   C     0.14333   0.34723   0.25184   0.00000  Uiso   1.00
C181   C     0.16721   0.49963   0.33648   0.00000  Uiso   1.00
C182   C     0.16613   0.50040   0.16351   0.00000  Uiso   1.00
C183   C     0.12032   0.47522   0.09530   0.00000  Uiso   1.00
C184   C     0.21275   0.52534   0.40465   0.00000  Uiso   1.00
C185   C     0.16529   0.50177   0.11583   0.00000  Uiso   1.00
C186   C     0.16811   0.49824   0.38413   0.00000  Uiso   1.00
C187   C     0.21064   0.52845   0.09111   0.00000  Uiso   1.00
C188   C     0.12338   0.47071   0.40882   0.00000  Uiso   1.00
C189   C     0.21170   0.52938   0.04445   0.00000  Uiso   1.00
C190   C     0.12250   0.46972   0.45547   0.00000  Uiso   1.00
C191   C     0.16666   0.50077   0.02330   0.00000  Uiso   1.00
C192   C     0.16700   0.49909   0.47664   0.00000  Uiso   1.00
C193   C     0.12124   0.47358   0.04896   0.00000  Uiso   1.00
C194   C     0.21208   0.52670   0.45099   0.00000  Uiso   1.00
C195   C     0.25655   0.55731   0.01837   0.00000  Uiso   1.00
C196   C     0.07860   0.44068   0.48153   0.00000  Uiso   1.00
H197   H     0.08587   0.45428   0.11546   0.00000  Uiso   1.00
H198   H     0.24697   0.54656   0.38448   0.00000  Uiso   1.00
H199   H     0.24442   0.54850   0.10900   0.00000  Uiso   1.00
H200   H     0.08966   0.45049   0.39097   0.00000  Uiso   1.00
H201   H     0.28977   0.57671   0.45121   0.00000  Uiso   1.00
H202   H     0.04412   0.42272   0.04862   0.00000  Uiso   1.00
H203   H     0.23407   0.33651   0.24451   0.00000  Uiso   1.00
H204   H     0.09926   0.66349   0.25541   0.00000  Uiso   1.00
H205   H     0.00466   0.46090   0.21599   0.00000  Uiso   1.00
H206   H     0.32868   0.53910   0.28402   0.00000  Uiso   1.00
N207   N     0.31678   0.48598   0.23783   0.00000  Uiso   1.00
N208   N     0.01656   0.51402   0.26217   0.00000  Uiso   1.00
O209   O     0.12975   0.57952   0.25299   0.00000  Uiso   1.00
O210   O     0.20358   0.42048   0.24702   0.00000  Uiso   1.00
O211   O     0.22613   0.57054   0.24519   0.00000  Uiso   1.00
O212   O     0.10720   0.42946   0.25482   0.00000  Uiso   1.00
O213   O     0.11847   0.50450   0.31998   0.00000  Uiso   1.00
O214   O     0.21486   0.49550   0.18003   0.00000  Uiso   1.00
O215   O     0.21485   0.49552   0.31218   0.00000  Uiso   1.00
O216   O     0.11848   0.50448   0.18783   0.00000  Uiso   1.00
Zn217  Zn    0.10231   0.50600   0.25521   0.00000  Uiso   1.00
Zn218  Zn    0.23102   0.49400   0.24479   0.00000  Uiso   1.00
C219   C     0.30531   0.58960   0.03864   0.00000  Uiso   1.00
C220   C     0.28502   0.64151   0.05772   0.00000  Uiso   1.00
H221   H     0.26779   0.66400   0.03090   0.00000  Uiso   1.00
H222   H     0.25082   0.63539   0.08539   0.00000  Uiso   1.00
H223   H     0.32198   0.66482   0.07107   0.00000  Uiso   1.00
H224   H     0.32420   0.56740   0.06482   0.00000  Uiso   1.00
H225   H     0.00797   0.59843   0.01271   0.00000  Uiso   1.00
C226   C     0.03285   0.40471   0.46128   0.00000  Uiso   1.00
C227   C     0.31422   0.43430   0.45103   0.00000  Uiso   1.00
H228   H     0.29363   0.45030   0.48271   0.00000  Uiso   1.00
H229   H     0.32734   0.46676   0.42768   0.00000  Uiso   1.00
H230   H     0.28208   0.40738   0.43524   0.00000  Uiso   1.00
H231   H     0.05066   0.38434   0.43068   0.00000  Uiso   1.00
H232   H     0.01783   0.37309   0.48505   0.00000  Uiso   1.00
C233   C     0.51529   0.59826   0.24881   0.00000  Uiso   1.00
C234   C     0.48471   0.40174   0.25116   0.00000  Uiso   1.00
C235   C     0.58921   0.55551   0.47167   0.00000  Uiso   1.00
C236   C     0.41139   0.44399   0.02824   0.00000  Uiso   1.00
C237   C     0.52334   0.65277   0.24810   0.00000  Uiso   1.00
C238   C     0.47666   0.34723   0.25184   0.00000  Uiso   1.00
C239   C     0.50054   0.49963   0.33648   0.00000  Uiso   1.00
C240   C     0.49947   0.50040   0.16351   0.00000  Uiso   1.00
C241   C     0.45365   0.47522   0.09530   0.00000  Uiso   1.00
C242   C     0.54608   0.52534   0.40465   0.00000  Uiso   1.00
C243   C     0.49862   0.50177   0.11583   0.00000  Uiso   1.00
C244   C     0.50145   0.49824   0.38413   0.00000  Uiso   1.00
C245   C     0.54397   0.52845   0.09111   0.00000  Uiso   1.00
C246   C     0.45671   0.47071   0.40882   0.00000  Uiso   1.00
C247   C     0.54504   0.52938   0.04445   0.00000  Uiso   1.00
C248   C     0.45584   0.46972   0.45547   0.00000  Uiso   1.00
C249   C     0.49999   0.50077   0.02330   0.00000  Uiso   1.00
C250   C     0.50033   0.49909   0.47664   0.00000  Uiso   1.00
C251   C     0.45458   0.47358   0.04896   0.00000  Uiso   1.00
C252   C     0.54541   0.52670   0.45099   0.00000  Uiso   1.00
C253   C     0.58988   0.55731   0.01837   0.00000  Uiso   1.00
C254   C     0.41193   0.44068   0.48153   0.00000  Uiso   1.00
H255   H     0.41920   0.45428   0.11546   0.00000  Uiso   1.00
H256   H     0.58030   0.54656   0.38448   0.00000  Uiso   1.00
H257   H     0.57775   0.54850   0.10900   0.00000  Uiso   1.00
H258   H     0.42299   0.45049   0.39097   0.00000  Uiso   1.00
H259   H     0.62311   0.57671   0.45121   0.00000  Uiso   1.00
H260   H     0.37745   0.42272   0.04862   0.00000  Uiso   1.00
H261   H     0.56740   0.33651   0.24451   0.00000  Uiso   1.00
H262   H     0.43260   0.66349   0.25541   0.00000  Uiso   1.00
H263   H     0.33799   0.46090   0.21599   0.00000  Uiso   1.00
H264   H     0.66201   0.53910   0.28402   0.00000  Uiso   1.00
N265   N     0.65011   0.48598   0.23783   0.00000  Uiso   1.00
N266   N     0.34989   0.51402   0.26217   0.00000  Uiso   1.00
O267   O     0.46308   0.57952   0.25299   0.00000  Uiso   1.00
O268   O     0.53692   0.42048   0.24702   0.00000  Uiso   1.00
O269   O     0.55946   0.57054   0.24519   0.00000  Uiso   1.00
O270   O     0.44054   0.42946   0.25482   0.00000  Uiso   1.00
O271   O     0.45181   0.50450   0.31998   0.00000  Uiso   1.00
O272   O     0.54819   0.49550   0.18003   0.00000  Uiso   1.00
O273   O     0.54819   0.49552   0.31218   0.00000  Uiso   1.00
O274   O     0.45181   0.50448   0.18783   0.00000  Uiso   1.00
Zn275  Zn    0.43565   0.50600   0.25521   0.00000  Uiso   1.00
Zn276  Zn    0.56435   0.49400   0.24479   0.00000  Uiso   1.00
C277   C     0.63864   0.58960   0.03864   0.00000  Uiso   1.00
C278   C     0.61836   0.64151   0.05772   0.00000  Uiso   1.00
H279   H     0.60112   0.66400   0.03090   0.00000  Uiso   1.00
H280   H     0.58415   0.63539   0.08539   0.00000  Uiso   1.00
H281   H     0.65531   0.66482   0.07107   0.00000  Uiso   1.00
H282   H     0.65753   0.56740   0.06482   0.00000  Uiso   1.00
H283   H     0.34131   0.59843   0.01271   0.00000  Uiso   1.00
C284   C     0.36618   0.40471   0.46128   0.00000  Uiso   1.00
C285   C     0.64755   0.43430   0.45103   0.00000  Uiso   1.00
H286   H     0.62696   0.45030   0.48271   0.00000  Uiso   1.00
H287   H     0.66068   0.46676   0.42768   0.00000  Uiso   1.00
H288   H     0.61541   0.40738   0.43524   0.00000  Uiso   1.00
H289   H     0.38399   0.38434   0.43068   0.00000  Uiso   1.00
H290   H     0.35117   0.37309   0.48505   0.00000  Uiso   1.00
C291   C     0.84862   0.59826   0.24881   0.00000  Uiso   1.00
C292   C     0.81804   0.40174   0.25116   0.00000  Uiso   1.00
C293   C     0.92254   0.55551   0.47167   0.00000  Uiso   1.00
C294   C     0.74473   0.44399   0.02824   0.00000  Uiso   1.00
C295   C     0.85667   0.65277   0.24810   0.00000  Uiso   1.00
C296   C     0.80999   0.34723   0.25184   0.00000  Uiso   1.00
C297   C     0.83388   0.49963   0.33648   0.00000  Uiso   1.00
C298   C     0.83280   0.50040   0.16351   0.00000  Uiso   1.00
C299   C     0.78699   0.47522   0.09530   0.00000  Uiso   1.00
C300   C     0.87941   0.52534   0.40465   0.00000  Uiso   1.00
C301   C     0.83196   0.50177   0.11583   0.00000  Uiso   1.00
C302   C     0.83478   0.49824   0.38413   0.00000  Uiso   1.00
C303   C     0.87730   0.52845   0.09111   0.00000  Uiso   1.00
C304   C     0.79004   0.47071   0.40882   0.00000  Uiso   1.00
C305   C     0.87837   0.52938   0.04445   0.00000  Uiso   1.00
C306   C     0.78917   0.46972   0.45547   0.00000  Uiso   1.00
C307   C     0.83332   0.50077   0.02330   0.00000  Uiso   1.00
C308   C     0.83367   0.49909   0.47664   0.00000  Uiso   1.00
C309   C     0.78791   0.47358   0.04896   0.00000  Uiso   1.00
C310   C     0.87874   0.52670   0.45099   0.00000  Uiso   1.00
C311   C     0.92322   0.55731   0.01837   0.00000  Uiso   1.00
C312   C     0.74526   0.44068   0.48153   0.00000  Uiso   1.00
H313   H     0.75253   0.45428   0.11546   0.00000  Uiso   1.00
H314   H     0.91364   0.54656   0.38448   0.00000  Uiso   1.00
H315   H     0.91108   0.54850   0.10900   0.00000  Uiso   1.00
H316   H     0.75632   0.45049   0.39097   0.00000  Uiso   1.00
H317   H     0.95644   0.57671   0.45121   0.00000  Uiso   1.00
H318   H     0.71079   0.42272   0.04862   0.00000  Uiso   1.00
H319   H     0.90074   0.33651   0.24451   0.00000  Uiso   1.00
H320   H     0.76593   0.66349   0.25541   0.00000  Uiso   1.00
H321   H     0.67132   0.46090   0.21599   0.00000  Uiso   1.00
H322   H     0.99534   0.53910   0.28402   0.00000  Uiso   1.00
N323   N     0.98344   0.48598   0.23783   0.00000  Uiso   1.00
N324   N     0.68322   0.51402   0.26217   0.00000  Uiso   1.00
O325   O     0.79642   0.57952   0.25299   0.00000  Uiso   1.00
O326   O     0.87025   0.42048   0.24702   0.00000  Uiso   1.00
O327   O     0.89280   0.57054   0.24519   0.00000  Uiso   1.00
O328   O     0.77387   0.42946   0.25482   0.00000  Uiso   1.00
O329   O     0.78514   0.50450   0.31998   0.00000  Uiso   1.00
O330   O     0.88153   0.49550   0.18003   0.00000  Uiso   1.00
O331   O     0.88152   0.49552   0.31218   0.00000  Uiso   1.00
O332   O     0.78515   0.50448   0.18783   0.00000  Uiso   1.00
Zn333  Zn    0.76898   0.50600   0.25521   0.00000  Uiso   1.00
Zn334  Zn    0.89769   0.49400   0.24479   0.00000  Uiso   1.00
C335   C     0.97197   0.58960   0.03864   0.00000  Uiso   1.00
C336   C     0.95169   0.64151   0.05772   0.00000  Uiso   1.00
H337   H     0.93446   0.66400   0.03090   0.00000  Uiso   1.00
H338   H     0.91748   0.63539   0.08539   0.00000  Uiso   1.00
H339   H     0.98864   0.66482   0.07107   0.00000  Uiso   1.00
H340   H     0.99086   0.56740   0.06482   0.00000  Uiso   1.00
H341   H     0.67464   0.59843   0.01271   0.00000  Uiso   1.00
C342   C     0.69952   0.40471   0.46128   0.00000  Uiso   1.00
C343   C     0.98088   0.43430   0.45103   0.00000  Uiso   1.00
H344   H     0.96029   0.45030   0.48271   0.00000  Uiso   1.00
H345   H     0.99401   0.46676   0.42768   0.00000  Uiso   1.00
H346   H     0.94875   0.40738   0.43524   0.00000  Uiso   1.00
H347   H     0.71732   0.38434   0.43068   0.00000  Uiso   1.00
H348   H     0.68450   0.37309   0.48505   0.00000  Uiso   1.00
C349   C     0.18195   0.93159   0.24881   0.00000  Uiso   1.00
C350   C     0.15138   0.73508   0.25116   0.00000  Uiso   1.00
C351   C     0.25588   0.88884   0.47167   0.00000  Uiso   1.00
C352   C     0.07806   0.77732   0.02824   0.00000  Uiso   1.00
C353   C     0.19001   0.98610   0.24810   0.00000  Uiso   1.00
C354   C     0.14333   0.68056   0.25184   0.00000  Uiso   1.00
C355   C     0.16721   0.83296   0.33648   0.00000  Uiso   1.00
C356   C     0.16613   0.83373   0.16351   0.00000  Uiso   1.00
C357   C     0.12032   0.80855   0.09530   0.00000  Uiso   1.00
C358   C     0.21275   0.85867   0.40465   0.00000  Uiso   1.00
C359   C     0.16529   0.83511   0.11583   0.00000  Uiso   1.00
C360   C     0.16811   0.83158   0.38413   0.00000  Uiso   1.00
C361   C     0.21064   0.86179   0.09111   0.00000  Uiso   1.00
C362   C     0.12338   0.80405   0.40882   0.00000  Uiso   1.00
C363   C     0.21170   0.86271   0.04445   0.00000  Uiso   1.00
C364   C     0.12250   0.80306   0.45547   0.00000  Uiso   1.00
C365   C     0.16666   0.83411   0.02330   0.00000  Uiso   1.00
C366   C     0.16700   0.83242   0.47664   0.00000  Uiso   1.00
C367   C     0.12124   0.80691   0.04896   0.00000  Uiso   1.00
C368   C     0.21208   0.86003   0.45099   0.00000  Uiso   1.00
C369   C     0.25655   0.89064   0.01837   0.00000  Uiso   1.00
C370   C     0.07860   0.77401   0.48153   0.00000  Uiso   1.00
H371   H     0.08587   0.78761   0.11546   0.00000  Uiso   1.00
H372   H     0.24697   0.87989   0.38448   0.00000  Uiso   1.00
H373   H     0.24442   0.88183   0.10900   0.00000  Uiso   1.00
H374   H     0.08966   0.78382   0.39097   0.00000  Uiso   1.00
H375   H     0.28977   0.91004   0.45121   0.00000  Uiso   1.00
H376   H     0.04412   0.75605   0.04862   0.00000  Uiso   1.00
H377   H     0.23407   0.66984   0.24451   0.00000  Uiso   1.00
H378   H     0.09926   0.99683   0.25541   0.00000  Uiso   1.00
H379   H     0.00466   0.79423   0.21599   0.00000  Uiso   1.00
H380   H     0.32868   0.87243   0.28402   0.00000  Uiso   1.00
N381   N     0.31678   0.81932   0.23783   0.00000  Uiso   1.00
N382   N     0.01656   0.84735   0.26217   0.00000  Uiso   1.00
O383   O     0.12975   0.91286   0.25299   0.00000  Uiso   1.00
O384   O     0.20358   0.75381   0.24702   0.00000  Uiso   1.00
O385   O     0.22613   0.90387   0.24519   0.00000  Uiso   1.00
O386   O     0.10720   0.76279   0.25482   0.00000  Uiso   1.00
O387   O     0.11847   0.83784   0.31998   0.00000  Uiso   1.00
O388   O     0.21486   0.82883   0.18003   0.00000  Uiso   1.00
O389   O     0.21485   0.82885   0.31218   0.00000  Uiso   1.00
O390   O     0.11848   0.83781   0.18783   0.00000  Uiso   1.00
Zn391  Zn    0.10231   0.83933   0.25521   0.00000  Uiso   1.00
Zn392  Zn    0.23102   0.82734   0.24479   0.00000  Uiso   1.00
C393   C     0.30531   0.92293   0.03864   0.00000  Uiso   1.00
C394   C     0.28502   0.97485   0.05772   0.00000  Uiso   1.00
H395   H     0.26779   0.99733   0.03090   0.00000  Uiso   1.00
H396   H     0.25082   0.96873   0.08539   0.00000  Uiso   1.00
H397   H     0.32198   0.99816   0.07107   0.00000  Uiso   1.00
H398   H     0.32420   0.90074   0.06482   0.00000  Uiso   1.00
H399   H     0.00797   0.93177   0.01271   0.00000  Uiso   1.00
C400   C     0.03285   0.73804   0.46128   0.00000  Uiso   1.00
C401   C     0.31422   0.76764   0.45103   0.00000  Uiso   1.00
H402   H     0.29363   0.78363   0.48271   0.00000  Uiso   1.00
H403   H     0.32734   0.80009   0.42768   0.00000  Uiso   1.00
H404   H     0.28208   0.74072   0.43524   0.00000  Uiso   1.00
H405   H     0.05066   0.71767   0.43068   0.00000  Uiso   1.00
H406   H     0.01783   0.70642   0.48505   0.00000  Uiso   1.00
C407   C     0.51529   0.93159   0.24881   0.00000  Uiso   1.00
C408   C     0.48471   0.73508   0.25116   0.00000  Uiso   1.00
C409   C     0.58921   0.88884   0.47167   0.00000  Uiso   1.00
C410   C     0.41139   0.77732   0.02824   0.00000  Uiso   1.00
C411   C     0.52334   0.98610   0.24810   0.00000  Uiso   1.00
C412   C     0.47666   0.68056   0.25184   0.00000  Uiso   1.00
C413   C     0.50054   0.83296   0.33648   0.00000  Uiso   1.00
C414   C     0.49947   0.83373   0.16351   0.00000  Uiso   1.00
C415   C     0.45365   0.80855   0.09530   0.00000  Uiso   1.00
C416   C     0.54608   0.85867   0.40465   0.00000  Uiso   1.00
C417   C     0.49862   0.83511   0.11583   0.00000  Uiso   1.00
C418   C     0.50145   0.83158   0.38413   0.00000  Uiso   1.00
C419   C     0.54397   0.86179   0.09111   0.00000  Uiso   1.00
C420   C     0.45671   0.80405   0.40882   0.00000  Uiso   1.00
C421   C     0.54504   0.86271   0.04445   0.00000  Uiso   1.00
C422   C     0.45584   0.80306   0.45547   0.00000  Uiso   1.00
C423   C     0.49999   0.83411   0.02330   0.00000  Uiso   1.00
C424   C     0.50033   0.83242   0.47664   0.00000  Uiso   1.00
C425   C     0.45458   0.80691   0.04896   0.00000  Uiso   1.00
C426   C     0.54541   0.86003   0.45099   0.00000  Uiso   1.00
C427   C     0.58988   0.89064   0.01837   0.00000  Uiso   1.00
C428   C     0.41193   0.77401   0.48153   0.00000  Uiso   1.00
H429   H     0.41920   0.78761   0.11546   0.00000  Uiso   1.00
H430   H     0.58030   0.87989   0.38448   0.00000  Uiso   1.00
H431   H     0.57775   0.88183   0.10900   0.00000  Uiso   1.00
H432   H     0.42299   0.78382   0.39097   0.00000  Uiso   1.00
H433   H     0.62311   0.91004   0.45121   0.00000  Uiso   1.00
H434   H     0.37745   0.75605   0.04862   0.00000  Uiso   1.00
H435   H     0.56740   0.66984   0.24451   0.00000  Uiso   1.00
H436   H     0.43260   0.99683   0.25541   0.00000  Uiso   1.00
H437   H     0.33799   0.79423   0.21599   0.00000  Uiso   1.00
H438   H     0.66201   0.87243   0.28402   0.00000  Uiso   1.00
N439   N     0.65011   0.81932   0.23783   0.00000  Uiso   1.00
N440   N     0.34989   0.84735   0.26217   0.00000  Uiso   1.00
O441   O     0.46308   0.91286   0.25299   0.00000  Uiso   1.00
O442   O     0.53692   0.75381   0.24702   0.00000  Uiso   1.00
O443   O     0.55946   0.90387   0.24519   0.00000  Uiso   1.00
O444   O     0.44054   0.76279   0.25482   0.00000  Uiso   1.00
O445   O     0.45181   0.83784   0.31998   0.00000  Uiso   1.00
O446   O     0.54819   0.82883   0.18003   0.00000  Uiso   1.00
O447   O     0.54819   0.82885   0.31218   0.00000  Uiso   1.00
O448   O     0.45181   0.83781   0.18783   0.00000  Uiso   1.00
Zn449  Zn    0.43565   0.83933   0.25521   0.00000  Uiso   1.00
Zn450  Zn    0.56435   0.82734   0.24479   0.00000  Uiso   1.00
C451   C     0.63864   0.92293   0.03864   0.00000  Uiso   1.00
C452   C     0.61836   0.97485   0.05772   0.00000  Uiso   1.00
H453   H     0.60112   0.99733   0.03090   0.00000  Uiso   1.00
H454   H     0.58415   0.96873   0.08539   0.00000  Uiso   1.00
H455   H     0.65531   0.99816   0.07107   0.00000  Uiso   1.00
H456   H     0.65753   0.90074   0.06482   0.00000  Uiso   1.00
H457   H     0.34131   0.93177   0.01271   0.00000  Uiso   1.00
C458   C     0.36618   0.73804   0.46128   0.00000  Uiso   1.00
C459   C     0.64755   0.76764   0.45103   0.00000  Uiso   1.00
H460   H     0.62696   0.78363   0.48271   0.00000  Uiso   1.00
H461   H     0.66068   0.80009   0.42768   0.00000  Uiso   1.00
H462   H     0.61541   0.74072   0.43524   0.00000  Uiso   1.00
H463   H     0.38399   0.71767   0.43068   0.00000  Uiso   1.00
H464   H     0.35117   0.70642   0.48505   0.00000  Uiso   1.00
C465   C     0.84862   0.93159   0.24881   0.00000  Uiso   1.00
C466   C     0.81804   0.73508   0.25116   0.00000  Uiso   1.00
C467   C     0.92254   0.88884   0.47167   0.00000  Uiso   1.00
C468   C     0.74473   0.77732   0.02824   0.00000  Uiso   1.00
C469   C     0.85667   0.98610   0.24810   0.00000  Uiso   1.00
C470   C     0.80999   0.68056   0.25184   0.00000  Uiso   1.00
C471   C     0.83388   0.83296   0.33648   0.00000  Uiso   1.00
C472   C     0.83280   0.83373   0.16351   0.00000  Uiso   1.00
C473   C     0.78699   0.80855   0.09530   0.00000  Uiso   1.00
C474   C     0.87941   0.85867   0.40465   0.00000  Uiso   1.00
C475   C     0.83196   0.83511   0.11583   0.00000  Uiso   1.00
C476   C     0.83478   0.83158   0.38413   0.00000  Uiso   1.00
C477   C     0.87730   0.86179   0.09111   0.00000  Uiso   1.00
C478   C     0.79004   0.80405   0.40882   0.00000  Uiso   1.00
C479   C     0.87837   0.86271   0.04445   0.00000  Uiso   1.00
C480   C     0.78917   0.80306   0.45547   0.00000  Uiso   1.00
C481   C     0.83332   0.83411   0.02330   0.00000  Uiso   1.00
C482   C     0.83367   0.83242   0.47664   0.00000  Uiso   1.00
C483   C     0.78791   0.80691   0.04896   0.00000  Uiso   1.00
C484   C     0.87874   0.86003   0.45099   0.00000  Uiso   1.00
C485   C     0.92322   0.89064   0.01837   0.00000  Uiso   1.00
C486   C     0.74526   0.77401   0.48153   0.00000  Uiso   1.00
H487   H     0.75253   0.78761   0.11546   0.00000  Uiso   1.00
H488   H     0.91364   0.87989   0.38448   0.00000  Uiso   1.00
H489   H     0.91108   0.88183   0.10900   0.00000  Uiso   1.00
H490   H     0.75632   0.78382   0.39097   0.00000  Uiso   1.00
H491   H     0.95644   0.91004   0.45121   0.00000  Uiso   1.00
H492   H     0.71079   0.75605   0.04862   0.00000  Uiso   1.00
H493   H     0.90074   0.66984   0.24451   0.00000  Uiso   1.00
H494   H     0.76593   0.99683   0.25541   0.00000  Uiso   1.00
H495   H     0.67132   0.79423   0.21599   0.00000  Uiso   1.00
H496   H     0.99534   0.87243   0.28402   0.00000  Uiso   1.00
N497   N     0.98344   0.81932   0.23783   0.00000  Uiso   1.00
N498   N     0.68322   0.84735   0.26217   0.00000  Uiso   1.00
O499   O     0.79642   0.91286   0.25299   0.00000  Uiso   1.00
O500   O     0.87025   0.75381   0.24702   0.00000  Uiso   1.00
O501   O     0.89280   0.90387   0.24519   0.00000  Uiso   1.00
O502   O     0.77387   0.76279   0.25482   0.00000  Uiso   1.00
O503   O     0.78514   0.83784   0.31998   0.00000  Uiso   1.00
O504   O     0.88153   0.82883   0.18003   0.00000  Uiso   1.00
O505   O     0.88152   0.82885   0.31218   0.00000  Uiso   1.00
O506   O     0.78515   0.83781   0.18783   0.00000  Uiso   1.00
Zn507  Zn    0.76898   0.83933   0.25521   0.00000  Uiso   1.00
Zn508  Zn    0.89769   0.82734   0.24479   0.00000  Uiso   1.00
C509   C     0.97197   0.92293   0.03864   0.00000  Uiso   1.00
C510   C     0.95169   0.97485   0.05772   0.00000  Uiso   1.00
H511   H     0.93446   0.99733   0.03090   0.00000  Uiso   1.00
H512   H     0.91748   0.96873   0.08539   0.00000  Uiso   1.00
H513   H     0.98864   0.99816   0.07107   0.00000  Uiso   1.00
H514   H     0.99086   0.90074   0.06482   0.00000  Uiso   1.00
H515   H     0.67464   0.93177   0.01271   0.00000  Uiso   1.00
C516   C     0.69952   0.73804   0.46128   0.00000  Uiso   1.00
C517   C     0.98088   0.76764   0.45103   0.00000  Uiso   1.00
H518   H     0.96029   0.78363   0.48271   0.00000  Uiso   1.00
H519   H     0.99401   0.80009   0.42768   0.00000  Uiso   1.00
H520   H     0.94875   0.74072   0.43524   0.00000  Uiso   1.00
H521   H     0.71732   0.71767   0.43068   0.00000  Uiso   1.00
H522   H     0.68450   0.70642   0.48505   0.00000  Uiso   1.00
C523   C     0.18195   0.26492   0.74881   0.00000  Uiso   1.00
C524   C     0.15138   0.06841   0.75116   0.00000  Uiso   1.00
C525   C     0.25588   0.22217   0.97167   0.00000  Uiso   1.00
C526   C     0.07806   0.11066   0.52824   0.00000  Uiso   1.00
C527   C     0.19001   0.31943   0.74810   0.00000  Uiso   1.00
C528   C     0.14333   0.01390   0.75184   0.00000  Uiso   1.00
C529   C     0.16721   0.16629   0.83648   0.00000  Uiso   1.00
C530   C     0.16613   0.16707   0.66351   0.00000  Uiso   1.00
C531   C     0.12032   0.14188   0.59530   0.00000  Uiso   1.00
C532   C     0.21275   0.19200   0.90465   0.00000  Uiso   1.00
C533   C     0.16529   0.16844   0.61583   0.00000  Uiso   1.00
C534   C     0.16811   0.16491   0.88413   0.00000  Uiso   1.00
C535   C     0.21064   0.19512   0.59111   0.00000  Uiso   1.00
C536   C     0.12338   0.13738   0.90882   0.00000  Uiso   1.00
C537   C     0.21170   0.19604   0.54445   0.00000  Uiso   1.00
C538   C     0.12250   0.13639   0.95547   0.00000  Uiso   1.00
C539   C     0.16666   0.16744   0.52330   0.00000  Uiso   1.00
C540   C     0.16700   0.16575   0.97664   0.00000  Uiso   1.00
C541   C     0.12124   0.14025   0.54896   0.00000  Uiso   1.00
C542   C     0.21208   0.19337   0.95099   0.00000  Uiso   1.00
C543   C     0.25655   0.22398   0.51837   0.00000  Uiso   1.00
C544   C     0.07860   0.10734   0.98153   0.00000  Uiso   1.00
H545   H     0.08587   0.12094   0.61546   0.00000  Uiso   1.00
H546   H     0.24697   0.21323   0.88448   0.00000  Uiso   1.00
H547   H     0.24442   0.21516   0.60900   0.00000  Uiso   1.00
H548   H     0.08966   0.11715   0.89097   0.00000  Uiso   1.00
H549   H     0.28977   0.24337   0.95121   0.00000  Uiso   1.00
H550   H     0.04412   0.08939   0.54862   0.00000  Uiso   1.00
H551   H     0.23407   0.00317   0.74451   0.00000  Uiso   1.00
H552   H     0.09926   0.33016   0.75541   0.00000  Uiso   1.00
H553   H     0.00466   0.12757   0.71599   0.00000  Uiso   1.00
H554   H     0.32868   0.20576   0.78402   0.00000  Uiso   1.00
N555   N     0.31678   0.15265   0.73783   0.00000  Uiso   1.00
N556   N     0.01656   0.18068   0.76217   0.00000  Uiso   1.00
O557   O     0.12975   0.24619   0.75299   0.00000  Uiso   1.00
O558   O     0.20358   0.08714   0.74702   0.00000  Uiso   1.00
O559   O     0.22613   0.23721   0.74519   0.00000  Uiso   1.00
O560   O     0.10720   0.09613   0.75482   0.00000  Uiso   1.00
O561   O     0.11847   0.17117   0.81998   0.00000  Uiso   1.00
O562   O     0.21486   0.16216   0.68003   0.00000  Uiso   1.00
O563   O     0.21485   0.16219   0.81218   0.00000  Uiso   1.00
O564   O     0.11848   0.17115   0.68783   0.00000  Uiso   1.00
Zn565  Zn    0.10231   0.17266   0.75521   0.00000  Uiso   1.00
Zn566  Zn    0.23102   0.16067   0.74479   0.00000  Uiso   1.00
C567   C     0.30531   0.25626   0.53864   0.00000  Uiso   1.00
C568   C     0.28502   0.30818   0.55772   0.00000  Uiso   1.00
H569   H     0.26779   0.33067   0.53090   0.00000  Uiso   1.00
H570   H     0.25082   0.30206   0.58539   0.00000  Uiso   1.00
H571   H     0.32198   0.33149   0.57107   0.00000  Uiso   1.00
H572   H     0.32420   0.23407   0.56482   0.00000  Uiso   1.00
H573   H     0.00797   0.26510   0.51271   0.00000  Uiso   1.00
C574   C     0.03285   0.07137   0.96128   0.00000  Uiso   1.00
C575   C     0.31422   0.10097   0.95103   0.00000  Uiso   1.00
H576   H     0.29363   0.11696   0.98271   0.00000  Uiso   1.00
H577   H     0.32734   0.13342   0.92768   0.00000  Uiso   1.00
H578   H     0.28208   0.07405   0.93524   0.00000  Uiso   1.00
H579   H     0.05066   0.05100   0.93068   0.00000  Uiso   1.00
H580   H     0.01783   0.03976   0.98505   0.00000  Uiso   1.00
C581   C     0.51529   0.26492   0.74881   0.00000  Uiso   1.00
C582   C     0.48471   0.06841   0.75116   0.00000  Uiso   1.00
C583   C     0.58921   0.22217   0.97167   0.00000  Uiso   1.00
C584   C     0.41139   0.11066   0.52824   0.00000  Uiso   1.00
C585   C     0.52334   0.31943   0.74810   0.00000  Uiso   1.00
C586   C     0.47666   0.01390   0.75184   0.00000  Uiso   1.00
C587   C     0.50054   0.16629   0.83648   0.00000  Uiso   1.00
C588   C     0.49947   0.16707   0.66351   0.00000  Uiso   1.00
C589   C     0.45365   0.14188   0.59530   0.00000  Uiso   1.00
C590   C     0.54608   0.19200   0.90465   0.00000  Uiso   1.00
C591   C     0.49862   0.16844   0.61583   0.00000  Uiso   1.00
C592   C     0.50145   0.16491   0.88413   0.00000  Uiso   1.00
C593   C     0.54397   0.19512   0.59111   0.00000  Uiso   1.00
C594   C     0.45671   0.13738   0.90882   0.00000  Uiso   1.00
C595   C     0.54504   0.19604   0.54445   0.00000  Uiso   1.00
C596   C     0.45584   0.13639   0.95547   0.00000  Uiso   1.00
C597   C     0.49999   0.16744   0.52330   0.00000  Uiso   1.00
C598   C     0.50033   0.16575   0.97664   0.00000  Uiso   1.00
C599   C     0.45458   0.14025   0.54896   0.00000  Uiso   1.00
C600   C     0.54541   0.19337   0.95099   0.00000  Uiso   1.00
C601   C     0.58988   0.22398   0.51837   0.00000  Uiso   1.00
C602   C     0.41193   0.10734   0.98153   0.00000  Uiso   1.00
H603   H     0.41920   0.12094   0.61546   0.00000  Uiso   1.00
H604   H     0.58030   0.21323   0.88448   0.00000  Uiso   1.00
H605   H     0.57775   0.21516   0.60900   0.00000  Uiso   1.00
H606   H     0.42299   0.11715   0.89097   0.00000  Uiso   1.00
H607   H     0.62311   0.24337   0.95121   0.00000  Uiso   1.00
H608   H     0.37745   0.08939   0.54862   0.00000  Uiso   1.00
H609   H     0.56740   0.00317   0.74451   0.00000  Uiso   1.00
H610   H     0.43260   0.33016   0.75541   0.00000  Uiso   1.00
H611   H     0.33799   0.12757   0.71599   0.00000  Uiso   1.00
H612   H     0.66201   0.20576   0.78402   0.00000  Uiso   1.00
N613   N     0.65011   0.15265   0.73783   0.00000  Uiso   1.00
N614   N     0.34989   0.18068   0.76217   0.00000  Uiso   1.00
O615   O     0.46308   0.24619   0.75299   0.00000  Uiso   1.00
O616   O     0.53692   0.08714   0.74702   0.00000  Uiso   1.00
O617   O     0.55946   0.23721   0.74519   0.00000  Uiso   1.00
O618   O     0.44054   0.09613   0.75482   0.00000  Uiso   1.00
O619   O     0.45181   0.17117   0.81998   0.00000  Uiso   1.00
O620   O     0.54819   0.16216   0.68003   0.00000  Uiso   1.00
O621   O     0.54819   0.16219   0.81218   0.00000  Uiso   1.00
O622   O     0.45181   0.17115   0.68783   0.00000  Uiso   1.00
Zn623  Zn    0.43565   0.17266   0.75521   0.00000  Uiso   1.00
Zn624  Zn    0.56435   0.16067   0.74479   0.00000  Uiso   1.00
C625   C     0.63864   0.25626   0.53864   0.00000  Uiso   1.00
C626   C     0.61836   0.30818   0.55772   0.00000  Uiso   1.00
H627   H     0.60112   0.33067   0.53090   0.00000  Uiso   1.00
H628   H     0.58415   0.30206   0.58539   0.00000  Uiso   1.00
H629   H     0.65531   0.33149   0.57107   0.00000  Uiso   1.00
H630   H     0.65753   0.23407   0.56482   0.00000  Uiso   1.00
H631   H     0.34131   0.26510   0.51271   0.00000  Uiso   1.00
C632   C     0.36618   0.07137   0.96128   0.00000  Uiso   1.00
C633   C     0.64755   0.10097   0.95103   0.00000  Uiso   1.00
H634   H     0.62696   0.11696   0.98271   0.00000  Uiso   1.00
H635   H     0.66068   0.13342   0.92768   0.00000  Uiso   1.00
H636   H     0.61541   0.07405   0.93524   0.00000  Uiso   1.00
H637   H     0.38399   0.05100   0.93068   0.00000  Uiso   1.00
H638   H     0.35117   0.03976   0.98505   0.00000  Uiso   1.00
C639   C     0.84862   0.26492   0.74881   0.00000  Uiso   1.00
C640   C     0.81804   0.06841   0.75116   0.00000  Uiso   1.00
C641   C     0.92254   0.22217   0.97167   0.00000  Uiso   1.00
C642   C     0.74473   0.11066   0.52824   0.00000  Uiso   1.00
C643   C     0.85667   0.31943   0.74810   0.00000  Uiso   1.00
C644   C     0.80999   0.01390   0.75184   0.00000  Uiso   1.00
C645   C     0.83388   0.16629   0.83648   0.00000  Uiso   1.00
C646   C     0.83280   0.16707   0.66351   0.00000  Uiso   1.00
C647   C     0.78699   0.14188   0.59530   0.00000  Uiso   1.00
C648   C     0.87941   0.19200   0.90465   0.00000  Uiso   1.00
C649   C     0.83196   0.16844   0.61583   0.00000  Uiso   1.00
C650   C     0.83478   0.16491   0.88413   0.00000  Uiso   1.00
C651   C     0.87730   0.19512   0.59111   0.00000  Uiso   1.00
C652   C     0.79004   0.13738   0.90882   0.00000  Uiso   1.00
C653   C     0.87837   0.19604   0.54445   0.00000  Uiso   1.00
C654   C     0.78917   0.13639   0.95547   0.00000  Uiso   1.00
C655   C     0.83332   0.16744   0.52330   0.00000  Uiso   1.00
C656   C     0.83367   0.16575   0.97664   0.00000  Uiso   1.00
C657   C     0.78791   0.14025   0.54896   0.00000  Uiso   1.00
C658   C     0.87874   0.19337   0.95099   0.00000  Uiso   1.00
C659   C     0.92322   0.22398   0.51837   0.00000  Uiso   1.00
C660   C     0.74526   0.10734   0.98153   0.00000  Uiso   1.00
H661   H     0.75253   0.12094   0.61546   0.00000  Uiso   1.00
H662   H     0.91364   0.21323   0.88448   0.00000  Uiso   1.00
H663   H     0.91108   0.21516   0.60900   0.00000  Uiso   1.00
H664   H     0.75632   0.11715   0.89097   0.00000  Uiso   1.00
H665   H     0.95644   0.24337   0.95121   0.00000  Uiso   1.00
H666   H     0.71079   0.08939   0.54862   0.00000  Uiso   1.00
H667   H     0.90074   0.00317   0.74451   0.00000  Uiso   1.00
H668   H     0.76593   0.33016   0.75541   0.00000  Uiso   1.00
H669   H     0.67132   0.12757   0.71599   0.00000  Uiso   1.00
H670   H     0.99534   0.20576   0.78402   0.00000  Uiso   1.00
N671   N     0.98344   0.15265   0.73783   0.00000  Uiso   1.00
N672   N     0.68322   0.18068   0.76217   0.00000  Uiso   1.00
O673   O     0.79642   0.24619   0.75299   0.00000  Uiso   1.00
O674   O     0.87025   0.08714   0.74702   0.00000  Uiso   1.00
O675   O     0.89280   0.23721   0.74519   0.00000  Uiso   1.00
O676   O     0.77387   0.09613   0.75482   0.00000  Uiso   1.00
O677   O     0.78514   0.17117   0.81998   0.00000  Uiso   1.00
O678   O     0.88153   0.16216   0.68003   0.00000  Uiso   1.00
O679   O     0.88152   0.16219   0.81218   0.00000  Uiso   1.00
O680   O     0.78515   0.17115   0.68783   0.00000  Uiso   1.00
Zn681  Zn    0.76898   0.17266   0.75521   0.00000  Uiso   1.00
Zn682  Zn    0.89769   0.16067   0.74479   0.00000  Uiso   1.00
C683   C     0.97197   0.25626   0.53864   0.00000  Uiso   1.00
C684   C     0.95169   0.30818   0.55772   0.00000  Uiso   1.00
H685   H     0.93446   0.33067   0.53090   0.00000  Uiso   1.00
H686   H     0.91748   0.30206   0.58539   0.00000  Uiso   1.00
H687   H     0.98864   0.33149   0.57107   0.00000  Uiso   1.00
H688   H     0.99086   0.23407   0.56482   0.00000  Uiso   1.00
H689   H     0.67464   0.26510   0.51271   0.00000  Uiso   1.00
C690   C     0.69952   0.07137   0.96128   0.00000  Uiso   1.00
C691   C     0.98088   0.10097   0.95103   0.00000  Uiso   1.00
H692   H     0.96029   0.11696   0.98271   0.00000  Uiso   1.00
H693   H     0.99401   0.13342   0.92768   0.00000  Uiso   1.00
H694   H     0.94875   0.07405   0.93524   0.00000  Uiso   1.00
H695   H     0.71732   0.05100   0.93068   0.00000  Uiso   1.00
H696   H     0.68450   0.03976   0.98505   0.00000  Uiso   1.00
C697   C     0.18195   0.59826   0.74881   0.00000  Uiso   1.00
C698   C     0.15138   0.40174   0.75116   0.00000  Uiso   1.00
C699   C     0.25588   0.55551   0.97167   0.00000  Uiso   1.00
C700   C     0.07806   0.44399   0.52824   0.00000  Uiso   1.00
C701   C     0.19001   0.65277   0.74810   0.00000  Uiso   1.00
C702   C     0.14333   0.34723   0.75184   0.00000  Uiso   1.00
C703   C     0.16721   0.49963   0.83648   0.00000  Uiso   1.00
C704   C     0.16613   0.50040   0.66351   0.00000  Uiso   1.00
C705   C     0.12032   0.47522   0.59530   0.00000  Uiso   1.00
C706   C     0.21275   0.52534   0.90465   0.00000  Uiso   1.00
C707   C     0.16529   0.50177   0.61583   0.00000  Uiso   1.00
C708   C     0.16811   0.49824   0.88413   0.00000  Uiso   1.00
C709   C     0.21064   0.52845   0.59111   0.00000  Uiso   1.00
C710   C     0.12338   0.47071   0.90882   0.00000  Uiso   1.00
C711   C     0.21170   0.52938   0.54445   0.00000  Uiso   1.00
C712   C     0.12250   0.46972   0.95547   0.00000  Uiso   1.00
C713   C     0.16666   0.50077   0.52330   0.00000  Uiso   1.00
C714   C     0.16700   0.49909   0.97664   0.00000  Uiso   1.00
C715   C     0.12124   0.47358   0.54896   0.00000  Uiso   1.00
C716   C     0.21208   0.52670   0.95099   0.00000  Uiso   1.00
C717   C     0.25655   0.55731   0.51837   0.00000  Uiso   1.00
C718   C     0.07860   0.44068   0.98153   0.00000  Uiso   1.00
H719   H     0.08587   0.45428   0.61546   0.00000  Uiso   1.00
H720   H     0.24697   0.54656   0.88448   0.00000  Uiso   1.00
H721   H     0.24442   0.54850   0.60900   0.00000  Uiso   1.00
H722   H     0.08966   0.45049   0.89097   0.00000  Uiso   1.00
H723   H     0.28977   0.57671   0.95121   0.00000  Uiso   1.00
H724   H     0.04412   0.42272   0.54862   0.00000  Uiso   1.00
H725   H     0.23407   0.33651   0.74451   0.00000  Uiso   1.00
H726   H     0.09926   0.66349   0.75541   0.00000  Uiso   1.00
H727   H     0.00466   0.46090   0.71599   0.00000  Uiso   1.00
H728   H     0.32868   0.53910   0.78402   0.00000  Uiso   1.00
N729   N     0.31678   0.48598   0.73783   0.00000  Uiso   1.00
N730   N     0.01656   0.51402   0.76217   0.00000  Uiso   1.00
O731   O     0.12975   0.57952   0.75299   0.00000  Uiso   1.00
O732   O     0.20358   0.42048   0.74702   0.00000  Uiso   1.00
O733   O     0.22613   0.57054   0.74519   0.00000  Uiso   1.00
O734   O     0.10720   0.42946   0.75482   0.00000  Uiso   1.00
O735   O     0.11847   0.50450   0.81998   0.00000  Uiso   1.00
O736   O     0.21486   0.49550   0.68003   0.00000  Uiso   1.00
O737   O     0.21485   0.49552   0.81218   0.00000  Uiso   1.00
O738   O     0.11848   0.50448   0.68783   0.00000  Uiso   1.00
Zn739  Zn    0.10231   0.50600   0.75521   0.00000  Uiso   1.00
Zn740  Zn    0.23102   0.49400   0.74479   0.00000  Uiso   1.00
C741   C     0.30531   0.58960   0.53864   0.00000  Uiso   1.00
C742   C     0.28502   0.64151   0.55772   0.00000  Uiso   1.00
H743   H     0.26779   0.66400   0.53090   0.00000  Uiso   1.00
H744   H     0.25082   0.63539   0.58539   0.00000  Uiso   1.00
H745   H     0.32198   0.66482   0.57107   0.00000  Uiso   1.00
H746   H     0.32420   0.56740   0.56482   0.00000  Uiso   1.00
H747   H     0.00797   0.59843   0.51271   0.00000  Uiso   1.00
C748   C     0.03285   0.40471   0.96128   0.00000  Uiso   1.00
C749   C     0.31422   0.43430   0.95103   0.00000  Uiso   1.00
H750   H     0.29363   0.45030   0.98271   0.00000  Uiso   1.00
H751   H     0.32734   0.46676   0.92768   0.00000  Uiso   1.00
H752   H     0.28208   0.40738   0.93524   0.00000  Uiso   1.00
H753   H     0.05066   0.38434   0.93068   0.00000  Uiso   1.00
H754   H     0.01783   0.37309   0.98505   0.00000  Uiso   1.00
C755   C     0.51529   0.59826   0.74881   0.00000  Uiso   1.00
C756   C     0.48471   0.40174   0.75116   0.00000  Uiso   1.00
C757   C     0.58921   0.55551   0.97167   0.00000  Uiso   1.00
C758   C     0.41139   0.44399   0.52824   0.00000  Uiso   1.00
C759   C     0.52334   0.65277   0.74810   0.00000  Uiso   1.00
C760   C     0.47666   0.34723   0.75184   0.00000  Uiso   1.00
C761   C     0.50054   0.49963   0.83648   0.00000  Uiso   1.00
C762   C     0.49947   0.50040   0.66351   0.00000  Uiso   1.00
C763   C     0.45365   0.47522   0.59530   0.00000  Uiso   1.00
C764   C     0.54608   0.52534   0.90465   0.00000  Uiso   1.00
C765   C     0.49862   0.50177   0.61583   0.00000  Uiso   1.00
C766   C     0.50145   0.49824   0.88413   0.00000  Uiso   1.00
C767   C     0.54397   0.52845   0.59111   0.00000  Uiso   1.00
C768   C     0.45671   0.47071   0.90882   0.00000  Uiso   1.00
C769   C     0.54504   0.52938   0.54445   0.00000  Uiso   1.00
C770   C     0.45584   0.46972   0.95547   0.00000  Uiso   1.00
C771   C     0.49999   0.50077   0.52330   0.00000  Uiso   1.00
C772   C     0.50033   0.49909   0.97664   0.00000  Uiso   1.00
C773   C     0.45458   0.47358   0.54896   0.00000  Uiso   1.00
C774   C     0.54541   0.52670   0.95099   0.00000  Uiso   1.00
C775   C     0.58988   0.55731   0.51837   0.00000  Uiso   1.00
C776   C     0.41193   0.44068   0.98153   0.00000  Uiso   1.00
H777   H     0.41920   0.45428   0.61546   0.00000  Uiso   1.00
H778   H     0.58030   0.54656   0.88448   0.00000  Uiso   1.00
H779   H     0.57775   0.54850   0.60900   0.00000  Uiso   1.00
H780   H     0.42299   0.45049   0.89097   0.00000  Uiso   1.00
H781   H     0.62311   0.57671   0.95121   0.00000  Uiso   1.00
H782   H     0.37745   0.42272   0.54862   0.00000  Uiso   1.00
H783   H     0.56740   0.33651   0.74451   0.00000  Uiso   1.00
H784   H     0.43260   0.66349   0.75541   0.00000  Uiso   1.00
H785   H     0.33799   0.46090   0.71599   0.00000  Uiso   1.00
H786   H     0.66201   0.53910   0.78402   0.00000  Uiso   1.00
N787   N     0.65011   0.48598   0.73783   0.00000  Uiso   1.00
N788   N     0.34989   0.51402   0.76217   0.00000  Uiso   1.00
O789   O     0.46308   0.57952   0.75299   0.00000  Uiso   1.00
O790   O     0.53692   0.42048   0.74702   0.00000  Uiso   1.00
O791   O     0.55946   0.57054   0.74519   0.00000  Uiso   1.00
O792   O     0.44054   0.42946   0.75482   0.00000  Uiso   1.00
O793   O     0.45181   0.50450   0.81998   0.00000  Uiso   1.00
O794   O     0.54819   0.49550   0.68003   0.00000  Uiso   1.00
O795   O     0.54819   0.49552   0.81218   0.00000  Uiso   1.00
O796   O     0.45181   0.50448   0.68783   0.00000  Uiso   1.00
Zn797  Zn    0.43565   0.50600   0.75521   0.00000  Uiso   1.00
Zn798  Zn    0.56435   0.49400   0.74479   0.00000  Uiso   1.00
C799   C     0.63864   0.58960   0.53864   0.00000  Uiso   1.00
C800   C     0.61836   0.64151   0.55772   0.00000  Uiso   1.00
H801   H     0.60112   0.66400   0.53090   0.00000  Uiso   1.00
H802   H     0.58415   0.63539   0.58539   0.00000  Uiso   1.00
H803   H     0.65531   0.66482   0.57107   0.00000  Uiso   1.00
H804   H     0.65753   0.56740   0.56482   0.00000  Uiso   1.00
H805   H     0.34131   0.59843   0.51271   0.00000  Uiso   1.00
C806   C     0.36618   0.40471   0.96128   0.00000  Uiso   1.00
C807   C     0.64755   0.43430   0.95103   0.00000  Uiso   1.00
H808   H     0.62696   0.45030   0.98271   0.00000  Uiso   1.00
H809   H     0.66068   0.46676   0.92768   0.00000  Uiso   1.00
H810   H     0.61541   0.40738   0.93524   0.00000  Uiso   1.00
H811   H     0.38399   0.38434   0.93068   0.00000  Uiso   1.00
H812   H     0.35117   0.37309   0.98505   0.00000  Uiso   1.00
C813   C     0.84862   0.59826   0.74881   0.00000  Uiso   1.00
C814   C     0.81804   0.40174   0.75116   0.00000  Uiso   1.00
C815   C     0.92254   0.55551   0.97167   0.00000  Uiso   1.00
C816   C     0.74473   0.44399   0.52824   0.00000  Uiso   1.00
C817   C     0.85667   0.65277   0.74810   0.00000  Uiso   1.00
C818   C     0.80999   0.34723   0.75184   0.00000  Uiso   1.00
C819   C     0.83388   0.49963   0.83648   0.00000  Uiso   1.00
C820   C     0.83280   0.50040   0.66351   0.00000  Uiso   1.00
C821   C     0.78699   0.47522   0.59530   0.00000  Uiso   1.00
C822   C     0.87941   0.52534   0.90465   0.00000  Uiso   1.00
C823   C     0.83196   0.50177   0.61583   0.00000  Uiso   1.00
C824   C     0.83478   0.49824   0.88413   0.00000  Uiso   1.00
C825   C     0.87730   0.52845   0.59111   0.00000  Uiso   1.00
C826   C     0.79004   0.47071   0.90882   0.00000  Uiso   1.00
C827   C     0.87837   0.52938   0.54445   0.00000  Uiso   1.00
C828   C     0.78917   0.46972   0.95547   0.00000  Uiso   1.00
C829   C     0.83332   0.50077   0.52330   0.00000  Uiso   1.00
C830   C     0.83367   0.49909   0.97664   0.00000  Uiso   1.00
C831   C     0.78791   0.47358   0.54896   0.00000  Uiso   1.00
C832   C     0.87874   0.52670   0.95099   0.00000  Uiso   1.00
C833   C     0.92322   0.55731   0.51837   0.00000  Uiso   1.00
C834   C     0.74526   0.44068   0.98153   0.00000  Uiso   1.00
H835   H     0.75253   0.45428   0.61546   0.00000  Uiso   1.00
H836   H     0.91364   0.54656   0.88448   0.00000  Uiso   1.00
H837   H     0.91108   0.54850   0.60900   0.00000  Uiso   1.00
H838   H     0.75632   0.45049   0.89097   0.00000  Uiso   1.00
H839   H     0.95644   0.57671   0.95121   0.00000  Uiso   1.00
H840   H     0.71079   0.42272   0.54862   0.00000  Uiso   1.00
H841   H     0.90074   0.33651   0.74451   0.00000  Uiso   1.00
H842   H     0.76593   0.66349   0.75541   0.00000  Uiso   1.00
H843   H     0.67132   0.46090   0.71599   0.00000  Uiso   1.00
H844   H     0.99534   0.53910   0.78402   0.00000  Uiso   1.00
N845   N     0.98344   0.48598   0.73783   0.00000  Uiso   1.00
N846   N     0.68322   0.51402   0.76217   0.00000  Uiso   1.00
O847   O     0.79642   0.57952   0.75299   0.00000  Uiso   1.00
O848   O     0.87025   0.42048   0.74702   0.00000  Uiso   1.00
O849   O     0.89280   0.57054   0.74519   0.00000  Uiso   1.00
O850   O     0.77387   0.42946   0.75482   0.00000  Uiso   1.00
O851   O     0.78514   0.50450   0.81998   0.00000  Uiso   1.00
O852   O     0.88153   0.49550   0.68003   0.00000  Uiso   1.00
O853   O     0.88152   0.49552   0.81218   0.00000  Uiso   1.00
O854   O     0.78515   0.50448   0.68783   0.00000  Uiso   1.00
Zn855  Zn    0.76898   0.50600   0.75521   0.00000  Uiso   1.00
Zn856  Zn    0.89769   0.49400   0.74479   0.00000  Uiso   1.00
C857   C     0.97197   0.58960   0.53864   0.00000  Uiso   1.00
C858   C     0.95169   0.64151   0.55772   0.00000  Uiso   1.00
H859   H     0.93446   0.66400   0.53090   0.00000  Uiso   1.00
H860   H     0.91748   0.63539   0.58539   0.00000  Uiso   1.00
H861   H     0.98864   0.66482   0.57107   0.00000  Uiso   1.00
H862   H     0.99086   0.56740   0.56482   0.00000  Uiso   1.00
H863   H     0.67464   0.59843   0.51271   0.00000  Uiso   1.00
C864   C     0.69952   0.40471   0.96128   0.00000  Uiso   1.00
C865   C     0.98088   0.43430   0.95103   0.00000  Uiso   1.00
H866   H     0.96029   0.45030   0.98271   0.00000  Uiso   1.00
H867   H     0.99401   0.46676   0.92768   0.00000  Uiso   1.00
H868   H     0.94875   0.40738   0.93524   0.00000  Uiso   1.00
H869   H     0.71732   0.38434   0.93068   0.00000  Uiso   1.00
H870   H     0.68450   0.37309   0.98505   0.00000  Uiso   1.00
C871   C     0.18195   0.93159   0.74881   0.00000  Uiso   1.00
C872   C     0.15138   0.73508   0.75116   0.00000  Uiso   1.00
C873   C     0.25588   0.88884   0.97167   0.00000  Uiso   1.00
C874   C     0.07806   0.77732   0.52824   0.00000  Uiso   1.00
C875   C     0.19001   0.98610   0.74810   0.00000  Uiso   1.00
C876   C     0.14333   0.68056   0.75184   0.00000  Uiso   1.00
C877   C     0.16721   0.83296   0.83648   0.00000  Uiso   1.00
C878   C     0.16613   0.83373   0.66351   0.00000  Uiso   1.00
C879   C     0.12032   0.80855   0.59530   0.00000  Uiso   1.00
C880   C     0.21275   0.85867   0.90465   0.00000  Uiso   1.00
C881   C     0.16529   0.83511   0.61583   0.00000  Uiso   1.00
C882   C     0.16811   0.83158   0.88413   0.00000  Uiso   1.00
C883   C     0.21064   0.86179   0.59111   0.00000  Uiso   1.00
C884   C     0.12338   0.80405   0.90882   0.00000  Uiso   1.00
C885   C     0.21170   0.86271   0.54445   0.00000  Uiso   1.00
C886   C     0.12250   0.80306   0.95547   0.00000  Uiso   1.00
C887   C     0.16666   0.83411   0.52330   0.00000  Uiso   1.00
C888   C     0.16700   0.83242   0.97664   0.00000  Uiso   1.00
C889   C     0.12124   0.80691   0.54896   0.00000  Uiso   1.00
C890   C     0.21208   0.86003   0.95099   0.00000  Uiso   1.00
C891   C     0.25655   0.89064   0.51837   0.00000  Uiso   1.00
C892   C     0.07860   0.77401   0.98153   0.00000  Uiso   1.00
H893   H     0.08587   0.78761   0.61546   0.00000  Uiso   1.00
H894   H     0.24697   0.87989   0.88448   0.00000  Uiso   1.00
H895   H     0.24442   0.88183   0.60900   0.00000  Uiso   1.00
H896   H     0.08966   0.78382   0.89097   0.00000  Uiso   1.00
H897   H     0.28977   0.91004   0.95121   0.00000  Uiso   1.00
H898   H     0.04412   0.75605   0.54862   0.00000  Uiso   1.00
H899   H     0.23407   0.66984   0.74451   0.00000  Uiso   1.00
H900   H     0.09926   0.99683   0.75541   0.00000  Uiso   1.00
H901   H     0.00466   0.79423   0.71599   0.00000  Uiso   1.00
H902   H     0.32868   0.87243   0.78402   0.00000  Uiso   1.00
N903   N     0.31678   0.81932   0.73783   0.00000  Uiso   1.00
N904   N     0.01656   0.84735   0.76217   0.00000  Uiso   1.00
O905   O     0.12975   0.91286   0.75299   0.00000  Uiso   1.00
O906   O     0.20358   0.75381   0.74702   0.00000  Uiso   1.00
O907   O     0.22613   0.90387   0.74519   0.00000  Uiso   1.00
O908   O     0.10720   0.76279   0.75482   0.00000  Uiso   1.00
O909   O     0.11847   0.83784   0.81998   0.00000  Uiso   1.00
O910   O     0.21486   0.82883   0.68003   0.00000  Uiso   1.00
O911   O     0.21485   0.82885   0.81218   0.00000  Uiso   1.00
O912   O     0.11848   0.83781   0.68783   0.00000  Uiso   1.00
Zn913  Zn    0.10231   0.83933   0.75521   0.00000  Uiso   1.00
Zn914  Zn    0.23102   0.82734   0.74479   0.00000  Uiso   1.00
C915   C     0.30531   0.92293   0.53864   0.00000  Uiso   1.00
C916   C     0.28502   0.97485   0.55772   0.00000  Uiso   1.00
H917   H     0.26779   0.99733   0.53090   0.00000  Uiso   1.00
H918   H     0.25082   0.96873   0.58539   0.00000  Uiso   1.00
H919   H     0.32198   0.99816   0.57107   0.00000  Uiso   1.00
H920   H     0.32420   0.90074   0.56482   0.00000  Uiso   1.00
H921   H     0.00797   0.93177   0.51271   0.00000  Uiso   1.00
C922   C     0.03285   0.73804   0.96128   0.00000  Uiso   1.00
C923   C     0.31422   0.76764   0.95103   0.00000  Uiso   1.00
H924   H     0.29363   0.78363   0.98271   0.00000  Uiso   1.00
H925   H     0.32734   0.80009   0.92768   0.00000  Uiso   1.00
H926   H     0.28208   0.74072   0.93524   0.00000  Uiso   1.00
H927   H     0.05066   0.71767   0.93068   0.00000  Uiso   1.00
H928   H     0.01783   0.70642   0.98505   0.00000  Uiso   1.00
C929   C     0.51529   0.93159   0.74881   0.00000  Uiso   1.00
C930   C     0.48471   0.73508   0.75116   0.00000  Uiso   1.00
C931   C     0.58921   0.88884   0.97167   0.00000  Uiso   1.00
C932   C     0.41139   0.77732   0.52824   0.00000  Uiso   1.00
C933   C     0.52334   0.98610   0.74810   0.00000  Uiso   1.00
C934   C     0.47666   0.68056   0.75184   0.00000  Uiso   1.00
C935   C     0.50054   0.83296   0.83648   0.00000  Uiso   1.00
C936   C     0.49947   0.83373   0.66351   0.00000  Uiso   1.00
C937   C     0.45365   0.80855   0.59530   0.00000  Uiso   1.00
C938   C     0.54608   0.85867   0.90465   0.00000  Uiso   1.00
C939   C     0.49862   0.83511   0.61583   0.00000  Uiso   1.00
C940   C     0.50145   0.83158   0.88413   0.00000  Uiso   1.00
C941   C     0.54397   0.86179   0.59111   0.00000  Uiso   1.00
C942   C     0.45671   0.80405   0.90882   0.00000  Uiso   1.00
C943   C     0.54504   0.86271   0.54445   0.00000  Uiso   1.00
C944   C     0.45584   0.80306   0.95547   0.00000  Uiso   1.00
C945   C     0.49999   0.83411   0.52330   0.00000  Uiso   1.00
C946   C     0.50033   0.83242   0.97664   0.00000  Uiso   1.00
C947   C     0.45458   0.80691   0.54896   0.00000  Uiso   1.00
C948   C     0.54541   0.86003   0.95099   0.00000  Uiso   1.00
C949   C     0.58988   0.89064   0.51837   0.00000  Uiso   1.00
C950   C     0.41193   0.77401   0.98153   0.00000  Uiso   1.00
H951   H     0.41920   0.78761   0.61546   0.00000  Uiso   1.00
H952   H     0.58030   0.87989   0.88448   0.00000  Uiso   1.00
H953   H     0.57775   0.88183   0.60900   0.00000  Uiso   1.00
H954   H     0.42299   0.78382   0.89097   0.00000  Uiso   1.00
H955   H     0.62311   0.91004   0.95121   0.00000  Uiso   1.00
H956   H     0.37745   0.75605   0.54862   0.00000  Uiso   1.00
H957   H     0.56740   0.66984   0.74451   0.00000  Uiso   1.00
H958   H     0.43260   0.99683   0.75541   0.00000  Uiso   1.00
H959   H     0.33799   0.79423   0.71599   0.00000  Uiso   1.00
H960   H     0.66201   0.87243   0.78402   0.00000  Uiso   1.00
N961   N     0.65011   0.81932   0.73783   0.00000  Uiso   1.00
N962   N     0.34989   0.84735   0.76217   0.00000  Uiso   1.00
O963   O     0.46308   0.91286   0.75299   0.00000  Uiso   1.00
O964   O     0.53692   0.75381   0.74702   0.00000  Uiso   1.00
O965   O     0.55946   0.90387   0.74519   0.00000  Uiso   1.00
O966   O     0.44054   0.76279   0.75482   0.00000  Uiso   1.00
O967   O     0.45181   0.83784   0.81998   0.00000  Uiso   1.00
O968   O     0.54819   0.82883   0.68003   0.00000  Uiso   1.00
O969   O     0.54819   0.82885   0.81218   0.00000  Uiso   1.00
O970   O     0.45181   0.83781   0.68783   0.00000  Uiso   1.00
Zn971  Zn    0.43565   0.83933   0.75521   0.00000  Uiso   1.00
Zn972  Zn    0.56435   0.82734   0.74479   0.00000  Uiso   1.00
C973   C     0.63864   0.92293   0.53864   0.00000  Uiso   1.00
C974   C     0.61836   0.97485   0.55772   0.00000  Uiso   1.00
H975   H     0.60112   0.99733   0.53090   0.00000  Uiso   1.00
H976   H     0.58415   0.96873   0.58539   0.00000  Uiso   1.00
H977   H     0.65531   0.99816   0.57107   0.00000  Uiso   1.00
H978   H     0.65753   0.90074   0.56482   0.00000  Uiso   1.00
H979   H     0.34131   0.93177   0.51271   0.00000  Uiso   1.00
C980   C     0.36618   0.73804   0.96128   0.00000  Uiso   1.00
C981   C     0.64755   0.76764   0.95103   0.00000  Uiso   1.00
H982   H     0.62696   0.78363   0.98271   0.00000  Uiso   1.00
H983   H     0.66068   0.80009   0.92768   0.00000  Uiso   1.00
H984   H     0.61541   0.74072   0.93524   0.00000  Uiso   1.00
H985   H     0.38399   0.71767   0.93068   0.00000  Uiso   1.00
H986   H     0.35117   0.70642   0.98505   0.00000  Uiso   1.00
C987   C     0.84862   0.93159   0.74881   0.00000  Uiso   1.00
C988   C     0.81804   0.73508   0.75116   0.00000  Uiso   1.00
C989   C     0.92254   0.88884   0.97167   0.00000  Uiso   1.00
C990   C     0.74473   0.77732   0.52824   0.00000  Uiso   1.00
C991   C     0.85667   0.98610   0.74810   0.00000  Uiso   1.00
C992   C     0.80999   0.68056   0.75184   0.00000  Uiso   1.00
C993   C     0.83388   0.83296   0.83648   0.00000  Uiso   1.00
C994   C     0.83280   0.83373   0.66351   0.00000  Uiso   1.00
C995   C     0.78699   0.80855   0.59530   0.00000  Uiso   1.00
C996   C     0.87941   0.85867   0.90465   0.00000  Uiso   1.00
C997   C     0.83196   0.83511   0.61583   0.00000  Uiso   1.00
C998   C     0.83478   0.83158   0.88413   0.00000  Uiso   1.00
C999   C     0.87730   0.86179   0.59111   0.00000  Uiso   1.00
C1000  C     0.79004   0.80405   0.90882   0.00000  Uiso   1.00
C1001  C     0.87837   0.86271   0.54445   0.00000  Uiso   1.00
C1002  C     0.78917   0.80306   0.95547   0.00000  Uiso   1.00
C1003  C     0.83332   0.83411   0.52330   0.00000  Uiso   1.00
C1004  C     0.83367   0.83242   0.97664   0.00000  Uiso   1.00
C1005  C     0.78791   0.80691   0.54896   0.00000  Uiso   1.00
C1006  C     0.87874   0.86003   0.95099   0.00000  Uiso   1.00
C1007  C     0.92322   0.89064   0.51837   0.00000  Uiso   1.00
C1008  C     0.74526   0.77401   0.98153   0.00000  Uiso   1.00
H1009  H     0.75253   0.78761   0.61546   0.00000  Uiso   1.00
H1010  H     0.91364   0.87989   0.88448   0.00000  Uiso   1.00
H1011  H     0.91108   0.88183   0.60900   0.00000  Uiso   1.00
H1012  H     0.75632   0.78382   0.89097   0.00000  Uiso   1.00
H1013  H     0.95644   0.91004   0.95121   0.00000  Uiso   1.00
H1014  H     0.71079   0.75605   0.54862   0.00000  Uiso   1.00
H1015  H     0.90074   0.66984   0.74451   0.00000  Uiso   1.00
H1016  H     0.76593   0.99683   0.75541   0.00000  Uiso   1.00
H1017  H     0.67132   0.79423   0.71599   0.00000  Uiso   1.00
H1018  H     0.99534   0.87243   0.78402   0.00000  Uiso   1.00
N1019  N     0.98344   0.81932   0.73783   0.00000  Uiso   1.00
N1020  N     0.68322   0.84735   0.76217   0.00000  Uiso   1.00
O1021  O     0.79642   0.91286   0.75299   0.00000  Uiso   1.00
O1022  O     0.87025   0.75381   0.74702   0.00000  Uiso   1.00
O1023  O     0.89280   0.90387   0.74519   0.00000  Uiso   1.00
O1024  O     0.77387   0.76279   0.75482   0.00000  Uiso   1.00
O1025  O     0.78514   0.83784   0.81998   0.00000  Uiso   1.00
O1026  O     0.88153   0.82883   0.68003   0.00000  Uiso   1.00
O1027  O     0.88152   0.82885   0.81218   0.00000  Uiso   1.00
O1028  O     0.78515   0.83781   0.68783   0.00000  Uiso   1.00
Zn1029 Zn    0.76898   0.83933   0.75521   0.00000  Uiso   1.00
Zn1030 Zn    0.89769   0.82734   0.74479   0.00000  Uiso   1.00
C1031  C     0.97197   0.92293   0.53864   0.00000  Uiso   1.00
C1032  C     0.95169   0.97485   0.55772   0.00000  Uiso   1.00
H1033  H     0.93446   0.99733   0.53090   0.00000  Uiso   1.00
H1034  H     0.91748   0.96873   0.58539   0.00000  Uiso   1.00
H1035  H     0.98864   0.99816   0.57107   0.00000  Uiso   1.00
H1036  H     0.99086   0.90074   0.56482   0.00000  Uiso   1.00
H1037  H     0.67464   0.93177   0.51271   0.00000  Uiso   1.00
C1038  C     0.69952   0.73804   0.96128   0.00000  Uiso   1.00
C1039  C     0.98088   0.76764   0.95103   0.00000  Uiso   1.00
H1040  H     0.96029   0.78363   0.98271   0.00000  Uiso   1.00
H1041  H     0.99401   0.80009   0.92768   0.00000  Uiso   1.00
H1042  H     0.94875   0.74072   0.93524   0.00000  Uiso   1.00
H1043  H     0.71732   0.71767   0.93068   0.00000  Uiso   1.00
H1044  H     0.68450   0.70642   0.98505   0.00000  Uiso   1.00
loop_
_geom_bond_atom_site_label_1
_geom_bond_atom_site_label_2
_geom_bond_distance
_geom_bond_site_symmetry_2
_ccdc_geom_bond_type
C1     O37     1.286   .     A
C1     C5      1.401   .     S
C1     O35     1.276   .     A
C2     O38     1.286   .     A
C2     C6      1.401   .     S
C2     O36     1.276   .     A
C3     H27     1.085   .     S
C3     C20     1.395   .     A
C3     C543    1.395   .     S
C4     H28     1.085   .     S
C4     C19     1.395   .     A
C4     C544    1.394   1_554 S
C5     C180    1.336   .     S
C5     H203    1.088   .     S
C6     C353    1.336   1_545 S
C6     H378    1.088   1_545 S
C7     C12     1.425   .     S
C7     O39     1.286   .     A
C7     O41     1.288   .     A
C8     O42     1.288   .     A
C8     C11     1.426   .     S
C8     O40     1.286   .     A
C9     C11     1.387   .     A
C9     H23     1.086   .     S
C9     C19     1.381   .     A
C10    H24     1.086   .     S
C10    C12     1.387   .     A
C10    C20     1.381   .     A
C11    C13     1.392   .     A
C12    C14     1.392   .     A
C13    H25     1.081   .     S
C13    C15     1.392   .     A
C14    H26     1.081   .     S
C14    C16     1.392   .     A
C15    C21     1.419   .     A
C15    C17     1.421   .     A
C16    C22     1.418   .     A
C16    C18     1.421   .     A
C17    C19     1.413   .     A
C17    C540    1.392   1_554 S
C18    C20     1.412   .     A
C18    C539    1.392   .     S
C21    C45     1.518   .     S
C21    C525    1.395   1_554 S
C22    C52     1.517   .     S
C22    C526    1.394   .     S
H29    C353    1.088   1_545 S
H30    C180    1.088   .     S
H31    N149    1.029   1_455 S
H32    N92     1.029   .     S
N33    Zn44    2.016   .     S
N33    H89     1.029   .     S
N33    N92     1.277   .     S
N34    Zn43    2.016   .     S
N34    N149    1.277   1_455 S
N34    H148    1.029   1_455 S
O35    Zn43    1.955   .     S
O36    Zn44    1.955   .     S
O37    Zn44    1.977   .     S
O38    Zn43    1.977   .     S
O39    Zn43    1.999   .     S
O40    Zn44    1.999   .     S
O41    Zn44    2.018   .     S
O42    Zn43    2.018   .     S
C45    C46     1.528   .     S
C45    H50     1.110   .     S
C45    H109    1.112   .     S
C46    H49     1.110   .     S
C46    H48     1.109   .     S
C46    H47     1.111   .     S
H51    C161    1.112   1_455 S
C52    H58     1.111   .     S
C52    H57     1.110   .     S
C52    C169    1.524   1_455 S
C53    H55     1.110   .     S
C53    H56     1.110   .     S
C53    H54     1.110   .     S
C53    C110    1.524   .     S
C59    O95     1.286   .     A
C59    C63     1.401   .     S
C59    O93     1.276   .     A
C60    O96     1.286   .     A
C60    C64     1.401   .     S
C60    O94     1.276   .     A
C61    H85     1.085   .     S
C61    C78     1.395   .     A
C61    C601    1.395   .     S
C62    H86     1.085   .     S
C62    C77     1.395   .     A
C62    C602    1.394   1_554 S
C63    C238    1.336   .     S
C63    H261    1.088   .     S
C64    C411    1.336   1_545 S
C64    H436    1.088   1_545 S
C65    C70     1.425   .     S
C65    O97     1.286   .     A
C65    O99     1.288   .     A
C66    O100    1.288   .     A
C66    C69     1.426   .     S
C66    O98     1.286   .     A
C67    C69     1.387   .     A
C67    H81     1.086   .     S
C67    C77     1.381   .     A
C68    H82     1.086   .     S
C68    C70     1.387   .     A
C68    C78     1.381   .     A
C69    C71     1.392   .     A
C70    C72     1.392   .     A
C71    H83     1.081   .     S
C71    C73     1.392   .     A
C72    H84     1.081   .     S
C72    C74     1.392   .     A
C73    C79     1.419   .     A
C73    C75     1.421   .     A
C74    C80     1.418   .     A
C74    C76     1.421   .     A
C75    C77     1.413   .     A
C75    C598    1.392   1_554 S
C76    C78     1.412   .     A
C76    C597    1.392   .     S
C79    C103    1.518   .     S
C79    C583    1.395   1_554 S
C80    C110    1.517   .     S
C80    C584    1.394   .     S
H87    C411    1.088   1_545 S
H88    C238    1.088   .     S
H90    N150    1.029   .     S
N91    Zn102   2.016   .     S
N91    H147    1.029   .     S
N91    N150    1.277   .     S
N92    Zn101   2.016   .     S
O93    Zn101   1.955   .     S
O94    Zn102   1.955   .     S
O95    Zn102   1.977   .     S
O96    Zn101   1.977   .     S
O97    Zn101   1.999   .     S
O98    Zn102   1.999   .     S
O99    Zn102   2.018   .     S
O100   Zn101   2.018   .     S
C103   C104    1.528   .     S
C103   H108    1.110   .     S
C103   H167    1.112   .     S
C104   H107    1.110   .     S
C104   H106    1.109   .     S
C104   H105    1.111   .     S
C110   H116    1.111   .     S
C110   H115    1.110   .     S
C111   H113    1.110   .     S
C111   H114    1.110   .     S
C111   H112    1.110   .     S
C111   C168    1.524   .     S
C117   O153    1.286   .     A
C117   C121    1.401   .     S
C117   O151    1.276   .     A
C118   O154    1.286   .     A
C118   C122    1.401   .     S
C118   O152    1.276   .     A
C119   H143    1.085   .     S
C119   C136    1.395   .     A
C119   C659    1.395   .     S
C120   H144    1.085   .     S
C120   C135    1.395   .     A
C120   C660    1.394   1_554 S
C121   C296    1.336   .     S
C121   H319    1.088   .     S
C122   C469    1.336   1_545 S
C122   H494    1.088   1_545 S
C123   C128    1.425   .     S
C123   O155    1.286   .     A
C123   O157    1.288   .     A
C124   O158    1.288   .     A
C124   C127    1.426   .     S
C124   O156    1.286   .     A
C125   C127    1.387   .     A
C125   H139    1.086   .     S
C125   C135    1.381   .     A
C126   H140    1.086   .     S
C126   C128    1.387   .     A
C126   C136    1.381   .     A
C127   C129    1.392   .     A
C128   C130    1.392   .     A
C129   H141    1.081   .     S
C129   C131    1.392   .     A
C130   H142    1.081   .     S
C130   C132    1.392   .     A
C131   C137    1.419   .     A
C131   C133    1.421   .     A
C132   C138    1.418   .     A
C132   C134    1.421   .     A
C133   C135    1.413   .     A
C133   C656    1.392   1_554 S
C134   C136    1.412   .     A
C134   C655    1.392   .     S
C137   C161    1.518   .     S
C137   C641    1.395   1_554 S
C138   C168    1.517   .     S
C138   C642    1.394   .     S
H145   C469    1.088   1_545 S
H146   C296    1.088   .     S
H148   N34     1.029   1_655 S
N149   Zn160   2.016   .     S
N149   H31     1.029   1_655 S
N149   N34     1.277   1_655 S
N150   Zn159   2.016   .     S
O151   Zn159   1.955   .     S
O152   Zn160   1.955   .     S
O153   Zn160   1.977   .     S
O154   Zn159   1.977   .     S
O155   Zn159   1.999   .     S
O156   Zn160   1.999   .     S
O157   Zn160   2.018   .     S
O158   Zn159   2.018   .     S
C161   C162    1.528   .     S
C161   H166    1.110   .     S
C161   H51     1.112   1_655 S
C162   H165    1.110   .     S
C162   H164    1.109   .     S
C162   H163    1.111   .     S
C168   H174    1.111   .     S
C168   H173    1.110   .     S
C169   H171    1.110   .     S
C169   H172    1.110   .     S
C169   H170    1.110   .     S
C169   C52     1.524   1_655 S
C175   O211    1.286   .     A
C175   C179    1.401   .     S
C175   O209    1.276   .     A
C176   O212    1.286   .     A
C176   C180    1.401   .     S
C176   O210    1.276   .     A
C177   H201    1.085   .     S
C177   C194    1.395   .     A
C177   C717    1.395   .     S
C178   H202    1.085   .     S
C178   C193    1.395   .     A
C178   C718    1.394   1_554 S
C179   C354    1.336   .     S
C179   H377    1.088   .     S
C181   C186    1.425   .     S
C181   O213    1.286   .     A
C181   O215    1.288   .     A
C182   O216    1.288   .     A
C182   C185    1.426   .     S
C182   O214    1.286   .     A
C183   C185    1.387   .     A
C183   H197    1.086   .     S
C183   C193    1.381   .     A
C184   H198    1.086   .     S
C184   C186    1.387   .     A
C184   C194    1.381   .     A
C185   C187    1.392   .     A
C186   C188    1.392   .     A
C187   H199    1.081   .     S
C187   C189    1.392   .     A
C188   H200    1.081   .     S
C188   C190    1.392   .     A
C189   C195    1.419   .     A
C189   C191    1.421   .     A
C190   C196    1.418   .     A
C190   C192    1.421   .     A
C191   C193    1.413   .     A
C191   C714    1.392   1_554 S
C192   C194    1.412   .     A
C192   C713    1.392   .     S
C195   C219    1.518   .     S
C195   C699    1.395   1_554 S
C196   C226    1.517   .     S
C196   C700    1.394   .     S
H204   C354    1.088   .     S
H205   N323    1.029   1_455 S
H206   N266    1.029   .     S
N207   Zn218   2.016   .     S
N207   H263    1.029   .     S
N207   N266    1.277   .     S
N208   Zn217   2.016   .     S
N208   N323    1.277   1_455 S
N208   H322    1.029   1_455 S
O209   Zn217   1.955   .     S
O210   Zn218   1.955   .     S
O211   Zn218   1.977   .     S
O212   Zn217   1.977   .     S
O213   Zn217   1.999   .     S
O214   Zn218   1.999   .     S
O215   Zn218   2.018   .     S
O216   Zn217   2.018   .     S
C219   C220    1.528   .     S
C219   H224    1.110   .     S
C219   H283    1.112   .     S
C220   H223    1.110   .     S
C220   H222    1.109   .     S
C220   H221    1.111   .     S
H225   C335    1.112   1_455 S
C226   H232    1.111   .     S
C226   H231    1.110   .     S
C226   C343    1.524   1_455 S
C227   H229    1.110   .     S
C227   H230    1.110   .     S
C227   H228    1.110   .     S
C227   C284    1.524   .     S
C233   O269    1.286   .     A
C233   C237    1.401   .     S
C233   O267    1.276   .     A
C234   O270    1.286   .     A
C234   C238    1.401   .     S
C234   O268    1.276   .     A
C235   H259    1.085   .     S
C235   C252    1.395   .     A
C235   C775    1.395   .     S
C236   H260    1.085   .     S
C236   C251    1.395   .     A
C236   C776    1.394   1_554 S
C237   C412    1.336   .     S
C237   H435    1.088   .     S
C239   C244    1.425   .     S
C239   O271    1.286   .     A
C239   O273    1.288   .     A
C240   O274    1.288   .     A
C240   C243    1.426   .     S
C240   O272    1.286   .     A
C241   C243    1.387   .     A
C241   H255    1.086   .     S
C241   C251    1.381   .     A
C242   H256    1.086   .     S
C242   C244    1.387   .     A
C242   C252    1.381   .     A
C243   C245    1.392   .     A
C244   C246    1.392   .     A
C245   H257    1.081   .     S
C245   C247    1.392   .     A
C246   H258    1.081   .     S
C246   C248    1.392   .     A
C247   C253    1.419   .     A
C247   C249    1.421   .     A
C248   C254    1.418   .     A
C248   C250    1.421   .     A
C249   C251    1.413   .     A
C249   C772    1.392   1_554 S
C250   C252    1.412   .     A
C250   C771    1.392   .     S
C253   C277    1.518   .     S
C253   C757    1.395   1_554 S
C254   C284    1.517   .     S
C254   C758    1.394   .     S
H262   C412    1.088   .     S
H264   N324    1.029   .     S
N265   Zn276   2.016   .     S
N265   H321    1.029   .     S
N265   N324    1.277   .     S
N266   Zn275   2.016   .     S
O267   Zn275   1.955   .     S
O268   Zn276   1.955   .     S
O269   Zn276   1.977   .     S
O270   Zn275   1.977   .     S
O271   Zn275   1.999   .     S
O272   Zn276   1.999   .     S
O273   Zn276   2.018   .     S
O274   Zn275   2.018   .     S
C277   C278    1.528   .     S
C277   H282    1.110   .     S
C277   H341    1.112   .     S
C278   H281    1.110   .     S
C278   H280    1.109   .     S
C278   H279    1.111   .     S
C284   H290    1.111   .     S
C284   H289    1.110   .     S
C285   H287    1.110   .     S
C285   H288    1.110   .     S
C285   H286    1.110   .     S
C285   C342    1.524   .     S
C291   O327    1.286   .     A
C291   C295    1.401   .     S
C291   O325    1.276   .     A
C292   O328    1.286   .     A
C292   C296    1.401   .     S
C292   O326    1.276   .     A
C293   H317    1.085   .     S
C293   C310    1.395   .     A
C293   C833    1.395   .     S
C294   H318    1.085   .     S
C294   C309    1.395   .     A
C294   C834    1.394   1_554 S
C295   C470    1.336   .     S
C295   H493    1.088   .     S
C297   C302    1.425   .     S
C297   O329    1.286   .     A
C297   O331    1.288   .     A
C298   O332    1.288   .     A
C298   C301    1.426   .     S
C298   O330    1.286   .     A
C299   C301    1.387   .     A
C299   H313    1.086   .     S
C299   C309    1.381   .     A
C300   H314    1.086   .     S
C300   C302    1.387   .     A
C300   C310    1.381   .     A
C301   C303    1.392   .     A
C302   C304    1.392   .     A
C303   H315    1.081   .     S
C303   C305    1.392   .     A
C304   H316    1.081   .     S
C304   C306    1.392   .     A
C305   C311    1.419   .     A
C305   C307    1.421   .     A
C306   C312    1.418   .     A
C306   C308    1.421   .     A
C307   C309    1.413   .     A
C307   C830    1.392   1_554 S
C308   C310    1.412   .     A
C308   C829    1.392   .     S
C311   C335    1.518   .     S
C311   C815    1.395   1_554 S
C312   C342    1.517   .     S
C312   C816    1.394   .     S
H320   C470    1.088   .     S
H322   N208    1.029   1_655 S
N323   Zn334   2.016   .     S
N323   H205    1.029   1_655 S
N323   N208    1.277   1_655 S
N324   Zn333   2.016   .     S
O325   Zn333   1.955   .     S
O326   Zn334   1.955   .     S
O327   Zn334   1.977   .     S
O328   Zn333   1.977   .     S
O329   Zn333   1.999   .     S
O330   Zn334   1.999   .     S
O331   Zn334   2.018   .     S
O332   Zn333   2.018   .     S
C335   C336    1.528   .     S
C335   H340    1.110   .     S
C335   H225    1.112   1_655 S
C336   H339    1.110   .     S
C336   H338    1.109   .     S
C336   H337    1.111   .     S
C342   H348    1.111   .     S
C342   H347    1.110   .     S
C343   H345    1.110   .     S
C343   H346    1.110   .     S
C343   H344    1.110   .     S
C343   C226    1.524   1_655 S
C349   O385    1.286   .     A
C349   C353    1.401   .     S
C349   O383    1.276   .     A
C350   O386    1.286   .     A
C350   C354    1.401   .     S
C350   O384    1.276   .     A
C351   H375    1.085   .     S
C351   C368    1.395   .     A
C351   C891    1.395   .     S
C352   H376    1.085   .     S
C352   C367    1.395   .     A
C352   C892    1.394   1_554 S
C353   C6      1.336   1_565 S
C353   H29     1.088   1_565 S
C355   C360    1.425   .     S
C355   O387    1.286   .     A
C355   O389    1.288   .     A
C356   O390    1.288   .     A
C356   C359    1.426   .     S
C356   O388    1.286   .     A
C357   C359    1.387   .     A
C357   H371    1.086   .     S
C357   C367    1.381   .     A
C358   H372    1.086   .     S
C358   C360    1.387   .     A
C358   C368    1.381   .     A
C359   C361    1.392   .     A
C360   C362    1.392   .     A
C361   H373    1.081   .     S
C361   C363    1.392   .     A
C362   H374    1.081   .     S
C362   C364    1.392   .     A
C363   C369    1.419   .     A
C363   C365    1.421   .     A
C364   C370    1.418   .     A
C364   C366    1.421   .     A
C365   C367    1.413   .     A
C365   C888    1.392   1_554 S
C366   C368    1.412   .     A
C366   C887    1.392   .     S
C369   C393    1.518   .     S
C369   C873    1.395   1_554 S
C370   C400    1.517   .     S
C370   C874    1.394   .     S
H378   C6      1.088   1_565 S
H379   N497    1.029   1_455 S
H380   N440    1.029   .     S
N381   Zn392   2.016   .     S
N381   H437    1.029   .     S
N381   N440    1.277   .     S
N382   Zn391   2.016   .     S
N382   N497    1.277   1_455 S
N382   H496    1.029   1_455 S
O383   Zn391   1.955   .     S
O384   Zn392   1.955   .     S
O385   Zn392   1.977   .     S
O386   Zn391   1.977   .     S
O387   Zn391   1.999   .     S
O388   Zn392   1.999   .     S
O389   Zn392   2.018   .     S
O390   Zn391   2.018   .     S
C393   C394    1.528   .     S
C393   H398    1.110   .     S
C393   H457    1.112   .     S
C394   H397    1.110   .     S
C394   H396    1.109   .     S
C394   H395    1.111   .     S
H399   C509    1.112   1_455 S
C400   H406    1.111   .     S
C400   H405    1.110   .     S
C400   C517    1.524   1_455 S
C401   H403    1.110   .     S
C401   H404    1.110   .     S
C401   H402    1.110   .     S
C401   C458    1.524   .     S
C407   O443    1.286   .     A
C407   C411    1.401   .     S
C407   O441    1.276   .     A
C408   O444    1.286   .     A
C408   C412    1.401   .     S
C408   O442    1.276   .     A
C409   H433    1.085   .     S
C409   C426    1.395   .     A
C409   C949    1.395   .     S
C410   H434    1.085   .     S
C410   C425    1.395   .     A
C410   C950    1.394   1_554 S
C411   C64     1.336   1_565 S
C411   H87     1.088   1_565 S
C413   C418    1.425   .     S
C413   O445    1.286   .     A
C413   O447    1.288   .     A
C414   O448    1.288   .     A
C414   C417    1.426   .     S
C414   O446    1.286   .     A
C415   C417    1.387   .     A
C415   H429    1.086   .     S
C415   C425    1.381   .     A
C416   H430    1.086   .     S
C416   C418    1.387   .     A
C416   C426    1.381   .     A
C417   C419    1.392   .     A
C418   C420    1.392   .     A
C419   H431    1.081   .     S
C419   C421    1.392   .     A
C420   H432    1.081   .     S
C420   C422    1.392   .     A
C421   C427    1.419   .     A
C421   C423    1.421   .     A
C422   C428    1.418   .     A
C422   C424    1.421   .     A
C423   C425    1.413   .     A
C423   C946    1.392   1_554 S
C424   C426    1.412   .     A
C424   C945    1.392   .     S
C427   C451    1.518   .     S
C427   C931    1.395   1_554 S
C428   C458    1.517   .     S
C428   C932    1.394   .     S
H436   C64     1.088   1_565 S
H438   N498    1.029   .     S
N439   Zn450   2.016   .     S
N439   H495    1.029   .     S
N439   N498    1.277   .     S
N440   Zn449   2.016   .     S
O441   Zn449   1.955   .     S
O442   Zn450   1.955   .     S
O443   Zn450   1.977   .     S
O444   Zn449   1.977   .     S
O445   Zn449   1.999   .     S
O446   Zn450   1.999   .     S
O447   Zn450   2.018   .     S
O448   Zn449   2.018   .     S
C451   C452    1.528   .     S
C451   H456    1.110   .     S
C451   H515    1.112   .     S
C452   H455    1.110   .     S
C452   H454    1.109   .     S
C452   H453    1.111   .     S
C458   H464    1.111   .     S
C458   H463    1.110   .     S
C459   H461    1.110   .     S
C459   H462    1.110   .     S
C459   H460    1.110   .     S
C459   C516    1.524   .     S
C465   O501    1.286   .     A
C465   C469    1.401   .     S
C465   O499    1.276   .     A
C466   O502    1.286   .     A
C466   C470    1.401   .     S
C466   O500    1.276   .     A
C467   H491    1.085   .     S
C467   C484    1.395   .     A
C467   C1007   1.395   .     S
C468   H492    1.085   .     S
C468   C483    1.395   .     A
C468   C1008   1.394   1_554 S
C469   C122    1.336   1_565 S
C469   H145    1.088   1_565 S
C471   C476    1.425   .     S
C471   O503    1.286   .     A
C471   O505    1.288   .     A
C472   O506    1.288   .     A
C472   C475    1.426   .     S
C472   O504    1.286   .     A
C473   C475    1.387   .     A
C473   H487    1.086   .     S
C473   C483    1.381   .     A
C474   H488    1.086   .     S
C474   C476    1.387   .     A
C474   C484    1.381   .     A
C475   C477    1.392   .     A
C476   C478    1.392   .     A
C477   H489    1.081   .     S
C477   C479    1.392   .     A
C478   H490    1.081   .     S
C478   C480    1.392   .     A
C479   C485    1.419   .     A
C479   C481    1.421   .     A
C480   C486    1.418   .     A
C480   C482    1.421   .     A
C481   C483    1.413   .     A
C481   C1004   1.392   1_554 S
C482   C484    1.412   .     A
C482   C1003   1.392   .     S
C485   C509    1.518   .     S
C485   C989    1.395   1_554 S
C486   C516    1.517   .     S
C486   C990    1.394   .     S
H494   C122    1.088   1_565 S
H496   N382    1.029   1_655 S
N497   Zn508   2.016   .     S
N497   H379    1.029   1_655 S
N497   N382    1.277   1_655 S
N498   Zn507   2.016   .     S
O499   Zn507   1.955   .     S
O500   Zn508   1.955   .     S
O501   Zn508   1.977   .     S
O502   Zn507   1.977   .     S
O503   Zn507   1.999   .     S
O504   Zn508   1.999   .     S
O505   Zn508   2.018   .     S
O506   Zn507   2.018   .     S
C509   C510    1.528   .     S
C509   H514    1.110   .     S
C509   H399    1.112   1_655 S
C510   H513    1.110   .     S
C510   H512    1.109   .     S
C510   H511    1.111   .     S
C516   H522    1.111   .     S
C516   H521    1.110   .     S
C517   H519    1.110   .     S
C517   H520    1.110   .     S
C517   H518    1.110   .     S
C517   C400    1.524   1_655 S
C523   O559    1.286   .     A
C523   C527    1.401   .     S
C523   O557    1.276   .     A
C524   O560    1.286   .     A
C524   C528    1.401   .     S
C524   O558    1.276   .     A
C525   H549    1.085   .     S
C525   C542    1.395   .     A
C525   C21     1.395   1_556 S
C526   H550    1.085   .     S
C526   C541    1.395   .     A
C527   C702    1.336   .     S
C527   H725    1.088   .     S
C528   C875    1.336   1_545 S
C528   H900    1.088   1_545 S
C529   C534    1.425   .     S
C529   O561    1.286   .     A
C529   O563    1.288   .     A
C530   O564    1.288   .     A
C530   C533    1.426   .     S
C530   O562    1.286   .     A
C531   C533    1.387   .     A
C531   H545    1.086   .     S
C531   C541    1.381   .     A
C532   H546    1.086   .     S
C532   C534    1.387   .     A
C532   C542    1.381   .     A
C533   C535    1.392   .     A
C534   C536    1.392   .     A
C535   H547    1.081   .     S
C535   C537    1.392   .     A
C536   H548    1.081   .     S
C536   C538    1.392   .     A
C537   C543    1.419   .     A
C537   C539    1.421   .     A
C538   C544    1.418   .     A
C538   C540    1.421   .     A
C539   C541    1.413   .     A
C540   C542    1.412   .     A
C540   C17     1.392   1_556 S
C543   C567    1.518   .     S
C544   C574    1.517   .     S
C544   C4      1.394   1_556 S
H551   C875    1.088   1_545 S
H552   C702    1.088   .     S
H553   N671    1.029   1_455 S
H554   N614    1.029   .     S
N555   Zn566   2.016   .     S
N555   H611    1.029   .     S
N555   N614    1.277   .     S
N556   Zn565   2.016   .     S
N556   N671    1.277   1_455 S
N556   H670    1.029   1_455 S
O557   Zn565   1.955   .     S
O558   Zn566   1.955   .     S
O559   Zn566   1.977   .     S
O560   Zn565   1.977   .     S
O561   Zn565   1.999   .     S
O562   Zn566   1.999   .     S
O563   Zn566   2.018   .     S
O564   Zn565   2.018   .     S
C567   C568    1.528   .     S
C567   H572    1.110   .     S
C567   H631    1.112   .     S
C568   H571    1.110   .     S
C568   H570    1.109   .     S
C568   H569    1.111   .     S
H573   C683    1.112   1_455 S
C574   H580    1.111   .     S
C574   H579    1.110   .     S
C574   C691    1.524   1_455 S
C575   H577    1.110   .     S
C575   H578    1.110   .     S
C575   H576    1.110   .     S
C575   C632    1.524   .     S
C581   O617    1.286   .     A
C581   C585    1.401   .     S
C581   O615    1.276   .     A
C582   O618    1.286   .     A
C582   C586    1.401   .     S
C582   O616    1.276   .     A
C583   H607    1.085   .     S
C583   C600    1.395   .     A
C583   C79     1.395   1_556 S
C584   H608    1.085   .     S
C584   C599    1.395   .     A
C585   C760    1.336   .     S
C585   H783    1.088   .     S
C586   C933    1.336   1_545 S
C586   H958    1.088   1_545 S
C587   C592    1.425   .     S
C587   O619    1.286   .     A
C587   O621    1.288   .     A
C588   O622    1.288   .     A
C588   C591    1.426   .     S
C588   O620    1.286   .     A
C589   C591    1.387   .     A
C589   H603    1.086   .     S
C589   C599    1.381   .     A
C590   H604    1.086   .     S
C590   C592    1.387   .     A
C590   C600    1.381   .     A
C591   C593    1.392   .     A
C592   C594    1.392   .     A
C593   H605    1.081   .     S
C593   C595    1.392   .     A
C594   H606    1.081   .     S
C594   C596    1.392   .     A
C595   C601    1.419   .     A
C595   C597    1.421   .     A
C596   C602    1.418   .     A
C596   C598    1.421   .     A
C597   C599    1.413   .     A
C598   C600    1.412   .     A
C598   C75     1.392   1_556 S
C601   C625    1.518   .     S
C602   C632    1.517   .     S
C602   C62     1.394   1_556 S
H609   C933    1.088   1_545 S
H610   C760    1.088   .     S
H612   N672    1.029   .     S
N613   Zn624   2.016   .     S
N613   H669    1.029   .     S
N613   N672    1.277   .     S
N614   Zn623   2.016   .     S
O615   Zn623   1.955   .     S
O616   Zn624   1.955   .     S
O617   Zn624   1.977   .     S
O618   Zn623   1.977   .     S
O619   Zn623   1.999   .     S
O620   Zn624   1.999   .     S
O621   Zn624   2.018   .     S
O622   Zn623   2.018   .     S
C625   C626    1.528   .     S
C625   H630    1.110   .     S
C625   H689    1.112   .     S
C626   H629    1.110   .     S
C626   H628    1.109   .     S
C626   H627    1.111   .     S
C632   H638    1.111   .     S
C632   H637    1.110   .     S
C633   H635    1.110   .     S
C633   H636    1.110   .     S
C633   H634    1.110   .     S
C633   C690    1.524   .     S
C639   O675    1.286   .     A
C639   C643    1.401   .     S
C639   O673    1.276   .     A
C640   O676    1.286   .     A
C640   C644    1.401   .     S
C640   O674    1.276   .     A
C641   H665    1.085   .     S
C641   C658    1.395   .     A
C641   C137    1.395   1_556 S
C642   H666    1.085   .     S
C642   C657    1.395   .     A
C643   C818    1.336   .     S
C643   H841    1.088   .     S
C644   C991    1.336   1_545 S
C644   H1016   1.088   1_545 S
C645   C650    1.425   .     S
C645   O677    1.286   .     A
C645   O679    1.288   .     A
C646   O680    1.288   .     A
C646   C649    1.426   .     S
C646   O678    1.286   .     A
C647   C649    1.387   .     A
C647   H661    1.086   .     S
C647   C657    1.381   .     A
C648   H662    1.086   .     S
C648   C650    1.387   .     A
C648   C658    1.381   .     A
C649   C651    1.392   .     A
C650   C652    1.392   .     A
C651   H663    1.081   .     S
C651   C653    1.392   .     A
C652   H664    1.081   .     S
C652   C654    1.392   .     A
C653   C659    1.419   .     A
C653   C655    1.421   .     A
C654   C660    1.418   .     A
C654   C656    1.421   .     A
C655   C657    1.413   .     A
C656   C658    1.412   .     A
C656   C133    1.392   1_556 S
C659   C683    1.518   .     S
C660   C690    1.517   .     S
C660   C120    1.394   1_556 S
H667   C991    1.088   1_545 S
H668   C818    1.088   .     S
H670   N556    1.029   1_655 S
N671   Zn682   2.016   .     S
N671   H553    1.029   1_655 S
N671   N556    1.277   1_655 S
N672   Zn681   2.016   .     S
O673   Zn681   1.955   .     S
O674   Zn682   1.955   .     S
O675   Zn682   1.977   .     S
O676   Zn681   1.977   .     S
O677   Zn681   1.999   .     S
O678   Zn682   1.999   .     S
O679   Zn682   2.018   .     S
O680   Zn681   2.018   .     S
C683   C684    1.528   .     S
C683   H688    1.110   .     S
C683   H573    1.112   1_655 S
C684   H687    1.110   .     S
C684   H686    1.109   .     S
C684   H685    1.111   .     S
C690   H696    1.111   .     S
C690   H695    1.110   .     S
C691   H693    1.110   .     S
C691   H694    1.110   .     S
C691   H692    1.110   .     S
C691   C574    1.524   1_655 S
C697   O733    1.286   .     A
C697   C701    1.401   .     S
C697   O731    1.276   .     A
C698   O734    1.286   .     A
C698   C702    1.401   .     S
C698   O732    1.276   .     A
C699   H723    1.085   .     S
C699   C716    1.395   .     A
C699   C195    1.395   1_556 S
C700   H724    1.085   .     S
C700   C715    1.395   .     A
C701   C876    1.336   .     S
C701   H899    1.088   .     S
C703   C708    1.425   .     S
C703   O735    1.286   .     A
C703   O737    1.288   .     A
C704   O738    1.288   .     A
C704   C707    1.426   .     S
C704   O736    1.286   .     A
C705   C707    1.387   .     A
C705   H719    1.086   .     S
C705   C715    1.381   .     A
C706   H720    1.086   .     S
C706   C708    1.387   .     A
C706   C716    1.381   .     A
C707   C709    1.392   .     A
C708   C710    1.392   .     A
C709   H721    1.081   .     S
C709   C711    1.392   .     A
C710   H722    1.081   .     S
C710   C712    1.392   .     A
C711   C717    1.419   .     A
C711   C713    1.421   .     A
C712   C718    1.418   .     A
C712   C714    1.421   .     A
C713   C715    1.413   .     A
C714   C716    1.412   .     A
C714   C191    1.392   1_556 S
C717   C741    1.518   .     S
C718   C748    1.517   .     S
C718   C178    1.394   1_556 S
H726   C876    1.088   .     S
H727   N845    1.029   1_455 S
H728   N788    1.029   .     S
N729   Zn740   2.016   .     S
N729   H785    1.029   .     S
N729   N788    1.277   .     S
N730   Zn739   2.016   .     S
N730   N845    1.277   1_455 S
N730   H844    1.029   1_455 S
O731   Zn739   1.955   .     S
O732   Zn740   1.955   .     S
O733   Zn740   1.977   .     S
O734   Zn739   1.977   .     S
O735   Zn739   1.999   .     S
O736   Zn740   1.999   .     S
O737   Zn740   2.018   .     S
O738   Zn739   2.018   .     S
C741   C742    1.528   .     S
C741   H746    1.110   .     S
C741   H805    1.112   .     S
C742   H745    1.110   .     S
C742   H744    1.109   .     S
C742   H743    1.111   .     S
H747   C857    1.112   1_455 S
C748   H754    1.111   .     S
C748   H753    1.110   .     S
C748   C865    1.524   1_455 S
C749   H751    1.110   .     S
C749   H752    1.110   .     S
C749   H750    1.110   .     S
C749   C806    1.524   .     S
C755   O791    1.286   .     A
C755   C759    1.401   .     S
C755   O789    1.276   .     A
C756   O792    1.286   .     A
C756   C760    1.401   .     S
C756   O790    1.276   .     A
C757   H781    1.085   .     S
C757   C774    1.395   .     A
C757   C253    1.395   1_556 S
C758   H782    1.085   .     S
C758   C773    1.395   .     A
C759   C934    1.336   .     S
C759   H957    1.088   .     S
C761   C766    1.425   .     S
C761   O793    1.286   .     A
C761   O795    1.288   .     A
C762   O796    1.288   .     A
C762   C765    1.426   .     S
C762   O794    1.286   .     A
C763   C765    1.387   .     A
C763   H777    1.086   .     S
C763   C773    1.381   .     A
C764   H778    1.086   .     S
C764   C766    1.387   .     A
C764   C774    1.381   .     A
C765   C767    1.392   .     A
C766   C768    1.392   .     A
C767   H779    1.081   .     S
C767   C769    1.392   .     A
C768   H780    1.081   .     S
C768   C770    1.392   .     A
C769   C775    1.419   .     A
C769   C771    1.421   .     A
C770   C776    1.418   .     A
C770   C772    1.421   .     A
C771   C773    1.413   .     A
C772   C774    1.412   .     A
C772   C249    1.392   1_556 S
C775   C799    1.518   .     S
C776   C806    1.517   .     S
C776   C236    1.394   1_556 S
H784   C934    1.088   .     S
H786   N846    1.029   .     S
N787   Zn798   2.016   .     S
N787   H843    1.029   .     S
N787   N846    1.277   .     S
N788   Zn797   2.016   .     S
O789   Zn797   1.955   .     S
O790   Zn798   1.955   .     S
O791   Zn798   1.977   .     S
O792   Zn797   1.977   .     S
O793   Zn797   1.999   .     S
O794   Zn798   1.999   .     S
O795   Zn798   2.018   .     S
O796   Zn797   2.018   .     S
C799   C800    1.528   .     S
C799   H804    1.110   .     S
C799   H863    1.112   .     S
C800   H803    1.110   .     S
C800   H802    1.109   .     S
C800   H801    1.111   .     S
C806   H812    1.111   .     S
C806   H811    1.110   .     S
C807   H809    1.110   .     S
C807   H810    1.110   .     S
C807   H808    1.110   .     S
C807   C864    1.524   .     S
C813   O849    1.286   .     A
C813   C817    1.401   .     S
C813   O847    1.276   .     A
C814   O850    1.286   .     A
C814   C818    1.401   .     S
C814   O848    1.276   .     A
C815   H839    1.085   .     S
C815   C832    1.395   .     A
C815   C311    1.395   1_556 S
C816   H840    1.085   .     S
C816   C831    1.395   .     A
C817   C992    1.336   .     S
C817   H1015   1.088   .     S
C819   C824    1.425   .     S
C819   O851    1.286   .     A
C819   O853    1.288   .     A
C820   O854    1.288   .     A
C820   C823    1.426   .     S
C820   O852    1.286   .     A
C821   C823    1.387   .     A
C821   H835    1.086   .     S
C821   C831    1.381   .     A
C822   H836    1.086   .     S
C822   C824    1.387   .     A
C822   C832    1.381   .     A
C823   C825    1.392   .     A
C824   C826    1.392   .     A
C825   H837    1.081   .     S
C825   C827    1.392   .     A
C826   H838    1.081   .     S
C826   C828    1.392   .     A
C827   C833    1.419   .     A
C827   C829    1.421   .     A
C828   C834    1.418   .     A
C828   C830    1.421   .     A
C829   C831    1.413   .     A
C830   C832    1.412   .     A
C830   C307    1.392   1_556 S
C833   C857    1.518   .     S
C834   C864    1.517   .     S
C834   C294    1.394   1_556 S
H842   C992    1.088   .     S
H844   N730    1.029   1_655 S
N845   Zn856   2.016   .     S
N845   H727    1.029   1_655 S
N845   N730    1.277   1_655 S
N846   Zn855   2.016   .     S
O847   Zn855   1.955   .     S
O848   Zn856   1.955   .     S
O849   Zn856   1.977   .     S
O850   Zn855   1.977   .     S
O851   Zn855   1.999   .     S
O852   Zn856   1.999   .     S
O853   Zn856   2.018   .     S
O854   Zn855   2.018   .     S
C857   C858    1.528   .     S
C857   H862    1.110   .     S
C857   H747    1.112   1_655 S
C858   H861    1.110   .     S
C858   H860    1.109   .     S
C858   H859    1.111   .     S
C864   H870    1.111   .     S
C864   H869    1.110   .     S
C865   H867    1.110   .     S
C865   H868    1.110   .     S
C865   H866    1.110   .     S
C865   C748    1.524   1_655 S
C871   O907    1.286   .     A
C871   C875    1.401   .     S
C871   O905    1.276   .     A
C872   O908    1.286   .     A
C872   C876    1.401   .     S
C872   O906    1.276   .     A
C873   H897    1.085   .     S
C873   C890    1.395   .     A
C873   C369    1.395   1_556 S
C874   H898    1.085   .     S
C874   C889    1.395   .     A
C875   C528    1.336   1_565 S
C875   H551    1.088   1_565 S
C877   C882    1.425   .     S
C877   O909    1.286   .     A
C877   O911    1.288   .     A
C878   O912    1.288   .     A
C878   C881    1.426   .     S
C878   O910    1.286   .     A
C879   C881    1.387   .     A
C879   H893    1.086   .     S
C879   C889    1.381   .     A
C880   H894    1.086   .     S
C880   C882    1.387   .     A
C880   C890    1.381   .     A
C881   C883    1.392   .     A
C882   C884    1.392   .     A
C883   H895    1.081   .     S
C883   C885    1.392   .     A
C884   H896    1.081   .     S
C884   C886    1.392   .     A
C885   C891    1.419   .     A
C885   C887    1.421   .     A
C886   C892    1.418   .     A
C886   C888    1.421   .     A
C887   C889    1.413   .     A
C888   C890    1.412   .     A
C888   C365    1.392   1_556 S
C891   C915    1.518   .     S
C892   C922    1.517   .     S
C892   C352    1.394   1_556 S
H900   C528    1.088   1_565 S
H901   N1019   1.029   1_455 S
H902   N962    1.029   .     S
N903   Zn914   2.016   .     S
N903   H959    1.029   .     S
N903   N962    1.277   .     S
N904   Zn913   2.016   .     S
N904   N1019   1.277   1_455 S
N904   H1018   1.029   1_455 S
O905   Zn913   1.955   .     S
O906   Zn914   1.955   .     S
O907   Zn914   1.977   .     S
O908   Zn913   1.977   .     S
O909   Zn913   1.999   .     S
O910   Zn914   1.999   .     S
O911   Zn914   2.018   .     S
O912   Zn913   2.018   .     S
C915   C916    1.528   .     S
C915   H920    1.110   .     S
C915   H979    1.112   .     S
C916   H919    1.110   .     S
C916   H918    1.109   .     S
C916   H917    1.111   .     S
H921   C1031   1.112   1_455 S
C922   H928    1.111   .     S
C922   H927    1.110   .     S
C922   C1039   1.524   1_455 S
C923   H925    1.110   .     S
C923   H926    1.110   .     S
C923   H924    1.110   .     S
C923   C980    1.524   .     S
C929   O965    1.286   .     A
C929   C933    1.401   .     S
C929   O963    1.276   .     A
C930   O966    1.286   .     A
C930   C934    1.401   .     S
C930   O964    1.276   .     A
C931   H955    1.085   .     S
C931   C948    1.395   .     A
C931   C427    1.395   1_556 S
C932   H956    1.085   .     S
C932   C947    1.395   .     A
C933   C586    1.336   1_565 S
C933   H609    1.088   1_565 S
C935   C940    1.425   .     S
C935   O967    1.286   .     A
C935   O969    1.288   .     A
C936   O970    1.288   .     A
C936   C939    1.426   .     S
C936   O968    1.286   .     A
C937   C939    1.387   .     A
C937   H951    1.086   .     S
C937   C947    1.381   .     A
C938   H952    1.086   .     S
C938   C940    1.387   .     A
C938   C948    1.381   .     A
C939   C941    1.392   .     A
C940   C942    1.392   .     A
C941   H953    1.081   .     S
C941   C943    1.392   .     A
C942   H954    1.081   .     S
C942   C944    1.392   .     A
C943   C949    1.419   .     A
C943   C945    1.421   .     A
C944   C950    1.418   .     A
C944   C946    1.421   .     A
C945   C947    1.413   .     A
C946   C948    1.412   .     A
C946   C423    1.392   1_556 S
C949   C973    1.518   .     S
C950   C980    1.517   .     S
C950   C410    1.394   1_556 S
H958   C586    1.088   1_565 S
H960   N1020   1.029   .     S
N961   Zn972   2.016   .     S
N961   H1017   1.029   .     S
N961   N1020   1.277   .     S
N962   Zn971   2.016   .     S
O963   Zn971   1.955   .     S
O964   Zn972   1.955   .     S
O965   Zn972   1.977   .     S
O966   Zn971   1.977   .     S
O967   Zn971   1.999   .     S
O968   Zn972   1.999   .     S
O969   Zn972   2.018   .     S
O970   Zn971   2.018   .     S
C973   C974    1.528   .     S
C973   H978    1.110   .     S
C973   H1037   1.112   .     S
C974   H977    1.110   .     S
C974   H976    1.109   .     S
C974   H975    1.111   .     S
C980   H986    1.111   .     S
C980   H985    1.110   .     S
C981   H983    1.110   .     S
C981   H984    1.110   .     S
C981   H982    1.110   .     S
C981   C1038   1.524   .     S
C987   O1023   1.286   .     A
C987   C991    1.401   .     S
C987   O1021   1.276   .     A
C988   O1024   1.286   .     A
C988   C992    1.401   .     S
C988   O1022   1.276   .     A
C989   H1013   1.085   .     S
C989   C1006   1.395   .     A
C989   C485    1.395   1_556 S
C990   H1014   1.085   .     S
C990   C1005   1.395   .     A
C991   C644    1.336   1_565 S
C991   H667    1.088   1_565 S
C993   C998    1.425   .     S
C993   O1025   1.286   .     A
C993   O1027   1.288   .     A
C994   O1028   1.288   .     A
C994   C997    1.426   .     S
C994   O1026   1.286   .     A
C995   C997    1.387   .     A
C995   H1009   1.086   .     S
C995   C1005   1.381   .     A
C996   H1010   1.086   .     S
C996   C998    1.387   .     A
C996   C1006   1.381   .     A
C997   C999    1.392   .     A
C998   C1000   1.392   .     A
C999   H1011   1.081   .     S
C999   C1001   1.392   .     A
C1000  H1012   1.081   .     S
C1000  C1002   1.392   .     A
C1001  C1007   1.419   .     A
C1001  C1003   1.421   .     A
C1002  C1008   1.418   .     A
C1002  C1004   1.421   .     A
C1003  C1005   1.413   .     A
C1004  C1006   1.412   .     A
C1004  C481    1.392   1_556 S
C1007  C1031   1.518   .     S
C1008  C1038   1.517   .     S
C1008  C468    1.394   1_556 S
H1016  C644    1.088   1_565 S
H1018  N904    1.029   1_655 S
N1019  Zn1030  2.016   .     S
N1019  H901    1.029   1_655 S
N1019  N904    1.277   1_655 S
N1020  Zn1029  2.016   .     S
O1021  Zn1029  1.955   .     S
O1022  Zn1030  1.955   .     S
O1023  Zn1030  1.977   .     S
O1024  Zn1029  1.977   .     S
O1025  Zn1029  1.999   .     S
O1026  Zn1030  1.999   .     S
O1027  Zn1030  2.018   .     S
O1028  Zn1029  2.018   .     S
C1031  C1032   1.528   .     S
C1031  H1036   1.110   .     S
C1031  H921    1.112   1_655 S
C1032  H1035   1.110   .     S
C1032  H1034   1.109   .     S
C1032  H1033   1.111   .     S
C1038  H1044   1.111   .     S
C1038  H1043   1.110   .     S
C1039  H1041   1.110   .     S
C1039  H1042   1.110   .     S
C1039  H1040   1.110   .     S
C1039  C922    1.524   1_655 S
