data_str_m3_o1_o2_pcu_sym.74
_audit_creation_date              2020-01-03
_audit_creation_method            'Materials Studio'
_symmetry_space_group_name_H-M    'P1'
_symmetry_Int_Tables_number       1
_symmetry_cell_setting            triclinic
loop_
_symmetry_equiv_pos_as_xyz
  x,y,z
_cell_length_a                    32.3348
_cell_length_b                    29.3730
_cell_length_c                    29.7951
_cell_angle_alpha                 89.7231
_cell_angle_beta                  90.0216
_cell_angle_gamma                 89.8935
loop_
_atom_site_label
_atom_site_type_symbol
_atom_site_fract_x
_atom_site_fract_y
_atom_site_fract_z
_atom_site_U_iso_or_equiv
_atom_site_adp_type
_atom_site_occupancy
C1     C     0.08638   0.16669   0.25022   0.00000  Uiso   1.00
C2     C     0.31183   0.20931   0.24004   0.00000  Uiso   1.00
C3     C     0.31188   0.12620   0.23340   0.00000  Uiso   1.00
C4     C     0.02072   0.20889   0.24732   0.00000  Uiso   1.00
C5     C     0.17232   0.20065   0.04361   0.00000  Uiso   1.00
C6     C     0.14989   0.12733   0.45566   0.00000  Uiso   1.00
C7     C     0.13627   0.20837   0.45144   0.00000  Uiso   1.00
C8     C     0.12102   0.14082   0.05117   0.00000  Uiso   1.00
C9     C     0.17908   0.20019   0.08962   0.00000  Uiso   1.00
C10    C     0.15608   0.12571   0.40955   0.00000  Uiso   1.00
C11    C     0.14254   0.20781   0.40544   0.00000  Uiso   1.00
C12    C     0.24655   0.16678   0.24604   0.00000  Uiso   1.00
C13    C     0.12846   0.13811   0.09750   0.00000  Uiso   1.00
C14    C     0.15839   0.16758   0.11595   0.00000  Uiso   1.00
C15    C     0.15517   0.16678   0.38451   0.00000  Uiso   1.00
C16    C     0.14358   0.17110   0.02470   0.00000  Uiso   1.00
C17    C     0.14104   0.16858   0.47643   0.00000  Uiso   1.00
C18    C     0.29048   0.16747   0.23869   0.00000  Uiso   1.00
C19    C     0.04197   0.16689   0.24668   0.00000  Uiso   1.00
C20    C     0.19865   0.27428   0.10107   0.00000  Uiso   1.00
C21    C     0.13228   0.05637   0.38809   0.00000  Uiso   1.00
C22    C     0.09752   0.25514   0.37010   0.00000  Uiso   1.00
C23    C     0.16552   0.16682   0.16374   0.00000  Uiso   1.00
C24    C     0.09019   0.07088   0.10666   0.00000  Uiso   1.00
C25    C     0.03951   0.06341   0.28068   0.00000  Uiso   1.00
C26    C     0.28119   0.26155   0.19431   0.00000  Uiso   1.00
C27    C     0.28662   0.08027   0.17913   0.00000  Uiso   1.00
C28    C     0.04601   0.27917   0.22691   0.00000  Uiso   1.00
C29    C     0.16441   0.16661   0.33650   0.00000  Uiso   1.00
C30    C     0.18347   0.02382   0.28499   0.00000  Uiso   1.00
C31    C     0.15117   0.30953   0.21431   0.00000  Uiso   1.00
C32    C     0.15079   0.02422   0.21452   0.00000  Uiso   1.00
C33    C     0.18322   0.30910   0.28515   0.00000  Uiso   1.00
C34    C     0.02081   0.12550   0.23961   0.00000  Uiso   1.00
H35    H     0.19719   0.04192   0.31275   0.00000  Uiso   1.00
H36    H     0.20792   0.28490   0.06670   0.00000  Uiso   1.00
H37    H     0.16520   0.28150   0.10670   0.00000  Uiso   1.00
H38    H     0.14105   0.02422   0.37120   0.00000  Uiso   1.00
H39    H     0.10704   0.07242   0.36806   0.00000  Uiso   1.00
H40    H     0.12097   0.04710   0.42217   0.00000  Uiso   1.00
H41    H     0.08535   0.22626   0.34995   0.00000  Uiso   1.00
H42    H     0.09524   0.28625   0.34895   0.00000  Uiso   1.00
H43    H     0.07803   0.26051   0.40039   0.00000  Uiso   1.00
H44    H     0.06247   0.07820   0.08580   0.00000  Uiso   1.00
H45    H     0.11465   0.05321   0.08697   0.00000  Uiso   1.00
H46    H     0.13838   0.29145   0.18602   0.00000  Uiso   1.00
H47    H     0.08015   0.04722   0.13365   0.00000  Uiso   1.00
H48    H     0.00801   0.05003   0.28763   0.00000  Uiso   1.00
H49    H     0.06134   0.03428   0.28143   0.00000  Uiso   1.00
H50    H     0.04917   0.08708   0.30785   0.00000  Uiso   1.00
H51    H     0.26601   0.29543   0.19359   0.00000  Uiso   1.00
H52    H     0.30906   0.26334   0.17252   0.00000  Uiso   1.00
H53    H     0.25918   0.23661   0.17989   0.00000  Uiso   1.00
H54    H     0.31711   0.07793   0.16193   0.00000  Uiso   1.00
H55    H     0.26981   0.04802   0.17290   0.00000  Uiso   1.00
H56    H     0.26782   0.10843   0.16440   0.00000  Uiso   1.00
H57    H     0.13795   0.04263   0.18634   0.00000  Uiso   1.00
H58    H     0.05325   0.26235   0.19435   0.00000  Uiso   1.00
H59    H     0.07256   0.30099   0.23558   0.00000  Uiso   1.00
H60    H     0.01917   0.30245   0.22362   0.00000  Uiso   1.00
H61    H     0.19647   0.29070   0.31321   0.00000  Uiso   1.00
H62    H     0.19062   0.22279   0.02231   0.00000  Uiso   1.00
H63    H     0.15442   0.09675   0.47559   0.00000  Uiso   1.00
H64    H     0.12929   0.24030   0.46791   0.00000  Uiso   1.00
H65    H     0.09813   0.11960   0.03509   0.00000  Uiso   1.00
H66    H     0.21629   0.29549   0.12505   0.00000  Uiso   1.00
N67    N     0.16667   0.28573   0.25000   0.00000  Uiso   1.00
N68    N     0.16667   0.04760   0.25000   0.00000  Uiso   1.00
O69    O     0.10559   0.20487   0.25000   0.00000  Uiso   1.00
O70    O     0.16735   0.08486   0.39004   0.00000  Uiso   1.00
O71    O     0.13932   0.24839   0.38194   0.00000  Uiso   1.00
O72    O     0.10503   0.11113   0.12670   0.00000  Uiso   1.00
O73    O     0.04125   0.08405   0.23780   0.00000  Uiso   1.00
O74    O     0.29150   0.25085   0.23930   0.00000  Uiso   1.00
O75    O     0.29156   0.08552   0.22583   0.00000  Uiso   1.00
O76    O     0.03992   0.24813   0.26258   0.00000  Uiso   1.00
O77    O     0.22774   0.12846   0.25001   0.00000  Uiso   1.00
O78    O     0.22774   0.20487   0.25001   0.00000  Uiso   1.00
O79    O     0.10559   0.12846   0.25000   0.00000  Uiso   1.00
O80    O     0.16666   0.20489   0.18453   0.00000  Uiso   1.00
O81    O     0.16667   0.12845   0.31547   0.00000  Uiso   1.00
O82    O     0.16667   0.20489   0.31547   0.00000  Uiso   1.00
O83    O     0.16666   0.12845   0.18453   0.00000  Uiso   1.00
O84    O     0.20872   0.22809   0.10886   0.00000  Uiso   1.00
Zn85   Zn    0.16667   0.21771   0.25000   0.00000  Uiso   1.00
Zn86   Zn    0.16667   0.11563   0.25000   0.00000  Uiso   1.00
C87    C     0.41971   0.16669   0.25022   0.00000  Uiso   1.00
C88    C     0.64516   0.20931   0.24004   0.00000  Uiso   1.00
C89    C     0.64521   0.12620   0.23340   0.00000  Uiso   1.00
C90    C     0.35406   0.20889   0.24732   0.00000  Uiso   1.00
C91    C     0.50565   0.20065   0.04361   0.00000  Uiso   1.00
C92    C     0.48322   0.12733   0.45566   0.00000  Uiso   1.00
C93    C     0.46960   0.20837   0.45144   0.00000  Uiso   1.00
C94    C     0.45435   0.14082   0.05117   0.00000  Uiso   1.00
C95    C     0.51241   0.20019   0.08962   0.00000  Uiso   1.00
C96    C     0.48942   0.12571   0.40955   0.00000  Uiso   1.00
C97    C     0.47587   0.20781   0.40544   0.00000  Uiso   1.00
C98    C     0.57988   0.16678   0.24604   0.00000  Uiso   1.00
C99    C     0.46179   0.13811   0.09750   0.00000  Uiso   1.00
C100   C     0.49173   0.16758   0.11595   0.00000  Uiso   1.00
C101   C     0.48850   0.16678   0.38451   0.00000  Uiso   1.00
C102   C     0.47691   0.17110   0.02470   0.00000  Uiso   1.00
C103   C     0.47438   0.16858   0.47643   0.00000  Uiso   1.00
C104   C     0.62382   0.16747   0.23869   0.00000  Uiso   1.00
C105   C     0.37531   0.16689   0.24668   0.00000  Uiso   1.00
C106   C     0.53198   0.27428   0.10107   0.00000  Uiso   1.00
C107   C     0.46561   0.05637   0.38809   0.00000  Uiso   1.00
C108   C     0.43085   0.25514   0.37010   0.00000  Uiso   1.00
C109   C     0.49885   0.16682   0.16374   0.00000  Uiso   1.00
C110   C     0.42353   0.07088   0.10666   0.00000  Uiso   1.00
C111   C     0.37284   0.06341   0.28068   0.00000  Uiso   1.00
C112   C     0.61453   0.26155   0.19431   0.00000  Uiso   1.00
C113   C     0.61995   0.08027   0.17913   0.00000  Uiso   1.00
C114   C     0.37935   0.27917   0.22691   0.00000  Uiso   1.00
C115   C     0.49774   0.16661   0.33650   0.00000  Uiso   1.00
C116   C     0.51681   0.02382   0.28499   0.00000  Uiso   1.00
C117   C     0.48451   0.30953   0.21431   0.00000  Uiso   1.00
C118   C     0.48412   0.02422   0.21452   0.00000  Uiso   1.00
C119   C     0.51655   0.30910   0.28515   0.00000  Uiso   1.00
C120   C     0.35415   0.12550   0.23961   0.00000  Uiso   1.00
H121   H     0.53052   0.04192   0.31275   0.00000  Uiso   1.00
H122   H     0.54125   0.28490   0.06670   0.00000  Uiso   1.00
H123   H     0.49853   0.28150   0.10670   0.00000  Uiso   1.00
H124   H     0.47438   0.02422   0.37120   0.00000  Uiso   1.00
H125   H     0.44037   0.07242   0.36806   0.00000  Uiso   1.00
H126   H     0.45430   0.04710   0.42217   0.00000  Uiso   1.00
H127   H     0.41868   0.22626   0.34995   0.00000  Uiso   1.00
H128   H     0.42857   0.28625   0.34895   0.00000  Uiso   1.00
H129   H     0.41136   0.26051   0.40039   0.00000  Uiso   1.00
H130   H     0.39580   0.07820   0.08580   0.00000  Uiso   1.00
H131   H     0.44798   0.05321   0.08697   0.00000  Uiso   1.00
H132   H     0.47171   0.29145   0.18602   0.00000  Uiso   1.00
H133   H     0.41348   0.04722   0.13365   0.00000  Uiso   1.00
H134   H     0.34135   0.05003   0.28763   0.00000  Uiso   1.00
H135   H     0.39467   0.03428   0.28143   0.00000  Uiso   1.00
H136   H     0.38250   0.08708   0.30785   0.00000  Uiso   1.00
H137   H     0.59934   0.29543   0.19359   0.00000  Uiso   1.00
H138   H     0.64239   0.26334   0.17252   0.00000  Uiso   1.00
H139   H     0.59251   0.23661   0.17989   0.00000  Uiso   1.00
H140   H     0.65044   0.07793   0.16193   0.00000  Uiso   1.00
H141   H     0.60315   0.04802   0.17290   0.00000  Uiso   1.00
H142   H     0.60115   0.10843   0.16440   0.00000  Uiso   1.00
H143   H     0.47128   0.04263   0.18634   0.00000  Uiso   1.00
H144   H     0.38658   0.26235   0.19435   0.00000  Uiso   1.00
H145   H     0.40589   0.30099   0.23558   0.00000  Uiso   1.00
H146   H     0.35251   0.30245   0.22362   0.00000  Uiso   1.00
H147   H     0.52980   0.29070   0.31321   0.00000  Uiso   1.00
H148   H     0.52396   0.22279   0.02231   0.00000  Uiso   1.00
H149   H     0.48775   0.09675   0.47559   0.00000  Uiso   1.00
H150   H     0.46262   0.24030   0.46791   0.00000  Uiso   1.00
H151   H     0.43146   0.11960   0.03509   0.00000  Uiso   1.00
H152   H     0.54962   0.29549   0.12505   0.00000  Uiso   1.00
N153   N     0.50000   0.28573   0.25000   0.00000  Uiso   1.00
N154   N     0.50000   0.04760   0.25000   0.00000  Uiso   1.00
O155   O     0.43892   0.20487   0.25000   0.00000  Uiso   1.00
O156   O     0.50068   0.08486   0.39004   0.00000  Uiso   1.00
O157   O     0.47266   0.24839   0.38194   0.00000  Uiso   1.00
O158   O     0.43836   0.11113   0.12670   0.00000  Uiso   1.00
O159   O     0.37459   0.08405   0.23780   0.00000  Uiso   1.00
O160   O     0.62483   0.25085   0.23930   0.00000  Uiso   1.00
O161   O     0.62490   0.08552   0.22583   0.00000  Uiso   1.00
O162   O     0.37326   0.24813   0.26258   0.00000  Uiso   1.00
O163   O     0.56108   0.12846   0.25001   0.00000  Uiso   1.00
O164   O     0.56108   0.20487   0.25001   0.00000  Uiso   1.00
O165   O     0.43892   0.12846   0.25000   0.00000  Uiso   1.00
O166   O     0.50000   0.20489   0.18453   0.00000  Uiso   1.00
O167   O     0.50000   0.12845   0.31547   0.00000  Uiso   1.00
O168   O     0.50000   0.20489   0.31547   0.00000  Uiso   1.00
O169   O     0.50000   0.12845   0.18453   0.00000  Uiso   1.00
O170   O     0.54205   0.22809   0.10886   0.00000  Uiso   1.00
Zn171  Zn    0.50000   0.21771   0.25000   0.00000  Uiso   1.00
Zn172  Zn    0.50000   0.11563   0.25000   0.00000  Uiso   1.00
C173   C     0.75304   0.16669   0.25022   0.00000  Uiso   1.00
C174   C     0.97850   0.20931   0.24004   0.00000  Uiso   1.00
C175   C     0.97854   0.12620   0.23340   0.00000  Uiso   1.00
C176   C     0.68739   0.20889   0.24732   0.00000  Uiso   1.00
C177   C     0.83898   0.20065   0.04361   0.00000  Uiso   1.00
C178   C     0.81656   0.12733   0.45566   0.00000  Uiso   1.00
C179   C     0.80293   0.20837   0.45144   0.00000  Uiso   1.00
C180   C     0.78768   0.14082   0.05117   0.00000  Uiso   1.00
C181   C     0.84575   0.20019   0.08962   0.00000  Uiso   1.00
C182   C     0.82275   0.12571   0.40955   0.00000  Uiso   1.00
C183   C     0.80920   0.20781   0.40544   0.00000  Uiso   1.00
C184   C     0.91321   0.16678   0.24604   0.00000  Uiso   1.00
C185   C     0.79513   0.13811   0.09750   0.00000  Uiso   1.00
C186   C     0.82506   0.16758   0.11595   0.00000  Uiso   1.00
C187   C     0.82183   0.16678   0.38451   0.00000  Uiso   1.00
C188   C     0.81024   0.17110   0.02470   0.00000  Uiso   1.00
C189   C     0.80771   0.16858   0.47643   0.00000  Uiso   1.00
C190   C     0.95715   0.16747   0.23869   0.00000  Uiso   1.00
C191   C     0.70864   0.16689   0.24668   0.00000  Uiso   1.00
C192   C     0.86531   0.27428   0.10107   0.00000  Uiso   1.00
C193   C     0.79895   0.05637   0.38809   0.00000  Uiso   1.00
C194   C     0.76418   0.25514   0.37010   0.00000  Uiso   1.00
C195   C     0.83218   0.16682   0.16374   0.00000  Uiso   1.00
C196   C     0.75686   0.07088   0.10666   0.00000  Uiso   1.00
C197   C     0.70617   0.06341   0.28068   0.00000  Uiso   1.00
C198   C     0.94786   0.26155   0.19431   0.00000  Uiso   1.00
C199   C     0.95328   0.08027   0.17913   0.00000  Uiso   1.00
C200   C     0.71268   0.27917   0.22691   0.00000  Uiso   1.00
C201   C     0.83107   0.16661   0.33650   0.00000  Uiso   1.00
C202   C     0.85014   0.02382   0.28499   0.00000  Uiso   1.00
C203   C     0.81784   0.30953   0.21431   0.00000  Uiso   1.00
C204   C     0.81746   0.02422   0.21452   0.00000  Uiso   1.00
C205   C     0.84989   0.30910   0.28515   0.00000  Uiso   1.00
C206   C     0.68748   0.12550   0.23961   0.00000  Uiso   1.00
H207   H     0.86385   0.04192   0.31275   0.00000  Uiso   1.00
H208   H     0.87459   0.28490   0.06670   0.00000  Uiso   1.00
H209   H     0.83186   0.28150   0.10670   0.00000  Uiso   1.00
H210   H     0.80771   0.02422   0.37120   0.00000  Uiso   1.00
H211   H     0.77371   0.07242   0.36806   0.00000  Uiso   1.00
H212   H     0.78763   0.04710   0.42217   0.00000  Uiso   1.00
H213   H     0.75201   0.22626   0.34995   0.00000  Uiso   1.00
H214   H     0.76190   0.28625   0.34895   0.00000  Uiso   1.00
H215   H     0.74470   0.26051   0.40039   0.00000  Uiso   1.00
H216   H     0.72914   0.07820   0.08580   0.00000  Uiso   1.00
H217   H     0.78132   0.05321   0.08697   0.00000  Uiso   1.00
H218   H     0.80505   0.29145   0.18602   0.00000  Uiso   1.00
H219   H     0.74681   0.04722   0.13365   0.00000  Uiso   1.00
H220   H     0.67468   0.05003   0.28763   0.00000  Uiso   1.00
H221   H     0.72800   0.03428   0.28143   0.00000  Uiso   1.00
H222   H     0.71584   0.08708   0.30785   0.00000  Uiso   1.00
H223   H     0.93267   0.29543   0.19359   0.00000  Uiso   1.00
H224   H     0.97573   0.26334   0.17252   0.00000  Uiso   1.00
H225   H     0.92584   0.23661   0.17989   0.00000  Uiso   1.00
H226   H     0.98377   0.07793   0.16193   0.00000  Uiso   1.00
H227   H     0.93648   0.04802   0.17290   0.00000  Uiso   1.00
H228   H     0.93449   0.10843   0.16440   0.00000  Uiso   1.00
H229   H     0.80462   0.04263   0.18634   0.00000  Uiso   1.00
H230   H     0.71991   0.26235   0.19435   0.00000  Uiso   1.00
H231   H     0.73923   0.30099   0.23558   0.00000  Uiso   1.00
H232   H     0.68584   0.30245   0.22362   0.00000  Uiso   1.00
H233   H     0.86314   0.29070   0.31321   0.00000  Uiso   1.00
H234   H     0.85729   0.22279   0.02231   0.00000  Uiso   1.00
H235   H     0.82109   0.09675   0.47559   0.00000  Uiso   1.00
H236   H     0.79596   0.24030   0.46791   0.00000  Uiso   1.00
H237   H     0.76480   0.11960   0.03509   0.00000  Uiso   1.00
H238   H     0.88295   0.29549   0.12505   0.00000  Uiso   1.00
N239   N     0.83333   0.28573   0.25000   0.00000  Uiso   1.00
N240   N     0.83333   0.04760   0.25000   0.00000  Uiso   1.00
O241   O     0.77226   0.20487   0.25000   0.00000  Uiso   1.00
O242   O     0.83402   0.08486   0.39004   0.00000  Uiso   1.00
O243   O     0.80599   0.24839   0.38194   0.00000  Uiso   1.00
O244   O     0.77170   0.11113   0.12670   0.00000  Uiso   1.00
O245   O     0.70792   0.08405   0.23780   0.00000  Uiso   1.00
O246   O     0.95817   0.25085   0.23930   0.00000  Uiso   1.00
O247   O     0.95823   0.08552   0.22583   0.00000  Uiso   1.00
O248   O     0.70659   0.24813   0.26258   0.00000  Uiso   1.00
O249   O     0.89441   0.12846   0.25001   0.00000  Uiso   1.00
O250   O     0.89441   0.20487   0.25001   0.00000  Uiso   1.00
O251   O     0.77226   0.12846   0.25000   0.00000  Uiso   1.00
O252   O     0.83333   0.20489   0.18453   0.00000  Uiso   1.00
O253   O     0.83334   0.12845   0.31547   0.00000  Uiso   1.00
O254   O     0.83334   0.20489   0.31547   0.00000  Uiso   1.00
O255   O     0.83333   0.12845   0.18453   0.00000  Uiso   1.00
O256   O     0.87539   0.22809   0.10886   0.00000  Uiso   1.00
Zn257  Zn    0.83333   0.21771   0.25000   0.00000  Uiso   1.00
Zn258  Zn    0.83333   0.11563   0.25000   0.00000  Uiso   1.00
C259   C     0.08638   0.50003   0.25022   0.00000  Uiso   1.00
C260   C     0.31183   0.54265   0.24004   0.00000  Uiso   1.00
C261   C     0.31188   0.45954   0.23340   0.00000  Uiso   1.00
C262   C     0.02072   0.54222   0.24732   0.00000  Uiso   1.00
C263   C     0.17232   0.53398   0.04361   0.00000  Uiso   1.00
C264   C     0.14989   0.46066   0.45566   0.00000  Uiso   1.00
C265   C     0.13627   0.54170   0.45144   0.00000  Uiso   1.00
C266   C     0.12102   0.47415   0.05117   0.00000  Uiso   1.00
C267   C     0.17908   0.53352   0.08962   0.00000  Uiso   1.00
C268   C     0.15608   0.45905   0.40955   0.00000  Uiso   1.00
C269   C     0.14254   0.54114   0.40544   0.00000  Uiso   1.00
C270   C     0.24655   0.50012   0.24604   0.00000  Uiso   1.00
C271   C     0.12846   0.47144   0.09750   0.00000  Uiso   1.00
C272   C     0.15839   0.50092   0.11595   0.00000  Uiso   1.00
C273   C     0.15517   0.50011   0.38451   0.00000  Uiso   1.00
C274   C     0.14358   0.50443   0.02470   0.00000  Uiso   1.00
C275   C     0.14104   0.50192   0.47643   0.00000  Uiso   1.00
C276   C     0.29048   0.50080   0.23869   0.00000  Uiso   1.00
C277   C     0.04197   0.50022   0.24668   0.00000  Uiso   1.00
C278   C     0.19865   0.60761   0.10107   0.00000  Uiso   1.00
C279   C     0.13228   0.38970   0.38809   0.00000  Uiso   1.00
C280   C     0.09752   0.58848   0.37010   0.00000  Uiso   1.00
C281   C     0.16552   0.50016   0.16374   0.00000  Uiso   1.00
C282   C     0.09019   0.40422   0.10666   0.00000  Uiso   1.00
C283   C     0.03951   0.39674   0.28068   0.00000  Uiso   1.00
C284   C     0.28119   0.59488   0.19431   0.00000  Uiso   1.00
C285   C     0.28662   0.41360   0.17913   0.00000  Uiso   1.00
C286   C     0.04601   0.61251   0.22691   0.00000  Uiso   1.00
C287   C     0.16441   0.49995   0.33650   0.00000  Uiso   1.00
C288   C     0.18347   0.35715   0.28499   0.00000  Uiso   1.00
C289   C     0.15117   0.64286   0.21431   0.00000  Uiso   1.00
C290   C     0.15079   0.35756   0.21452   0.00000  Uiso   1.00
C291   C     0.18322   0.64243   0.28515   0.00000  Uiso   1.00
C292   C     0.02081   0.45883   0.23961   0.00000  Uiso   1.00
H293   H     0.19719   0.37526   0.31275   0.00000  Uiso   1.00
H294   H     0.20792   0.61823   0.06670   0.00000  Uiso   1.00
H295   H     0.16520   0.61483   0.10670   0.00000  Uiso   1.00
H296   H     0.14105   0.35755   0.37120   0.00000  Uiso   1.00
H297   H     0.10704   0.40575   0.36806   0.00000  Uiso   1.00
H298   H     0.12097   0.38043   0.42217   0.00000  Uiso   1.00
H299   H     0.08535   0.55959   0.34995   0.00000  Uiso   1.00
H300   H     0.09524   0.61958   0.34895   0.00000  Uiso   1.00
H301   H     0.07803   0.59385   0.40039   0.00000  Uiso   1.00
H302   H     0.06247   0.41153   0.08580   0.00000  Uiso   1.00
H303   H     0.11465   0.38655   0.08697   0.00000  Uiso   1.00
H304   H     0.13838   0.62478   0.18602   0.00000  Uiso   1.00
H305   H     0.08015   0.38055   0.13365   0.00000  Uiso   1.00
H306   H     0.00801   0.38336   0.28763   0.00000  Uiso   1.00
H307   H     0.06134   0.36761   0.28143   0.00000  Uiso   1.00
H308   H     0.04917   0.42041   0.30785   0.00000  Uiso   1.00
H309   H     0.26601   0.62876   0.19359   0.00000  Uiso   1.00
H310   H     0.30906   0.59667   0.17252   0.00000  Uiso   1.00
H311   H     0.25918   0.56994   0.17989   0.00000  Uiso   1.00
H312   H     0.31711   0.41126   0.16193   0.00000  Uiso   1.00
H313   H     0.26981   0.38136   0.17290   0.00000  Uiso   1.00
H314   H     0.26782   0.44176   0.16440   0.00000  Uiso   1.00
H315   H     0.13795   0.37597   0.18634   0.00000  Uiso   1.00
H316   H     0.05325   0.59568   0.19435   0.00000  Uiso   1.00
H317   H     0.07256   0.63433   0.23558   0.00000  Uiso   1.00
H318   H     0.01917   0.63579   0.22362   0.00000  Uiso   1.00
H319   H     0.19647   0.62403   0.31321   0.00000  Uiso   1.00
H320   H     0.19062   0.55612   0.02231   0.00000  Uiso   1.00
H321   H     0.15442   0.43008   0.47559   0.00000  Uiso   1.00
H322   H     0.12929   0.57364   0.46791   0.00000  Uiso   1.00
H323   H     0.09813   0.45293   0.03509   0.00000  Uiso   1.00
H324   H     0.21629   0.62883   0.12505   0.00000  Uiso   1.00
N325   N     0.16667   0.61907   0.25000   0.00000  Uiso   1.00
N326   N     0.16667   0.38093   0.25000   0.00000  Uiso   1.00
O327   O     0.10559   0.53821   0.25000   0.00000  Uiso   1.00
O328   O     0.16735   0.41819   0.39004   0.00000  Uiso   1.00
O329   O     0.13932   0.58172   0.38194   0.00000  Uiso   1.00
O330   O     0.10503   0.44446   0.12670   0.00000  Uiso   1.00
O331   O     0.04125   0.41739   0.23780   0.00000  Uiso   1.00
O332   O     0.29150   0.58419   0.23930   0.00000  Uiso   1.00
O333   O     0.29156   0.41885   0.22583   0.00000  Uiso   1.00
O334   O     0.03992   0.58146   0.26258   0.00000  Uiso   1.00
O335   O     0.22774   0.46179   0.25001   0.00000  Uiso   1.00
O336   O     0.22774   0.53821   0.25001   0.00000  Uiso   1.00
O337   O     0.10559   0.46179   0.25000   0.00000  Uiso   1.00
O338   O     0.16666   0.53822   0.18453   0.00000  Uiso   1.00
O339   O     0.16667   0.46178   0.31547   0.00000  Uiso   1.00
O340   O     0.16667   0.53822   0.31547   0.00000  Uiso   1.00
O341   O     0.16666   0.46178   0.18453   0.00000  Uiso   1.00
O342   O     0.20872   0.56142   0.10886   0.00000  Uiso   1.00
Zn343  Zn    0.16667   0.55104   0.25000   0.00000  Uiso   1.00
Zn344  Zn    0.16667   0.44896   0.25000   0.00000  Uiso   1.00
C345   C     0.41971   0.50003   0.25022   0.00000  Uiso   1.00
C346   C     0.64516   0.54265   0.24004   0.00000  Uiso   1.00
C347   C     0.64521   0.45954   0.23340   0.00000  Uiso   1.00
C348   C     0.35406   0.54222   0.24732   0.00000  Uiso   1.00
C349   C     0.50565   0.53398   0.04361   0.00000  Uiso   1.00
C350   C     0.48322   0.46066   0.45566   0.00000  Uiso   1.00
C351   C     0.46960   0.54170   0.45144   0.00000  Uiso   1.00
C352   C     0.45435   0.47415   0.05117   0.00000  Uiso   1.00
C353   C     0.51241   0.53352   0.08962   0.00000  Uiso   1.00
C354   C     0.48942   0.45905   0.40955   0.00000  Uiso   1.00
C355   C     0.47587   0.54114   0.40544   0.00000  Uiso   1.00
C356   C     0.57988   0.50012   0.24604   0.00000  Uiso   1.00
C357   C     0.46179   0.47144   0.09750   0.00000  Uiso   1.00
C358   C     0.49173   0.50092   0.11595   0.00000  Uiso   1.00
C359   C     0.48850   0.50011   0.38451   0.00000  Uiso   1.00
C360   C     0.47691   0.50443   0.02470   0.00000  Uiso   1.00
C361   C     0.47438   0.50192   0.47643   0.00000  Uiso   1.00
C362   C     0.62382   0.50080   0.23869   0.00000  Uiso   1.00
C363   C     0.37531   0.50022   0.24668   0.00000  Uiso   1.00
C364   C     0.53198   0.60761   0.10107   0.00000  Uiso   1.00
C365   C     0.46561   0.38970   0.38809   0.00000  Uiso   1.00
C366   C     0.43085   0.58848   0.37010   0.00000  Uiso   1.00
C367   C     0.49885   0.50016   0.16374   0.00000  Uiso   1.00
C368   C     0.42353   0.40422   0.10666   0.00000  Uiso   1.00
C369   C     0.37284   0.39674   0.28068   0.00000  Uiso   1.00
C370   C     0.61453   0.59488   0.19431   0.00000  Uiso   1.00
C371   C     0.61995   0.41360   0.17913   0.00000  Uiso   1.00
C372   C     0.37935   0.61251   0.22691   0.00000  Uiso   1.00
C373   C     0.49774   0.49995   0.33650   0.00000  Uiso   1.00
C374   C     0.51681   0.35715   0.28499   0.00000  Uiso   1.00
C375   C     0.48451   0.64286   0.21431   0.00000  Uiso   1.00
C376   C     0.48412   0.35756   0.21452   0.00000  Uiso   1.00
C377   C     0.51655   0.64243   0.28515   0.00000  Uiso   1.00
C378   C     0.35415   0.45883   0.23961   0.00000  Uiso   1.00
H379   H     0.53052   0.37526   0.31275   0.00000  Uiso   1.00
H380   H     0.54125   0.61823   0.06670   0.00000  Uiso   1.00
H381   H     0.49853   0.61483   0.10670   0.00000  Uiso   1.00
H382   H     0.47438   0.35755   0.37120   0.00000  Uiso   1.00
H383   H     0.44037   0.40575   0.36806   0.00000  Uiso   1.00
H384   H     0.45430   0.38043   0.42217   0.00000  Uiso   1.00
H385   H     0.41868   0.55959   0.34995   0.00000  Uiso   1.00
H386   H     0.42857   0.61958   0.34895   0.00000  Uiso   1.00
H387   H     0.41136   0.59385   0.40039   0.00000  Uiso   1.00
H388   H     0.39580   0.41153   0.08580   0.00000  Uiso   1.00
H389   H     0.44798   0.38655   0.08697   0.00000  Uiso   1.00
H390   H     0.47171   0.62478   0.18602   0.00000  Uiso   1.00
H391   H     0.41348   0.38055   0.13365   0.00000  Uiso   1.00
H392   H     0.34135   0.38336   0.28763   0.00000  Uiso   1.00
H393   H     0.39467   0.36761   0.28143   0.00000  Uiso   1.00
H394   H     0.38250   0.42041   0.30785   0.00000  Uiso   1.00
H395   H     0.59934   0.62876   0.19359   0.00000  Uiso   1.00
H396   H     0.64239   0.59667   0.17252   0.00000  Uiso   1.00
H397   H     0.59251   0.56994   0.17989   0.00000  Uiso   1.00
H398   H     0.65044   0.41126   0.16193   0.00000  Uiso   1.00
H399   H     0.60315   0.38136   0.17290   0.00000  Uiso   1.00
H400   H     0.60115   0.44176   0.16440   0.00000  Uiso   1.00
H401   H     0.47128   0.37597   0.18634   0.00000  Uiso   1.00
H402   H     0.38658   0.59568   0.19435   0.00000  Uiso   1.00
H403   H     0.40589   0.63433   0.23558   0.00000  Uiso   1.00
H404   H     0.35251   0.63579   0.22362   0.00000  Uiso   1.00
H405   H     0.52980   0.62403   0.31321   0.00000  Uiso   1.00
H406   H     0.52396   0.55612   0.02231   0.00000  Uiso   1.00
H407   H     0.48775   0.43008   0.47559   0.00000  Uiso   1.00
H408   H     0.46262   0.57364   0.46791   0.00000  Uiso   1.00
H409   H     0.43146   0.45293   0.03509   0.00000  Uiso   1.00
H410   H     0.54962   0.62883   0.12505   0.00000  Uiso   1.00
N411   N     0.50000   0.61907   0.25000   0.00000  Uiso   1.00
N412   N     0.50000   0.38093   0.25000   0.00000  Uiso   1.00
O413   O     0.43892   0.53821   0.25000   0.00000  Uiso   1.00
O414   O     0.50068   0.41819   0.39004   0.00000  Uiso   1.00
O415   O     0.47266   0.58172   0.38194   0.00000  Uiso   1.00
O416   O     0.43836   0.44446   0.12670   0.00000  Uiso   1.00
O417   O     0.37459   0.41739   0.23780   0.00000  Uiso   1.00
O418   O     0.62483   0.58419   0.23930   0.00000  Uiso   1.00
O419   O     0.62490   0.41885   0.22583   0.00000  Uiso   1.00
O420   O     0.37326   0.58146   0.26258   0.00000  Uiso   1.00
O421   O     0.56108   0.46179   0.25001   0.00000  Uiso   1.00
O422   O     0.56108   0.53821   0.25001   0.00000  Uiso   1.00
O423   O     0.43892   0.46179   0.25000   0.00000  Uiso   1.00
O424   O     0.50000   0.53822   0.18453   0.00000  Uiso   1.00
O425   O     0.50000   0.46178   0.31547   0.00000  Uiso   1.00
O426   O     0.50000   0.53822   0.31547   0.00000  Uiso   1.00
O427   O     0.50000   0.46178   0.18453   0.00000  Uiso   1.00
O428   O     0.54205   0.56142   0.10886   0.00000  Uiso   1.00
Zn429  Zn    0.50000   0.55104   0.25000   0.00000  Uiso   1.00
Zn430  Zn    0.50000   0.44896   0.25000   0.00000  Uiso   1.00
C431   C     0.75304   0.50003   0.25022   0.00000  Uiso   1.00
C432   C     0.97850   0.54265   0.24004   0.00000  Uiso   1.00
C433   C     0.97854   0.45954   0.23340   0.00000  Uiso   1.00
C434   C     0.68739   0.54222   0.24732   0.00000  Uiso   1.00
C435   C     0.83898   0.53398   0.04361   0.00000  Uiso   1.00
C436   C     0.81656   0.46066   0.45566   0.00000  Uiso   1.00
C437   C     0.80293   0.54170   0.45144   0.00000  Uiso   1.00
C438   C     0.78768   0.47415   0.05117   0.00000  Uiso   1.00
C439   C     0.84575   0.53352   0.08962   0.00000  Uiso   1.00
C440   C     0.82275   0.45905   0.40955   0.00000  Uiso   1.00
C441   C     0.80920   0.54114   0.40544   0.00000  Uiso   1.00
C442   C     0.91321   0.50012   0.24604   0.00000  Uiso   1.00
C443   C     0.79513   0.47144   0.09750   0.00000  Uiso   1.00
C444   C     0.82506   0.50092   0.11595   0.00000  Uiso   1.00
C445   C     0.82183   0.50011   0.38451   0.00000  Uiso   1.00
C446   C     0.81024   0.50443   0.02470   0.00000  Uiso   1.00
C447   C     0.80771   0.50192   0.47643   0.00000  Uiso   1.00
C448   C     0.95715   0.50080   0.23869   0.00000  Uiso   1.00
C449   C     0.70864   0.50022   0.24668   0.00000  Uiso   1.00
C450   C     0.86531   0.60761   0.10107   0.00000  Uiso   1.00
C451   C     0.79895   0.38970   0.38809   0.00000  Uiso   1.00
C452   C     0.76418   0.58848   0.37010   0.00000  Uiso   1.00
C453   C     0.83218   0.50016   0.16374   0.00000  Uiso   1.00
C454   C     0.75686   0.40422   0.10666   0.00000  Uiso   1.00
C455   C     0.70617   0.39674   0.28068   0.00000  Uiso   1.00
C456   C     0.94786   0.59488   0.19431   0.00000  Uiso   1.00
C457   C     0.95328   0.41360   0.17913   0.00000  Uiso   1.00
C458   C     0.71268   0.61251   0.22691   0.00000  Uiso   1.00
C459   C     0.83107   0.49995   0.33650   0.00000  Uiso   1.00
C460   C     0.85014   0.35715   0.28499   0.00000  Uiso   1.00
C461   C     0.81784   0.64286   0.21431   0.00000  Uiso   1.00
C462   C     0.81746   0.35756   0.21452   0.00000  Uiso   1.00
C463   C     0.84989   0.64243   0.28515   0.00000  Uiso   1.00
C464   C     0.68748   0.45883   0.23961   0.00000  Uiso   1.00
H465   H     0.86385   0.37526   0.31275   0.00000  Uiso   1.00
H466   H     0.87459   0.61823   0.06670   0.00000  Uiso   1.00
H467   H     0.83186   0.61483   0.10670   0.00000  Uiso   1.00
H468   H     0.80771   0.35755   0.37120   0.00000  Uiso   1.00
H469   H     0.77371   0.40575   0.36806   0.00000  Uiso   1.00
H470   H     0.78763   0.38043   0.42217   0.00000  Uiso   1.00
H471   H     0.75201   0.55959   0.34995   0.00000  Uiso   1.00
H472   H     0.76190   0.61958   0.34895   0.00000  Uiso   1.00
H473   H     0.74470   0.59385   0.40039   0.00000  Uiso   1.00
H474   H     0.72914   0.41153   0.08580   0.00000  Uiso   1.00
H475   H     0.78132   0.38655   0.08697   0.00000  Uiso   1.00
H476   H     0.80505   0.62478   0.18602   0.00000  Uiso   1.00
H477   H     0.74681   0.38055   0.13365   0.00000  Uiso   1.00
H478   H     0.67468   0.38336   0.28763   0.00000  Uiso   1.00
H479   H     0.72800   0.36761   0.28143   0.00000  Uiso   1.00
H480   H     0.71584   0.42041   0.30785   0.00000  Uiso   1.00
H481   H     0.93267   0.62876   0.19359   0.00000  Uiso   1.00
H482   H     0.97573   0.59667   0.17252   0.00000  Uiso   1.00
H483   H     0.92584   0.56994   0.17989   0.00000  Uiso   1.00
H484   H     0.98377   0.41126   0.16193   0.00000  Uiso   1.00
H485   H     0.93648   0.38136   0.17290   0.00000  Uiso   1.00
H486   H     0.93449   0.44176   0.16440   0.00000  Uiso   1.00
H487   H     0.80462   0.37597   0.18634   0.00000  Uiso   1.00
H488   H     0.71991   0.59568   0.19435   0.00000  Uiso   1.00
H489   H     0.73923   0.63433   0.23558   0.00000  Uiso   1.00
H490   H     0.68584   0.63579   0.22362   0.00000  Uiso   1.00
H491   H     0.86314   0.62403   0.31321   0.00000  Uiso   1.00
H492   H     0.85729   0.55612   0.02231   0.00000  Uiso   1.00
H493   H     0.82109   0.43008   0.47559   0.00000  Uiso   1.00
H494   H     0.79596   0.57364   0.46791   0.00000  Uiso   1.00
H495   H     0.76480   0.45293   0.03509   0.00000  Uiso   1.00
H496   H     0.88295   0.62883   0.12505   0.00000  Uiso   1.00
N497   N     0.83333   0.61907   0.25000   0.00000  Uiso   1.00
N498   N     0.83333   0.38093   0.25000   0.00000  Uiso   1.00
O499   O     0.77226   0.53821   0.25000   0.00000  Uiso   1.00
O500   O     0.83402   0.41819   0.39004   0.00000  Uiso   1.00
O501   O     0.80599   0.58172   0.38194   0.00000  Uiso   1.00
O502   O     0.77170   0.44446   0.12670   0.00000  Uiso   1.00
O503   O     0.70792   0.41739   0.23780   0.00000  Uiso   1.00
O504   O     0.95817   0.58419   0.23930   0.00000  Uiso   1.00
O505   O     0.95823   0.41885   0.22583   0.00000  Uiso   1.00
O506   O     0.70659   0.58146   0.26258   0.00000  Uiso   1.00
O507   O     0.89441   0.46179   0.25001   0.00000  Uiso   1.00
O508   O     0.89441   0.53821   0.25001   0.00000  Uiso   1.00
O509   O     0.77226   0.46179   0.25000   0.00000  Uiso   1.00
O510   O     0.83333   0.53822   0.18453   0.00000  Uiso   1.00
O511   O     0.83334   0.46178   0.31547   0.00000  Uiso   1.00
O512   O     0.83334   0.53822   0.31547   0.00000  Uiso   1.00
O513   O     0.83333   0.46178   0.18453   0.00000  Uiso   1.00
O514   O     0.87539   0.56142   0.10886   0.00000  Uiso   1.00
Zn515  Zn    0.83333   0.55104   0.25000   0.00000  Uiso   1.00
Zn516  Zn    0.83333   0.44896   0.25000   0.00000  Uiso   1.00
C517   C     0.08638   0.83336   0.25022   0.00000  Uiso   1.00
C518   C     0.31183   0.87598   0.24004   0.00000  Uiso   1.00
C519   C     0.31188   0.79287   0.23340   0.00000  Uiso   1.00
C520   C     0.02072   0.87556   0.24732   0.00000  Uiso   1.00
C521   C     0.17232   0.86732   0.04361   0.00000  Uiso   1.00
C522   C     0.14989   0.79400   0.45566   0.00000  Uiso   1.00
C523   C     0.13627   0.87503   0.45144   0.00000  Uiso   1.00
C524   C     0.12102   0.80748   0.05117   0.00000  Uiso   1.00
C525   C     0.17908   0.86685   0.08962   0.00000  Uiso   1.00
C526   C     0.15608   0.79238   0.40955   0.00000  Uiso   1.00
C527   C     0.14254   0.87448   0.40544   0.00000  Uiso   1.00
C528   C     0.24655   0.83345   0.24604   0.00000  Uiso   1.00
C529   C     0.12846   0.80477   0.09750   0.00000  Uiso   1.00
C530   C     0.15839   0.83425   0.11595   0.00000  Uiso   1.00
C531   C     0.15517   0.83344   0.38451   0.00000  Uiso   1.00
C532   C     0.14358   0.83776   0.02470   0.00000  Uiso   1.00
C533   C     0.14104   0.83525   0.47643   0.00000  Uiso   1.00
C534   C     0.29048   0.83414   0.23869   0.00000  Uiso   1.00
C535   C     0.04197   0.83355   0.24668   0.00000  Uiso   1.00
C536   C     0.19865   0.94094   0.10107   0.00000  Uiso   1.00
C537   C     0.13228   0.72304   0.38809   0.00000  Uiso   1.00
C538   C     0.09752   0.92181   0.37010   0.00000  Uiso   1.00
C539   C     0.16552   0.83349   0.16374   0.00000  Uiso   1.00
C540   C     0.09019   0.73755   0.10666   0.00000  Uiso   1.00
C541   C     0.03951   0.73008   0.28068   0.00000  Uiso   1.00
C542   C     0.28119   0.92822   0.19431   0.00000  Uiso   1.00
C543   C     0.28662   0.74694   0.17913   0.00000  Uiso   1.00
C544   C     0.04601   0.94584   0.22691   0.00000  Uiso   1.00
C545   C     0.16441   0.83328   0.33650   0.00000  Uiso   1.00
C546   C     0.18347   0.69049   0.28499   0.00000  Uiso   1.00
C547   C     0.15117   0.97619   0.21431   0.00000  Uiso   1.00
C548   C     0.15079   0.69089   0.21452   0.00000  Uiso   1.00
C549   C     0.18322   0.97577   0.28515   0.00000  Uiso   1.00
C550   C     0.02081   0.79217   0.23961   0.00000  Uiso   1.00
H551   H     0.19719   0.70859   0.31275   0.00000  Uiso   1.00
H552   H     0.20792   0.95157   0.06670   0.00000  Uiso   1.00
H553   H     0.16520   0.94816   0.10670   0.00000  Uiso   1.00
H554   H     0.14105   0.69089   0.37120   0.00000  Uiso   1.00
H555   H     0.10704   0.73908   0.36806   0.00000  Uiso   1.00
H556   H     0.12097   0.71377   0.42217   0.00000  Uiso   1.00
H557   H     0.08535   0.89292   0.34995   0.00000  Uiso   1.00
H558   H     0.09524   0.95291   0.34895   0.00000  Uiso   1.00
H559   H     0.07803   0.92718   0.40039   0.00000  Uiso   1.00
H560   H     0.06247   0.74487   0.08580   0.00000  Uiso   1.00
H561   H     0.11465   0.71988   0.08697   0.00000  Uiso   1.00
H562   H     0.13838   0.95811   0.18602   0.00000  Uiso   1.00
H563   H     0.08015   0.71389   0.13365   0.00000  Uiso   1.00
H564   H     0.00801   0.71669   0.28763   0.00000  Uiso   1.00
H565   H     0.06134   0.70095   0.28143   0.00000  Uiso   1.00
H566   H     0.04917   0.75375   0.30785   0.00000  Uiso   1.00
H567   H     0.26601   0.96209   0.19359   0.00000  Uiso   1.00
H568   H     0.30906   0.93001   0.17252   0.00000  Uiso   1.00
H569   H     0.25918   0.90327   0.17989   0.00000  Uiso   1.00
H570   H     0.31711   0.74459   0.16193   0.00000  Uiso   1.00
H571   H     0.26981   0.71469   0.17290   0.00000  Uiso   1.00
H572   H     0.26782   0.77509   0.16440   0.00000  Uiso   1.00
H573   H     0.13795   0.70930   0.18634   0.00000  Uiso   1.00
H574   H     0.05325   0.92902   0.19435   0.00000  Uiso   1.00
H575   H     0.07256   0.96766   0.23558   0.00000  Uiso   1.00
H576   H     0.01917   0.96912   0.22362   0.00000  Uiso   1.00
H577   H     0.19647   0.95736   0.31321   0.00000  Uiso   1.00
H578   H     0.19062   0.88946   0.02231   0.00000  Uiso   1.00
H579   H     0.15442   0.76341   0.47559   0.00000  Uiso   1.00
H580   H     0.12929   0.90697   0.46791   0.00000  Uiso   1.00
H581   H     0.09813   0.78627   0.03509   0.00000  Uiso   1.00
H582   H     0.21629   0.96216   0.12505   0.00000  Uiso   1.00
N583   N     0.16667   0.95240   0.25000   0.00000  Uiso   1.00
N584   N     0.16667   0.71427   0.25000   0.00000  Uiso   1.00
O585   O     0.10559   0.87154   0.25000   0.00000  Uiso   1.00
O586   O     0.16735   0.75153   0.39004   0.00000  Uiso   1.00
O587   O     0.13932   0.91505   0.38194   0.00000  Uiso   1.00
O588   O     0.10503   0.77780   0.12670   0.00000  Uiso   1.00
O589   O     0.04125   0.75072   0.23780   0.00000  Uiso   1.00
O590   O     0.29150   0.91752   0.23930   0.00000  Uiso   1.00
O591   O     0.29156   0.75218   0.22583   0.00000  Uiso   1.00
O592   O     0.03992   0.91479   0.26258   0.00000  Uiso   1.00
O593   O     0.22774   0.79513   0.25001   0.00000  Uiso   1.00
O594   O     0.22774   0.87154   0.25001   0.00000  Uiso   1.00
O595   O     0.10559   0.79513   0.25000   0.00000  Uiso   1.00
O596   O     0.16666   0.87155   0.18453   0.00000  Uiso   1.00
O597   O     0.16667   0.79511   0.31547   0.00000  Uiso   1.00
O598   O     0.16667   0.87155   0.31547   0.00000  Uiso   1.00
O599   O     0.16666   0.79511   0.18453   0.00000  Uiso   1.00
O600   O     0.20872   0.89475   0.10886   0.00000  Uiso   1.00
Zn601  Zn    0.16667   0.88437   0.25000   0.00000  Uiso   1.00
Zn602  Zn    0.16667   0.78229   0.25000   0.00000  Uiso   1.00
C603   C     0.41971   0.83336   0.25022   0.00000  Uiso   1.00
C604   C     0.64516   0.87598   0.24004   0.00000  Uiso   1.00
C605   C     0.64521   0.79287   0.23340   0.00000  Uiso   1.00
C606   C     0.35406   0.87556   0.24732   0.00000  Uiso   1.00
C607   C     0.50565   0.86732   0.04361   0.00000  Uiso   1.00
C608   C     0.48322   0.79400   0.45566   0.00000  Uiso   1.00
C609   C     0.46960   0.87503   0.45144   0.00000  Uiso   1.00
C610   C     0.45435   0.80748   0.05117   0.00000  Uiso   1.00
C611   C     0.51241   0.86685   0.08962   0.00000  Uiso   1.00
C612   C     0.48942   0.79238   0.40955   0.00000  Uiso   1.00
C613   C     0.47587   0.87448   0.40544   0.00000  Uiso   1.00
C614   C     0.57988   0.83345   0.24604   0.00000  Uiso   1.00
C615   C     0.46179   0.80477   0.09750   0.00000  Uiso   1.00
C616   C     0.49173   0.83425   0.11595   0.00000  Uiso   1.00
C617   C     0.48850   0.83344   0.38451   0.00000  Uiso   1.00
C618   C     0.47691   0.83776   0.02470   0.00000  Uiso   1.00
C619   C     0.47438   0.83525   0.47643   0.00000  Uiso   1.00
C620   C     0.62382   0.83414   0.23869   0.00000  Uiso   1.00
C621   C     0.37531   0.83355   0.24668   0.00000  Uiso   1.00
C622   C     0.53198   0.94094   0.10107   0.00000  Uiso   1.00
C623   C     0.46561   0.72304   0.38809   0.00000  Uiso   1.00
C624   C     0.43085   0.92181   0.37010   0.00000  Uiso   1.00
C625   C     0.49885   0.83349   0.16374   0.00000  Uiso   1.00
C626   C     0.42353   0.73755   0.10666   0.00000  Uiso   1.00
C627   C     0.37284   0.73008   0.28068   0.00000  Uiso   1.00
C628   C     0.61453   0.92822   0.19431   0.00000  Uiso   1.00
C629   C     0.61995   0.74694   0.17913   0.00000  Uiso   1.00
C630   C     0.37935   0.94584   0.22691   0.00000  Uiso   1.00
C631   C     0.49774   0.83328   0.33650   0.00000  Uiso   1.00
C632   C     0.51681   0.69049   0.28499   0.00000  Uiso   1.00
C633   C     0.48451   0.97619   0.21431   0.00000  Uiso   1.00
C634   C     0.48412   0.69089   0.21452   0.00000  Uiso   1.00
C635   C     0.51655   0.97577   0.28515   0.00000  Uiso   1.00
C636   C     0.35415   0.79217   0.23961   0.00000  Uiso   1.00
H637   H     0.53052   0.70859   0.31275   0.00000  Uiso   1.00
H638   H     0.54125   0.95157   0.06670   0.00000  Uiso   1.00
H639   H     0.49853   0.94816   0.10670   0.00000  Uiso   1.00
H640   H     0.47438   0.69089   0.37120   0.00000  Uiso   1.00
H641   H     0.44037   0.73908   0.36806   0.00000  Uiso   1.00
H642   H     0.45430   0.71377   0.42217   0.00000  Uiso   1.00
H643   H     0.41868   0.89292   0.34995   0.00000  Uiso   1.00
H644   H     0.42857   0.95291   0.34895   0.00000  Uiso   1.00
H645   H     0.41136   0.92718   0.40039   0.00000  Uiso   1.00
H646   H     0.39580   0.74487   0.08580   0.00000  Uiso   1.00
H647   H     0.44798   0.71988   0.08697   0.00000  Uiso   1.00
H648   H     0.47171   0.95811   0.18602   0.00000  Uiso   1.00
H649   H     0.41348   0.71389   0.13365   0.00000  Uiso   1.00
H650   H     0.34135   0.71669   0.28763   0.00000  Uiso   1.00
H651   H     0.39467   0.70095   0.28143   0.00000  Uiso   1.00
H652   H     0.38250   0.75375   0.30785   0.00000  Uiso   1.00
H653   H     0.59934   0.96209   0.19359   0.00000  Uiso   1.00
H654   H     0.64239   0.93001   0.17252   0.00000  Uiso   1.00
H655   H     0.59251   0.90327   0.17989   0.00000  Uiso   1.00
H656   H     0.65044   0.74459   0.16193   0.00000  Uiso   1.00
H657   H     0.60315   0.71469   0.17290   0.00000  Uiso   1.00
H658   H     0.60115   0.77509   0.16440   0.00000  Uiso   1.00
H659   H     0.47128   0.70930   0.18634   0.00000  Uiso   1.00
H660   H     0.38658   0.92902   0.19435   0.00000  Uiso   1.00
H661   H     0.40589   0.96766   0.23558   0.00000  Uiso   1.00
H662   H     0.35251   0.96912   0.22362   0.00000  Uiso   1.00
H663   H     0.52980   0.95736   0.31321   0.00000  Uiso   1.00
H664   H     0.52396   0.88946   0.02231   0.00000  Uiso   1.00
H665   H     0.48775   0.76341   0.47559   0.00000  Uiso   1.00
H666   H     0.46262   0.90697   0.46791   0.00000  Uiso   1.00
H667   H     0.43146   0.78627   0.03509   0.00000  Uiso   1.00
H668   H     0.54962   0.96216   0.12505   0.00000  Uiso   1.00
N669   N     0.50000   0.95240   0.25000   0.00000  Uiso   1.00
N670   N     0.50000   0.71427   0.25000   0.00000  Uiso   1.00
O671   O     0.43892   0.87154   0.25000   0.00000  Uiso   1.00
O672   O     0.50068   0.75153   0.39004   0.00000  Uiso   1.00
O673   O     0.47266   0.91505   0.38194   0.00000  Uiso   1.00
O674   O     0.43836   0.77780   0.12670   0.00000  Uiso   1.00
O675   O     0.37459   0.75072   0.23780   0.00000  Uiso   1.00
O676   O     0.62483   0.91752   0.23930   0.00000  Uiso   1.00
O677   O     0.62490   0.75218   0.22583   0.00000  Uiso   1.00
O678   O     0.37326   0.91479   0.26258   0.00000  Uiso   1.00
O679   O     0.56108   0.79513   0.25001   0.00000  Uiso   1.00
O680   O     0.56108   0.87154   0.25001   0.00000  Uiso   1.00
O681   O     0.43892   0.79513   0.25000   0.00000  Uiso   1.00
O682   O     0.50000   0.87155   0.18453   0.00000  Uiso   1.00
O683   O     0.50000   0.79511   0.31547   0.00000  Uiso   1.00
O684   O     0.50000   0.87155   0.31547   0.00000  Uiso   1.00
O685   O     0.50000   0.79511   0.18453   0.00000  Uiso   1.00
O686   O     0.54205   0.89475   0.10886   0.00000  Uiso   1.00
Zn687  Zn    0.50000   0.88437   0.25000   0.00000  Uiso   1.00
Zn688  Zn    0.50000   0.78229   0.25000   0.00000  Uiso   1.00
C689   C     0.75304   0.83336   0.25022   0.00000  Uiso   1.00
C690   C     0.97850   0.87598   0.24004   0.00000  Uiso   1.00
C691   C     0.97854   0.79287   0.23340   0.00000  Uiso   1.00
C692   C     0.68739   0.87556   0.24732   0.00000  Uiso   1.00
C693   C     0.83898   0.86732   0.04361   0.00000  Uiso   1.00
C694   C     0.81656   0.79400   0.45566   0.00000  Uiso   1.00
C695   C     0.80293   0.87503   0.45144   0.00000  Uiso   1.00
C696   C     0.78768   0.80748   0.05117   0.00000  Uiso   1.00
C697   C     0.84575   0.86685   0.08962   0.00000  Uiso   1.00
C698   C     0.82275   0.79238   0.40955   0.00000  Uiso   1.00
C699   C     0.80920   0.87448   0.40544   0.00000  Uiso   1.00
C700   C     0.91321   0.83345   0.24604   0.00000  Uiso   1.00
C701   C     0.79513   0.80477   0.09750   0.00000  Uiso   1.00
C702   C     0.82506   0.83425   0.11595   0.00000  Uiso   1.00
C703   C     0.82183   0.83344   0.38451   0.00000  Uiso   1.00
C704   C     0.81024   0.83776   0.02470   0.00000  Uiso   1.00
C705   C     0.80771   0.83525   0.47643   0.00000  Uiso   1.00
C706   C     0.95715   0.83414   0.23869   0.00000  Uiso   1.00
C707   C     0.70864   0.83355   0.24668   0.00000  Uiso   1.00
C708   C     0.86531   0.94094   0.10107   0.00000  Uiso   1.00
C709   C     0.79895   0.72304   0.38809   0.00000  Uiso   1.00
C710   C     0.76418   0.92181   0.37010   0.00000  Uiso   1.00
C711   C     0.83218   0.83349   0.16374   0.00000  Uiso   1.00
C712   C     0.75686   0.73755   0.10666   0.00000  Uiso   1.00
C713   C     0.70617   0.73008   0.28068   0.00000  Uiso   1.00
C714   C     0.94786   0.92822   0.19431   0.00000  Uiso   1.00
C715   C     0.95328   0.74694   0.17913   0.00000  Uiso   1.00
C716   C     0.71268   0.94584   0.22691   0.00000  Uiso   1.00
C717   C     0.83107   0.83328   0.33650   0.00000  Uiso   1.00
C718   C     0.85014   0.69049   0.28499   0.00000  Uiso   1.00
C719   C     0.81784   0.97619   0.21431   0.00000  Uiso   1.00
C720   C     0.81746   0.69089   0.21452   0.00000  Uiso   1.00
C721   C     0.84989   0.97577   0.28515   0.00000  Uiso   1.00
C722   C     0.68748   0.79217   0.23961   0.00000  Uiso   1.00
H723   H     0.86385   0.70859   0.31275   0.00000  Uiso   1.00
H724   H     0.87459   0.95157   0.06670   0.00000  Uiso   1.00
H725   H     0.83186   0.94816   0.10670   0.00000  Uiso   1.00
H726   H     0.80771   0.69089   0.37120   0.00000  Uiso   1.00
H727   H     0.77371   0.73908   0.36806   0.00000  Uiso   1.00
H728   H     0.78763   0.71377   0.42217   0.00000  Uiso   1.00
H729   H     0.75201   0.89292   0.34995   0.00000  Uiso   1.00
H730   H     0.76190   0.95291   0.34895   0.00000  Uiso   1.00
H731   H     0.74470   0.92718   0.40039   0.00000  Uiso   1.00
H732   H     0.72914   0.74487   0.08580   0.00000  Uiso   1.00
H733   H     0.78132   0.71988   0.08697   0.00000  Uiso   1.00
H734   H     0.80505   0.95811   0.18602   0.00000  Uiso   1.00
H735   H     0.74681   0.71389   0.13365   0.00000  Uiso   1.00
H736   H     0.67468   0.71669   0.28763   0.00000  Uiso   1.00
H737   H     0.72800   0.70095   0.28143   0.00000  Uiso   1.00
H738   H     0.71584   0.75375   0.30785   0.00000  Uiso   1.00
H739   H     0.93267   0.96209   0.19359   0.00000  Uiso   1.00
H740   H     0.97573   0.93001   0.17252   0.00000  Uiso   1.00
H741   H     0.92584   0.90327   0.17989   0.00000  Uiso   1.00
H742   H     0.98377   0.74459   0.16193   0.00000  Uiso   1.00
H743   H     0.93648   0.71469   0.17290   0.00000  Uiso   1.00
H744   H     0.93449   0.77509   0.16440   0.00000  Uiso   1.00
H745   H     0.80462   0.70930   0.18634   0.00000  Uiso   1.00
H746   H     0.71991   0.92902   0.19435   0.00000  Uiso   1.00
H747   H     0.73923   0.96766   0.23558   0.00000  Uiso   1.00
H748   H     0.68584   0.96912   0.22362   0.00000  Uiso   1.00
H749   H     0.86314   0.95736   0.31321   0.00000  Uiso   1.00
H750   H     0.85729   0.88946   0.02231   0.00000  Uiso   1.00
H751   H     0.82109   0.76341   0.47559   0.00000  Uiso   1.00
H752   H     0.79596   0.90697   0.46791   0.00000  Uiso   1.00
H753   H     0.76480   0.78627   0.03509   0.00000  Uiso   1.00
H754   H     0.88295   0.96216   0.12505   0.00000  Uiso   1.00
N755   N     0.83333   0.95240   0.25000   0.00000  Uiso   1.00
N756   N     0.83333   0.71427   0.25000   0.00000  Uiso   1.00
O757   O     0.77226   0.87154   0.25000   0.00000  Uiso   1.00
O758   O     0.83402   0.75153   0.39004   0.00000  Uiso   1.00
O759   O     0.80599   0.91505   0.38194   0.00000  Uiso   1.00
O760   O     0.77170   0.77780   0.12670   0.00000  Uiso   1.00
O761   O     0.70792   0.75072   0.23780   0.00000  Uiso   1.00
O762   O     0.95817   0.91752   0.23930   0.00000  Uiso   1.00
O763   O     0.95823   0.75218   0.22583   0.00000  Uiso   1.00
O764   O     0.70659   0.91479   0.26258   0.00000  Uiso   1.00
O765   O     0.89441   0.79513   0.25001   0.00000  Uiso   1.00
O766   O     0.89441   0.87154   0.25001   0.00000  Uiso   1.00
O767   O     0.77226   0.79513   0.25000   0.00000  Uiso   1.00
O768   O     0.83333   0.87155   0.18453   0.00000  Uiso   1.00
O769   O     0.83334   0.79511   0.31547   0.00000  Uiso   1.00
O770   O     0.83334   0.87155   0.31547   0.00000  Uiso   1.00
O771   O     0.83333   0.79511   0.18453   0.00000  Uiso   1.00
O772   O     0.87539   0.89475   0.10886   0.00000  Uiso   1.00
Zn773  Zn    0.83333   0.88437   0.25000   0.00000  Uiso   1.00
Zn774  Zn    0.83333   0.78229   0.25000   0.00000  Uiso   1.00
C775   C     0.08638   0.16669   0.75022   0.00000  Uiso   1.00
C776   C     0.31183   0.20931   0.74004   0.00000  Uiso   1.00
C777   C     0.31188   0.12620   0.73340   0.00000  Uiso   1.00
C778   C     0.02072   0.20889   0.74732   0.00000  Uiso   1.00
C779   C     0.17232   0.20065   0.54361   0.00000  Uiso   1.00
C780   C     0.14989   0.12733   0.95566   0.00000  Uiso   1.00
C781   C     0.13627   0.20837   0.95144   0.00000  Uiso   1.00
C782   C     0.12102   0.14082   0.55117   0.00000  Uiso   1.00
C783   C     0.17908   0.20019   0.58962   0.00000  Uiso   1.00
C784   C     0.15608   0.12571   0.90955   0.00000  Uiso   1.00
C785   C     0.14254   0.20781   0.90544   0.00000  Uiso   1.00
C786   C     0.24655   0.16678   0.74604   0.00000  Uiso   1.00
C787   C     0.12846   0.13811   0.59750   0.00000  Uiso   1.00
C788   C     0.15839   0.16758   0.61595   0.00000  Uiso   1.00
C789   C     0.15517   0.16678   0.88451   0.00000  Uiso   1.00
C790   C     0.14358   0.17110   0.52470   0.00000  Uiso   1.00
C791   C     0.14104   0.16858   0.97643   0.00000  Uiso   1.00
C792   C     0.29048   0.16747   0.73869   0.00000  Uiso   1.00
C793   C     0.04197   0.16689   0.74668   0.00000  Uiso   1.00
C794   C     0.19865   0.27428   0.60107   0.00000  Uiso   1.00
C795   C     0.13228   0.05637   0.88809   0.00000  Uiso   1.00
C796   C     0.09752   0.25514   0.87010   0.00000  Uiso   1.00
C797   C     0.16552   0.16682   0.66374   0.00000  Uiso   1.00
C798   C     0.09019   0.07088   0.60666   0.00000  Uiso   1.00
C799   C     0.03951   0.06341   0.78068   0.00000  Uiso   1.00
C800   C     0.28119   0.26155   0.69431   0.00000  Uiso   1.00
C801   C     0.28662   0.08027   0.67913   0.00000  Uiso   1.00
C802   C     0.04601   0.27917   0.72691   0.00000  Uiso   1.00
C803   C     0.16441   0.16661   0.83650   0.00000  Uiso   1.00
C804   C     0.18347   0.02382   0.78499   0.00000  Uiso   1.00
C805   C     0.15117   0.30953   0.71431   0.00000  Uiso   1.00
C806   C     0.15079   0.02422   0.71452   0.00000  Uiso   1.00
C807   C     0.18322   0.30910   0.78515   0.00000  Uiso   1.00
C808   C     0.02081   0.12550   0.73961   0.00000  Uiso   1.00
H809   H     0.19719   0.04192   0.81275   0.00000  Uiso   1.00
H810   H     0.20792   0.28490   0.56670   0.00000  Uiso   1.00
H811   H     0.16520   0.28150   0.60670   0.00000  Uiso   1.00
H812   H     0.14105   0.02422   0.87120   0.00000  Uiso   1.00
H813   H     0.10704   0.07242   0.86806   0.00000  Uiso   1.00
H814   H     0.12097   0.04710   0.92217   0.00000  Uiso   1.00
H815   H     0.08535   0.22626   0.84995   0.00000  Uiso   1.00
H816   H     0.09524   0.28625   0.84895   0.00000  Uiso   1.00
H817   H     0.07803   0.26051   0.90039   0.00000  Uiso   1.00
H818   H     0.06247   0.07820   0.58580   0.00000  Uiso   1.00
H819   H     0.11465   0.05321   0.58697   0.00000  Uiso   1.00
H820   H     0.13838   0.29145   0.68602   0.00000  Uiso   1.00
H821   H     0.08015   0.04722   0.63365   0.00000  Uiso   1.00
H822   H     0.00801   0.05003   0.78763   0.00000  Uiso   1.00
H823   H     0.06134   0.03428   0.78143   0.00000  Uiso   1.00
H824   H     0.04917   0.08708   0.80785   0.00000  Uiso   1.00
H825   H     0.26601   0.29543   0.69359   0.00000  Uiso   1.00
H826   H     0.30906   0.26334   0.67252   0.00000  Uiso   1.00
H827   H     0.25918   0.23661   0.67989   0.00000  Uiso   1.00
H828   H     0.31711   0.07793   0.66193   0.00000  Uiso   1.00
H829   H     0.26981   0.04802   0.67290   0.00000  Uiso   1.00
H830   H     0.26782   0.10843   0.66440   0.00000  Uiso   1.00
H831   H     0.13795   0.04263   0.68634   0.00000  Uiso   1.00
H832   H     0.05325   0.26235   0.69435   0.00000  Uiso   1.00
H833   H     0.07256   0.30099   0.73558   0.00000  Uiso   1.00
H834   H     0.01917   0.30245   0.72362   0.00000  Uiso   1.00
H835   H     0.19647   0.29070   0.81321   0.00000  Uiso   1.00
H836   H     0.19062   0.22279   0.52231   0.00000  Uiso   1.00
H837   H     0.15442   0.09675   0.97559   0.00000  Uiso   1.00
H838   H     0.12929   0.24030   0.96791   0.00000  Uiso   1.00
H839   H     0.09813   0.11960   0.53509   0.00000  Uiso   1.00
H840   H     0.21629   0.29549   0.62505   0.00000  Uiso   1.00
N841   N     0.16667   0.28573   0.75000   0.00000  Uiso   1.00
N842   N     0.16667   0.04760   0.75000   0.00000  Uiso   1.00
O843   O     0.10559   0.20487   0.75000   0.00000  Uiso   1.00
O844   O     0.16735   0.08486   0.89004   0.00000  Uiso   1.00
O845   O     0.13932   0.24839   0.88194   0.00000  Uiso   1.00
O846   O     0.10503   0.11113   0.62670   0.00000  Uiso   1.00
O847   O     0.04125   0.08405   0.73780   0.00000  Uiso   1.00
O848   O     0.29150   0.25085   0.73930   0.00000  Uiso   1.00
O849   O     0.29156   0.08552   0.72583   0.00000  Uiso   1.00
O850   O     0.03992   0.24813   0.76258   0.00000  Uiso   1.00
O851   O     0.22774   0.12846   0.75001   0.00000  Uiso   1.00
O852   O     0.22774   0.20487   0.75001   0.00000  Uiso   1.00
O853   O     0.10559   0.12846   0.75000   0.00000  Uiso   1.00
O854   O     0.16666   0.20489   0.68453   0.00000  Uiso   1.00
O855   O     0.16667   0.12845   0.81547   0.00000  Uiso   1.00
O856   O     0.16667   0.20489   0.81547   0.00000  Uiso   1.00
O857   O     0.16666   0.12845   0.68453   0.00000  Uiso   1.00
O858   O     0.20872   0.22809   0.60886   0.00000  Uiso   1.00
Zn859  Zn    0.16667   0.21771   0.75000   0.00000  Uiso   1.00
Zn860  Zn    0.16667   0.11563   0.75000   0.00000  Uiso   1.00
C861   C     0.41971   0.16669   0.75022   0.00000  Uiso   1.00
C862   C     0.64516   0.20931   0.74004   0.00000  Uiso   1.00
C863   C     0.64521   0.12620   0.73340   0.00000  Uiso   1.00
C864   C     0.35406   0.20889   0.74732   0.00000  Uiso   1.00
C865   C     0.50565   0.20065   0.54361   0.00000  Uiso   1.00
C866   C     0.48322   0.12733   0.95566   0.00000  Uiso   1.00
C867   C     0.46960   0.20837   0.95144   0.00000  Uiso   1.00
C868   C     0.45435   0.14082   0.55117   0.00000  Uiso   1.00
C869   C     0.51241   0.20019   0.58962   0.00000  Uiso   1.00
C870   C     0.48942   0.12571   0.90955   0.00000  Uiso   1.00
C871   C     0.47587   0.20781   0.90544   0.00000  Uiso   1.00
C872   C     0.57988   0.16678   0.74604   0.00000  Uiso   1.00
C873   C     0.46179   0.13811   0.59750   0.00000  Uiso   1.00
C874   C     0.49173   0.16758   0.61595   0.00000  Uiso   1.00
C875   C     0.48850   0.16678   0.88451   0.00000  Uiso   1.00
C876   C     0.47691   0.17110   0.52470   0.00000  Uiso   1.00
C877   C     0.47438   0.16858   0.97643   0.00000  Uiso   1.00
C878   C     0.62382   0.16747   0.73869   0.00000  Uiso   1.00
C879   C     0.37531   0.16689   0.74668   0.00000  Uiso   1.00
C880   C     0.53198   0.27428   0.60107   0.00000  Uiso   1.00
C881   C     0.46561   0.05637   0.88809   0.00000  Uiso   1.00
C882   C     0.43085   0.25514   0.87010   0.00000  Uiso   1.00
C883   C     0.49885   0.16682   0.66374   0.00000  Uiso   1.00
C884   C     0.42353   0.07088   0.60666   0.00000  Uiso   1.00
C885   C     0.37284   0.06341   0.78068   0.00000  Uiso   1.00
C886   C     0.61453   0.26155   0.69431   0.00000  Uiso   1.00
C887   C     0.61995   0.08027   0.67913   0.00000  Uiso   1.00
C888   C     0.37935   0.27917   0.72691   0.00000  Uiso   1.00
C889   C     0.49774   0.16661   0.83650   0.00000  Uiso   1.00
C890   C     0.51681   0.02382   0.78499   0.00000  Uiso   1.00
C891   C     0.48451   0.30953   0.71431   0.00000  Uiso   1.00
C892   C     0.48412   0.02422   0.71452   0.00000  Uiso   1.00
C893   C     0.51655   0.30910   0.78515   0.00000  Uiso   1.00
C894   C     0.35415   0.12550   0.73961   0.00000  Uiso   1.00
H895   H     0.53052   0.04192   0.81275   0.00000  Uiso   1.00
H896   H     0.54125   0.28490   0.56670   0.00000  Uiso   1.00
H897   H     0.49853   0.28150   0.60670   0.00000  Uiso   1.00
H898   H     0.47438   0.02422   0.87120   0.00000  Uiso   1.00
H899   H     0.44037   0.07242   0.86806   0.00000  Uiso   1.00
H900   H     0.45430   0.04710   0.92217   0.00000  Uiso   1.00
H901   H     0.41868   0.22626   0.84995   0.00000  Uiso   1.00
H902   H     0.42857   0.28625   0.84895   0.00000  Uiso   1.00
H903   H     0.41136   0.26051   0.90039   0.00000  Uiso   1.00
H904   H     0.39580   0.07820   0.58580   0.00000  Uiso   1.00
H905   H     0.44798   0.05321   0.58697   0.00000  Uiso   1.00
H906   H     0.47171   0.29145   0.68602   0.00000  Uiso   1.00
H907   H     0.41348   0.04722   0.63365   0.00000  Uiso   1.00
H908   H     0.34135   0.05003   0.78763   0.00000  Uiso   1.00
H909   H     0.39467   0.03428   0.78143   0.00000  Uiso   1.00
H910   H     0.38250   0.08708   0.80785   0.00000  Uiso   1.00
H911   H     0.59934   0.29543   0.69359   0.00000  Uiso   1.00
H912   H     0.64239   0.26334   0.67252   0.00000  Uiso   1.00
H913   H     0.59251   0.23661   0.67989   0.00000  Uiso   1.00
H914   H     0.65044   0.07793   0.66193   0.00000  Uiso   1.00
H915   H     0.60315   0.04802   0.67290   0.00000  Uiso   1.00
H916   H     0.60115   0.10843   0.66440   0.00000  Uiso   1.00
H917   H     0.47128   0.04263   0.68634   0.00000  Uiso   1.00
H918   H     0.38658   0.26235   0.69435   0.00000  Uiso   1.00
H919   H     0.40589   0.30099   0.73558   0.00000  Uiso   1.00
H920   H     0.35251   0.30245   0.72362   0.00000  Uiso   1.00
H921   H     0.52980   0.29070   0.81321   0.00000  Uiso   1.00
H922   H     0.52396   0.22279   0.52231   0.00000  Uiso   1.00
H923   H     0.48775   0.09675   0.97559   0.00000  Uiso   1.00
H924   H     0.46262   0.24030   0.96791   0.00000  Uiso   1.00
H925   H     0.43146   0.11960   0.53509   0.00000  Uiso   1.00
H926   H     0.54962   0.29549   0.62505   0.00000  Uiso   1.00
N927   N     0.50000   0.28573   0.75000   0.00000  Uiso   1.00
N928   N     0.50000   0.04760   0.75000   0.00000  Uiso   1.00
O929   O     0.43892   0.20487   0.75000   0.00000  Uiso   1.00
O930   O     0.50068   0.08486   0.89004   0.00000  Uiso   1.00
O931   O     0.47266   0.24839   0.88194   0.00000  Uiso   1.00
O932   O     0.43836   0.11113   0.62670   0.00000  Uiso   1.00
O933   O     0.37459   0.08405   0.73780   0.00000  Uiso   1.00
O934   O     0.62483   0.25085   0.73930   0.00000  Uiso   1.00
O935   O     0.62490   0.08552   0.72583   0.00000  Uiso   1.00
O936   O     0.37326   0.24813   0.76258   0.00000  Uiso   1.00
O937   O     0.56108   0.12846   0.75001   0.00000  Uiso   1.00
O938   O     0.56108   0.20487   0.75001   0.00000  Uiso   1.00
O939   O     0.43892   0.12846   0.75000   0.00000  Uiso   1.00
O940   O     0.50000   0.20489   0.68453   0.00000  Uiso   1.00
O941   O     0.50000   0.12845   0.81547   0.00000  Uiso   1.00
O942   O     0.50000   0.20489   0.81547   0.00000  Uiso   1.00
O943   O     0.50000   0.12845   0.68453   0.00000  Uiso   1.00
O944   O     0.54205   0.22809   0.60886   0.00000  Uiso   1.00
Zn945  Zn    0.50000   0.21771   0.75000   0.00000  Uiso   1.00
Zn946  Zn    0.50000   0.11563   0.75000   0.00000  Uiso   1.00
C947   C     0.75304   0.16669   0.75022   0.00000  Uiso   1.00
C948   C     0.97850   0.20931   0.74004   0.00000  Uiso   1.00
C949   C     0.97854   0.12620   0.73340   0.00000  Uiso   1.00
C950   C     0.68739   0.20889   0.74732   0.00000  Uiso   1.00
C951   C     0.83898   0.20065   0.54361   0.00000  Uiso   1.00
C952   C     0.81656   0.12733   0.95566   0.00000  Uiso   1.00
C953   C     0.80293   0.20837   0.95144   0.00000  Uiso   1.00
C954   C     0.78768   0.14082   0.55117   0.00000  Uiso   1.00
C955   C     0.84575   0.20019   0.58962   0.00000  Uiso   1.00
C956   C     0.82275   0.12571   0.90955   0.00000  Uiso   1.00
C957   C     0.80920   0.20781   0.90544   0.00000  Uiso   1.00
C958   C     0.91321   0.16678   0.74604   0.00000  Uiso   1.00
C959   C     0.79513   0.13811   0.59750   0.00000  Uiso   1.00
C960   C     0.82506   0.16758   0.61595   0.00000  Uiso   1.00
C961   C     0.82183   0.16678   0.88451   0.00000  Uiso   1.00
C962   C     0.81024   0.17110   0.52470   0.00000  Uiso   1.00
C963   C     0.80771   0.16858   0.97643   0.00000  Uiso   1.00
C964   C     0.95715   0.16747   0.73869   0.00000  Uiso   1.00
C965   C     0.70864   0.16689   0.74668   0.00000  Uiso   1.00
C966   C     0.86531   0.27428   0.60107   0.00000  Uiso   1.00
C967   C     0.79895   0.05637   0.88809   0.00000  Uiso   1.00
C968   C     0.76418   0.25514   0.87010   0.00000  Uiso   1.00
C969   C     0.83218   0.16682   0.66374   0.00000  Uiso   1.00
C970   C     0.75686   0.07088   0.60666   0.00000  Uiso   1.00
C971   C     0.70617   0.06341   0.78068   0.00000  Uiso   1.00
C972   C     0.94786   0.26155   0.69431   0.00000  Uiso   1.00
C973   C     0.95328   0.08027   0.67913   0.00000  Uiso   1.00
C974   C     0.71268   0.27917   0.72691   0.00000  Uiso   1.00
C975   C     0.83107   0.16661   0.83650   0.00000  Uiso   1.00
C976   C     0.85014   0.02382   0.78499   0.00000  Uiso   1.00
C977   C     0.81784   0.30953   0.71431   0.00000  Uiso   1.00
C978   C     0.81746   0.02422   0.71452   0.00000  Uiso   1.00
C979   C     0.84989   0.30910   0.78515   0.00000  Uiso   1.00
C980   C     0.68748   0.12550   0.73961   0.00000  Uiso   1.00
H981   H     0.86385   0.04192   0.81275   0.00000  Uiso   1.00
H982   H     0.87459   0.28490   0.56670   0.00000  Uiso   1.00
H983   H     0.83186   0.28150   0.60670   0.00000  Uiso   1.00
H984   H     0.80771   0.02422   0.87120   0.00000  Uiso   1.00
H985   H     0.77371   0.07242   0.86806   0.00000  Uiso   1.00
H986   H     0.78763   0.04710   0.92217   0.00000  Uiso   1.00
H987   H     0.75201   0.22626   0.84995   0.00000  Uiso   1.00
H988   H     0.76190   0.28625   0.84895   0.00000  Uiso   1.00
H989   H     0.74470   0.26051   0.90039   0.00000  Uiso   1.00
H990   H     0.72914   0.07820   0.58580   0.00000  Uiso   1.00
H991   H     0.78132   0.05321   0.58697   0.00000  Uiso   1.00
H992   H     0.80505   0.29145   0.68602   0.00000  Uiso   1.00
H993   H     0.74681   0.04722   0.63365   0.00000  Uiso   1.00
H994   H     0.67468   0.05003   0.78763   0.00000  Uiso   1.00
H995   H     0.72800   0.03428   0.78143   0.00000  Uiso   1.00
H996   H     0.71584   0.08708   0.80785   0.00000  Uiso   1.00
H997   H     0.93267   0.29543   0.69359   0.00000  Uiso   1.00
H998   H     0.97573   0.26334   0.67252   0.00000  Uiso   1.00
H999   H     0.92584   0.23661   0.67989   0.00000  Uiso   1.00
H1000  H     0.98377   0.07793   0.66193   0.00000  Uiso   1.00
H1001  H     0.93648   0.04802   0.67290   0.00000  Uiso   1.00
H1002  H     0.93449   0.10843   0.66440   0.00000  Uiso   1.00
H1003  H     0.80462   0.04263   0.68634   0.00000  Uiso   1.00
H1004  H     0.71991   0.26235   0.69435   0.00000  Uiso   1.00
H1005  H     0.73923   0.30099   0.73558   0.00000  Uiso   1.00
H1006  H     0.68584   0.30245   0.72362   0.00000  Uiso   1.00
H1007  H     0.86314   0.29070   0.81321   0.00000  Uiso   1.00
H1008  H     0.85729   0.22279   0.52231   0.00000  Uiso   1.00
H1009  H     0.82109   0.09675   0.97559   0.00000  Uiso   1.00
H1010  H     0.79596   0.24030   0.96791   0.00000  Uiso   1.00
H1011  H     0.76480   0.11960   0.53509   0.00000  Uiso   1.00
H1012  H     0.88295   0.29549   0.62505   0.00000  Uiso   1.00
N1013  N     0.83333   0.28573   0.75000   0.00000  Uiso   1.00
N1014  N     0.83333   0.04760   0.75000   0.00000  Uiso   1.00
O1015  O     0.77226   0.20487   0.75000   0.00000  Uiso   1.00
O1016  O     0.83402   0.08486   0.89004   0.00000  Uiso   1.00
O1017  O     0.80599   0.24839   0.88194   0.00000  Uiso   1.00
O1018  O     0.77170   0.11113   0.62670   0.00000  Uiso   1.00
O1019  O     0.70792   0.08405   0.73780   0.00000  Uiso   1.00
O1020  O     0.95817   0.25085   0.73930   0.00000  Uiso   1.00
O1021  O     0.95823   0.08552   0.72583   0.00000  Uiso   1.00
O1022  O     0.70659   0.24813   0.76258   0.00000  Uiso   1.00
O1023  O     0.89441   0.12846   0.75001   0.00000  Uiso   1.00
O1024  O     0.89441   0.20487   0.75001   0.00000  Uiso   1.00
O1025  O     0.77226   0.12846   0.75000   0.00000  Uiso   1.00
O1026  O     0.83333   0.20489   0.68453   0.00000  Uiso   1.00
O1027  O     0.83334   0.12845   0.81547   0.00000  Uiso   1.00
O1028  O     0.83334   0.20489   0.81547   0.00000  Uiso   1.00
O1029  O     0.83333   0.12845   0.68453   0.00000  Uiso   1.00
O1030  O     0.87539   0.22809   0.60886   0.00000  Uiso   1.00
Zn1031 Zn    0.83333   0.21771   0.75000   0.00000  Uiso   1.00
Zn1032 Zn    0.83333   0.11563   0.75000   0.00000  Uiso   1.00
C1033  C     0.08638   0.50003   0.75022   0.00000  Uiso   1.00
C1034  C     0.31183   0.54265   0.74004   0.00000  Uiso   1.00
C1035  C     0.31188   0.45954   0.73340   0.00000  Uiso   1.00
C1036  C     0.02072   0.54222   0.74732   0.00000  Uiso   1.00
C1037  C     0.17232   0.53398   0.54361   0.00000  Uiso   1.00
C1038  C     0.14989   0.46066   0.95566   0.00000  Uiso   1.00
C1039  C     0.13627   0.54170   0.95144   0.00000  Uiso   1.00
C1040  C     0.12102   0.47415   0.55117   0.00000  Uiso   1.00
C1041  C     0.17908   0.53352   0.58962   0.00000  Uiso   1.00
C1042  C     0.15608   0.45905   0.90955   0.00000  Uiso   1.00
C1043  C     0.14254   0.54114   0.90544   0.00000  Uiso   1.00
C1044  C     0.24655   0.50012   0.74604   0.00000  Uiso   1.00
C1045  C     0.12846   0.47144   0.59750   0.00000  Uiso   1.00
C1046  C     0.15839   0.50092   0.61595   0.00000  Uiso   1.00
C1047  C     0.15517   0.50011   0.88451   0.00000  Uiso   1.00
C1048  C     0.14358   0.50443   0.52470   0.00000  Uiso   1.00
C1049  C     0.14104   0.50192   0.97643   0.00000  Uiso   1.00
C1050  C     0.29048   0.50080   0.73869   0.00000  Uiso   1.00
C1051  C     0.04197   0.50022   0.74668   0.00000  Uiso   1.00
C1052  C     0.19865   0.60761   0.60107   0.00000  Uiso   1.00
C1053  C     0.13228   0.38970   0.88809   0.00000  Uiso   1.00
C1054  C     0.09752   0.58848   0.87010   0.00000  Uiso   1.00
C1055  C     0.16552   0.50016   0.66374   0.00000  Uiso   1.00
C1056  C     0.09019   0.40422   0.60666   0.00000  Uiso   1.00
C1057  C     0.03951   0.39674   0.78068   0.00000  Uiso   1.00
C1058  C     0.28119   0.59488   0.69431   0.00000  Uiso   1.00
C1059  C     0.28662   0.41360   0.67913   0.00000  Uiso   1.00
C1060  C     0.04601   0.61251   0.72691   0.00000  Uiso   1.00
C1061  C     0.16441   0.49995   0.83650   0.00000  Uiso   1.00
C1062  C     0.18347   0.35715   0.78499   0.00000  Uiso   1.00
C1063  C     0.15117   0.64286   0.71431   0.00000  Uiso   1.00
C1064  C     0.15079   0.35756   0.71452   0.00000  Uiso   1.00
C1065  C     0.18322   0.64243   0.78515   0.00000  Uiso   1.00
C1066  C     0.02081   0.45883   0.73961   0.00000  Uiso   1.00
H1067  H     0.19719   0.37526   0.81275   0.00000  Uiso   1.00
H1068  H     0.20792   0.61823   0.56670   0.00000  Uiso   1.00
H1069  H     0.16520   0.61483   0.60670   0.00000  Uiso   1.00
H1070  H     0.14105   0.35755   0.87120   0.00000  Uiso   1.00
H1071  H     0.10704   0.40575   0.86806   0.00000  Uiso   1.00
H1072  H     0.12097   0.38043   0.92217   0.00000  Uiso   1.00
H1073  H     0.08535   0.55959   0.84995   0.00000  Uiso   1.00
H1074  H     0.09524   0.61958   0.84895   0.00000  Uiso   1.00
H1075  H     0.07803   0.59385   0.90039   0.00000  Uiso   1.00
H1076  H     0.06247   0.41153   0.58580   0.00000  Uiso   1.00
H1077  H     0.11465   0.38655   0.58697   0.00000  Uiso   1.00
H1078  H     0.13838   0.62478   0.68602   0.00000  Uiso   1.00
H1079  H     0.08015   0.38055   0.63365   0.00000  Uiso   1.00
H1080  H     0.00801   0.38336   0.78763   0.00000  Uiso   1.00
H1081  H     0.06134   0.36761   0.78143   0.00000  Uiso   1.00
H1082  H     0.04917   0.42041   0.80785   0.00000  Uiso   1.00
H1083  H     0.26601   0.62876   0.69359   0.00000  Uiso   1.00
H1084  H     0.30906   0.59667   0.67252   0.00000  Uiso   1.00
H1085  H     0.25918   0.56994   0.67989   0.00000  Uiso   1.00
H1086  H     0.31711   0.41126   0.66193   0.00000  Uiso   1.00
H1087  H     0.26981   0.38136   0.67290   0.00000  Uiso   1.00
H1088  H     0.26782   0.44176   0.66440   0.00000  Uiso   1.00
H1089  H     0.13795   0.37597   0.68634   0.00000  Uiso   1.00
H1090  H     0.05325   0.59568   0.69435   0.00000  Uiso   1.00
H1091  H     0.07256   0.63433   0.73558   0.00000  Uiso   1.00
H1092  H     0.01917   0.63579   0.72362   0.00000  Uiso   1.00
H1093  H     0.19647   0.62403   0.81321   0.00000  Uiso   1.00
H1094  H     0.19062   0.55612   0.52231   0.00000  Uiso   1.00
H1095  H     0.15442   0.43008   0.97559   0.00000  Uiso   1.00
H1096  H     0.12929   0.57364   0.96791   0.00000  Uiso   1.00
H1097  H     0.09813   0.45293   0.53509   0.00000  Uiso   1.00
H1098  H     0.21629   0.62883   0.62505   0.00000  Uiso   1.00
N1099  N     0.16667   0.61907   0.75000   0.00000  Uiso   1.00
N1100  N     0.16667   0.38093   0.75000   0.00000  Uiso   1.00
O1101  O     0.10559   0.53821   0.75000   0.00000  Uiso   1.00
O1102  O     0.16735   0.41819   0.89004   0.00000  Uiso   1.00
O1103  O     0.13932   0.58172   0.88194   0.00000  Uiso   1.00
O1104  O     0.10503   0.44446   0.62670   0.00000  Uiso   1.00
O1105  O     0.04125   0.41739   0.73780   0.00000  Uiso   1.00
O1106  O     0.29150   0.58419   0.73930   0.00000  Uiso   1.00
O1107  O     0.29156   0.41885   0.72583   0.00000  Uiso   1.00
O1108  O     0.03992   0.58146   0.76258   0.00000  Uiso   1.00
O1109  O     0.22774   0.46179   0.75001   0.00000  Uiso   1.00
O1110  O     0.22774   0.53821   0.75001   0.00000  Uiso   1.00
O1111  O     0.10559   0.46179   0.75000   0.00000  Uiso   1.00
O1112  O     0.16666   0.53822   0.68453   0.00000  Uiso   1.00
O1113  O     0.16667   0.46178   0.81547   0.00000  Uiso   1.00
O1114  O     0.16667   0.53822   0.81547   0.00000  Uiso   1.00
O1115  O     0.16666   0.46178   0.68453   0.00000  Uiso   1.00
O1116  O     0.20872   0.56142   0.60886   0.00000  Uiso   1.00
Zn1117 Zn    0.16667   0.55104   0.75000   0.00000  Uiso   1.00
Zn1118 Zn    0.16667   0.44896   0.75000   0.00000  Uiso   1.00
C1119  C     0.41971   0.50003   0.75022   0.00000  Uiso   1.00
C1120  C     0.64516   0.54265   0.74004   0.00000  Uiso   1.00
C1121  C     0.64521   0.45954   0.73340   0.00000  Uiso   1.00
C1122  C     0.35406   0.54222   0.74732   0.00000  Uiso   1.00
C1123  C     0.50565   0.53398   0.54361   0.00000  Uiso   1.00
C1124  C     0.48322   0.46066   0.95566   0.00000  Uiso   1.00
C1125  C     0.46960   0.54170   0.95144   0.00000  Uiso   1.00
C1126  C     0.45435   0.47415   0.55117   0.00000  Uiso   1.00
C1127  C     0.51241   0.53352   0.58962   0.00000  Uiso   1.00
C1128  C     0.48942   0.45905   0.90955   0.00000  Uiso   1.00
C1129  C     0.47587   0.54114   0.90544   0.00000  Uiso   1.00
C1130  C     0.57988   0.50012   0.74604   0.00000  Uiso   1.00
C1131  C     0.46179   0.47144   0.59750   0.00000  Uiso   1.00
C1132  C     0.49173   0.50092   0.61595   0.00000  Uiso   1.00
C1133  C     0.48850   0.50011   0.88451   0.00000  Uiso   1.00
C1134  C     0.47691   0.50443   0.52470   0.00000  Uiso   1.00
C1135  C     0.47438   0.50192   0.97643   0.00000  Uiso   1.00
C1136  C     0.62382   0.50080   0.73869   0.00000  Uiso   1.00
C1137  C     0.37531   0.50022   0.74668   0.00000  Uiso   1.00
C1138  C     0.53198   0.60761   0.60107   0.00000  Uiso   1.00
C1139  C     0.46561   0.38970   0.88809   0.00000  Uiso   1.00
C1140  C     0.43085   0.58848   0.87010   0.00000  Uiso   1.00
C1141  C     0.49885   0.50016   0.66374   0.00000  Uiso   1.00
C1142  C     0.42353   0.40422   0.60666   0.00000  Uiso   1.00
C1143  C     0.37284   0.39674   0.78068   0.00000  Uiso   1.00
C1144  C     0.61453   0.59488   0.69431   0.00000  Uiso   1.00
C1145  C     0.61995   0.41360   0.67913   0.00000  Uiso   1.00
C1146  C     0.37935   0.61251   0.72691   0.00000  Uiso   1.00
C1147  C     0.49774   0.49995   0.83650   0.00000  Uiso   1.00
C1148  C     0.51681   0.35715   0.78499   0.00000  Uiso   1.00
C1149  C     0.48451   0.64286   0.71431   0.00000  Uiso   1.00
C1150  C     0.48412   0.35756   0.71452   0.00000  Uiso   1.00
C1151  C     0.51655   0.64243   0.78515   0.00000  Uiso   1.00
C1152  C     0.35415   0.45883   0.73961   0.00000  Uiso   1.00
H1153  H     0.53052   0.37526   0.81275   0.00000  Uiso   1.00
H1154  H     0.54125   0.61823   0.56670   0.00000  Uiso   1.00
H1155  H     0.49853   0.61483   0.60670   0.00000  Uiso   1.00
H1156  H     0.47438   0.35755   0.87120   0.00000  Uiso   1.00
H1157  H     0.44037   0.40575   0.86806   0.00000  Uiso   1.00
H1158  H     0.45430   0.38043   0.92217   0.00000  Uiso   1.00
H1159  H     0.41868   0.55959   0.84995   0.00000  Uiso   1.00
H1160  H     0.42857   0.61958   0.84895   0.00000  Uiso   1.00
H1161  H     0.41136   0.59385   0.90039   0.00000  Uiso   1.00
H1162  H     0.39580   0.41153   0.58580   0.00000  Uiso   1.00
H1163  H     0.44798   0.38655   0.58697   0.00000  Uiso   1.00
H1164  H     0.47171   0.62478   0.68602   0.00000  Uiso   1.00
H1165  H     0.41348   0.38055   0.63365   0.00000  Uiso   1.00
H1166  H     0.34135   0.38336   0.78763   0.00000  Uiso   1.00
H1167  H     0.39467   0.36761   0.78143   0.00000  Uiso   1.00
H1168  H     0.38250   0.42041   0.80785   0.00000  Uiso   1.00
H1169  H     0.59934   0.62876   0.69359   0.00000  Uiso   1.00
H1170  H     0.64239   0.59667   0.67252   0.00000  Uiso   1.00
H1171  H     0.59251   0.56994   0.67989   0.00000  Uiso   1.00
H1172  H     0.65044   0.41126   0.66193   0.00000  Uiso   1.00
H1173  H     0.60315   0.38136   0.67290   0.00000  Uiso   1.00
H1174  H     0.60115   0.44176   0.66440   0.00000  Uiso   1.00
H1175  H     0.47128   0.37597   0.68634   0.00000  Uiso   1.00
H1176  H     0.38658   0.59568   0.69435   0.00000  Uiso   1.00
H1177  H     0.40589   0.63433   0.73558   0.00000  Uiso   1.00
H1178  H     0.35251   0.63579   0.72362   0.00000  Uiso   1.00
H1179  H     0.52980   0.62403   0.81321   0.00000  Uiso   1.00
H1180  H     0.52396   0.55612   0.52231   0.00000  Uiso   1.00
H1181  H     0.48775   0.43008   0.97559   0.00000  Uiso   1.00
H1182  H     0.46262   0.57364   0.96791   0.00000  Uiso   1.00
H1183  H     0.43146   0.45293   0.53509   0.00000  Uiso   1.00
H1184  H     0.54962   0.62883   0.62505   0.00000  Uiso   1.00
N1185  N     0.50000   0.61907   0.75000   0.00000  Uiso   1.00
N1186  N     0.50000   0.38093   0.75000   0.00000  Uiso   1.00
O1187  O     0.43892   0.53821   0.75000   0.00000  Uiso   1.00
O1188  O     0.50068   0.41819   0.89004   0.00000  Uiso   1.00
O1189  O     0.47266   0.58172   0.88194   0.00000  Uiso   1.00
O1190  O     0.43836   0.44446   0.62670   0.00000  Uiso   1.00
O1191  O     0.37459   0.41739   0.73780   0.00000  Uiso   1.00
O1192  O     0.62483   0.58419   0.73930   0.00000  Uiso   1.00
O1193  O     0.62490   0.41885   0.72583   0.00000  Uiso   1.00
O1194  O     0.37326   0.58146   0.76258   0.00000  Uiso   1.00
O1195  O     0.56108   0.46179   0.75001   0.00000  Uiso   1.00
O1196  O     0.56108   0.53821   0.75001   0.00000  Uiso   1.00
O1197  O     0.43892   0.46179   0.75000   0.00000  Uiso   1.00
O1198  O     0.50000   0.53822   0.68453   0.00000  Uiso   1.00
O1199  O     0.50000   0.46178   0.81547   0.00000  Uiso   1.00
O1200  O     0.50000   0.53822   0.81547   0.00000  Uiso   1.00
O1201  O     0.50000   0.46178   0.68453   0.00000  Uiso   1.00
O1202  O     0.54205   0.56142   0.60886   0.00000  Uiso   1.00
Zn1203 Zn    0.50000   0.55104   0.75000   0.00000  Uiso   1.00
Zn1204 Zn    0.50000   0.44896   0.75000   0.00000  Uiso   1.00
C1205  C     0.75304   0.50003   0.75022   0.00000  Uiso   1.00
C1206  C     0.97850   0.54265   0.74004   0.00000  Uiso   1.00
C1207  C     0.97854   0.45954   0.73340   0.00000  Uiso   1.00
C1208  C     0.68739   0.54222   0.74732   0.00000  Uiso   1.00
C1209  C     0.83898   0.53398   0.54361   0.00000  Uiso   1.00
C1210  C     0.81656   0.46066   0.95566   0.00000  Uiso   1.00
C1211  C     0.80293   0.54170   0.95144   0.00000  Uiso   1.00
C1212  C     0.78768   0.47415   0.55117   0.00000  Uiso   1.00
C1213  C     0.84575   0.53352   0.58962   0.00000  Uiso   1.00
C1214  C     0.82275   0.45905   0.90955   0.00000  Uiso   1.00
C1215  C     0.80920   0.54114   0.90544   0.00000  Uiso   1.00
C1216  C     0.91321   0.50012   0.74604   0.00000  Uiso   1.00
C1217  C     0.79513   0.47144   0.59750   0.00000  Uiso   1.00
C1218  C     0.82506   0.50092   0.61595   0.00000  Uiso   1.00
C1219  C     0.82183   0.50011   0.88451   0.00000  Uiso   1.00
C1220  C     0.81024   0.50443   0.52470   0.00000  Uiso   1.00
C1221  C     0.80771   0.50192   0.97643   0.00000  Uiso   1.00
C1222  C     0.95715   0.50080   0.73869   0.00000  Uiso   1.00
C1223  C     0.70864   0.50022   0.74668   0.00000  Uiso   1.00
C1224  C     0.86531   0.60761   0.60107   0.00000  Uiso   1.00
C1225  C     0.79895   0.38970   0.88809   0.00000  Uiso   1.00
C1226  C     0.76418   0.58848   0.87010   0.00000  Uiso   1.00
C1227  C     0.83218   0.50016   0.66374   0.00000  Uiso   1.00
C1228  C     0.75686   0.40422   0.60666   0.00000  Uiso   1.00
C1229  C     0.70617   0.39674   0.78068   0.00000  Uiso   1.00
C1230  C     0.94786   0.59488   0.69431   0.00000  Uiso   1.00
C1231  C     0.95328   0.41360   0.67913   0.00000  Uiso   1.00
C1232  C     0.71268   0.61251   0.72691   0.00000  Uiso   1.00
C1233  C     0.83107   0.49995   0.83650   0.00000  Uiso   1.00
C1234  C     0.85014   0.35715   0.78499   0.00000  Uiso   1.00
C1235  C     0.81784   0.64286   0.71431   0.00000  Uiso   1.00
C1236  C     0.81746   0.35756   0.71452   0.00000  Uiso   1.00
C1237  C     0.84989   0.64243   0.78515   0.00000  Uiso   1.00
C1238  C     0.68748   0.45883   0.73961   0.00000  Uiso   1.00
H1239  H     0.86385   0.37526   0.81275   0.00000  Uiso   1.00
H1240  H     0.87459   0.61823   0.56670   0.00000  Uiso   1.00
H1241  H     0.83186   0.61483   0.60670   0.00000  Uiso   1.00
H1242  H     0.80771   0.35755   0.87120   0.00000  Uiso   1.00
H1243  H     0.77371   0.40575   0.86806   0.00000  Uiso   1.00
H1244  H     0.78763   0.38043   0.92217   0.00000  Uiso   1.00
H1245  H     0.75201   0.55959   0.84995   0.00000  Uiso   1.00
H1246  H     0.76190   0.61958   0.84895   0.00000  Uiso   1.00
H1247  H     0.74470   0.59385   0.90039   0.00000  Uiso   1.00
H1248  H     0.72914   0.41153   0.58580   0.00000  Uiso   1.00
H1249  H     0.78132   0.38655   0.58697   0.00000  Uiso   1.00
H1250  H     0.80505   0.62478   0.68602   0.00000  Uiso   1.00
H1251  H     0.74681   0.38055   0.63365   0.00000  Uiso   1.00
H1252  H     0.67468   0.38336   0.78763   0.00000  Uiso   1.00
H1253  H     0.72800   0.36761   0.78143   0.00000  Uiso   1.00
H1254  H     0.71584   0.42041   0.80785   0.00000  Uiso   1.00
H1255  H     0.93267   0.62876   0.69359   0.00000  Uiso   1.00
H1256  H     0.97573   0.59667   0.67252   0.00000  Uiso   1.00
H1257  H     0.92584   0.56994   0.67989   0.00000  Uiso   1.00
H1258  H     0.98377   0.41126   0.66193   0.00000  Uiso   1.00
H1259  H     0.93648   0.38136   0.67290   0.00000  Uiso   1.00
H1260  H     0.93449   0.44176   0.66440   0.00000  Uiso   1.00
H1261  H     0.80462   0.37597   0.68634   0.00000  Uiso   1.00
H1262  H     0.71991   0.59568   0.69435   0.00000  Uiso   1.00
H1263  H     0.73923   0.63433   0.73558   0.00000  Uiso   1.00
H1264  H     0.68584   0.63579   0.72362   0.00000  Uiso   1.00
H1265  H     0.86314   0.62403   0.81321   0.00000  Uiso   1.00
H1266  H     0.85729   0.55612   0.52231   0.00000  Uiso   1.00
H1267  H     0.82109   0.43008   0.97559   0.00000  Uiso   1.00
H1268  H     0.79596   0.57364   0.96791   0.00000  Uiso   1.00
H1269  H     0.76480   0.45293   0.53509   0.00000  Uiso   1.00
H1270  H     0.88295   0.62883   0.62505   0.00000  Uiso   1.00
N1271  N     0.83333   0.61907   0.75000   0.00000  Uiso   1.00
N1272  N     0.83333   0.38093   0.75000   0.00000  Uiso   1.00
O1273  O     0.77226   0.53821   0.75000   0.00000  Uiso   1.00
O1274  O     0.83402   0.41819   0.89004   0.00000  Uiso   1.00
O1275  O     0.80599   0.58172   0.88194   0.00000  Uiso   1.00
O1276  O     0.77170   0.44446   0.62670   0.00000  Uiso   1.00
O1277  O     0.70792   0.41739   0.73780   0.00000  Uiso   1.00
O1278  O     0.95817   0.58419   0.73930   0.00000  Uiso   1.00
O1279  O     0.95823   0.41885   0.72583   0.00000  Uiso   1.00
O1280  O     0.70659   0.58146   0.76258   0.00000  Uiso   1.00
O1281  O     0.89441   0.46179   0.75001   0.00000  Uiso   1.00
O1282  O     0.89441   0.53821   0.75001   0.00000  Uiso   1.00
O1283  O     0.77226   0.46179   0.75000   0.00000  Uiso   1.00
O1284  O     0.83333   0.53822   0.68453   0.00000  Uiso   1.00
O1285  O     0.83334   0.46178   0.81547   0.00000  Uiso   1.00
O1286  O     0.83334   0.53822   0.81547   0.00000  Uiso   1.00
O1287  O     0.83333   0.46178   0.68453   0.00000  Uiso   1.00
O1288  O     0.87539   0.56142   0.60886   0.00000  Uiso   1.00
Zn1289 Zn    0.83333   0.55104   0.75000   0.00000  Uiso   1.00
Zn1290 Zn    0.83333   0.44896   0.75000   0.00000  Uiso   1.00
C1291  C     0.08638   0.83336   0.75022   0.00000  Uiso   1.00
C1292  C     0.31183   0.87598   0.74004   0.00000  Uiso   1.00
C1293  C     0.31188   0.79287   0.73340   0.00000  Uiso   1.00
C1294  C     0.02072   0.87556   0.74732   0.00000  Uiso   1.00
C1295  C     0.17232   0.86732   0.54361   0.00000  Uiso   1.00
C1296  C     0.14989   0.79400   0.95566   0.00000  Uiso   1.00
C1297  C     0.13627   0.87503   0.95144   0.00000  Uiso   1.00
C1298  C     0.12102   0.80748   0.55117   0.00000  Uiso   1.00
C1299  C     0.17908   0.86685   0.58962   0.00000  Uiso   1.00
C1300  C     0.15608   0.79238   0.90955   0.00000  Uiso   1.00
C1301  C     0.14254   0.87448   0.90544   0.00000  Uiso   1.00
C1302  C     0.24655   0.83345   0.74604   0.00000  Uiso   1.00
C1303  C     0.12846   0.80477   0.59750   0.00000  Uiso   1.00
C1304  C     0.15839   0.83425   0.61595   0.00000  Uiso   1.00
C1305  C     0.15517   0.83344   0.88451   0.00000  Uiso   1.00
C1306  C     0.14358   0.83776   0.52470   0.00000  Uiso   1.00
C1307  C     0.14104   0.83525   0.97643   0.00000  Uiso   1.00
C1308  C     0.29048   0.83414   0.73869   0.00000  Uiso   1.00
C1309  C     0.04197   0.83355   0.74668   0.00000  Uiso   1.00
C1310  C     0.19865   0.94094   0.60107   0.00000  Uiso   1.00
C1311  C     0.13228   0.72304   0.88809   0.00000  Uiso   1.00
C1312  C     0.09752   0.92181   0.87010   0.00000  Uiso   1.00
C1313  C     0.16552   0.83349   0.66374   0.00000  Uiso   1.00
C1314  C     0.09019   0.73755   0.60666   0.00000  Uiso   1.00
C1315  C     0.03951   0.73008   0.78068   0.00000  Uiso   1.00
C1316  C     0.28119   0.92822   0.69431   0.00000  Uiso   1.00
C1317  C     0.28662   0.74694   0.67913   0.00000  Uiso   1.00
C1318  C     0.04601   0.94584   0.72691   0.00000  Uiso   1.00
C1319  C     0.16441   0.83328   0.83650   0.00000  Uiso   1.00
C1320  C     0.18347   0.69049   0.78499   0.00000  Uiso   1.00
C1321  C     0.15117   0.97619   0.71431   0.00000  Uiso   1.00
C1322  C     0.15079   0.69089   0.71452   0.00000  Uiso   1.00
C1323  C     0.18322   0.97577   0.78515   0.00000  Uiso   1.00
C1324  C     0.02081   0.79217   0.73961   0.00000  Uiso   1.00
H1325  H     0.19719   0.70859   0.81275   0.00000  Uiso   1.00
H1326  H     0.20792   0.95157   0.56670   0.00000  Uiso   1.00
H1327  H     0.16520   0.94816   0.60670   0.00000  Uiso   1.00
H1328  H     0.14105   0.69089   0.87120   0.00000  Uiso   1.00
H1329  H     0.10704   0.73908   0.86806   0.00000  Uiso   1.00
H1330  H     0.12097   0.71377   0.92217   0.00000  Uiso   1.00
H1331  H     0.08535   0.89292   0.84995   0.00000  Uiso   1.00
H1332  H     0.09524   0.95291   0.84895   0.00000  Uiso   1.00
H1333  H     0.07803   0.92718   0.90039   0.00000  Uiso   1.00
H1334  H     0.06247   0.74487   0.58580   0.00000  Uiso   1.00
H1335  H     0.11465   0.71988   0.58697   0.00000  Uiso   1.00
H1336  H     0.13838   0.95811   0.68602   0.00000  Uiso   1.00
H1337  H     0.08015   0.71389   0.63365   0.00000  Uiso   1.00
H1338  H     0.00801   0.71669   0.78763   0.00000  Uiso   1.00
H1339  H     0.06134   0.70095   0.78143   0.00000  Uiso   1.00
H1340  H     0.04917   0.75375   0.80785   0.00000  Uiso   1.00
H1341  H     0.26601   0.96209   0.69359   0.00000  Uiso   1.00
H1342  H     0.30906   0.93001   0.67252   0.00000  Uiso   1.00
H1343  H     0.25918   0.90327   0.67989   0.00000  Uiso   1.00
H1344  H     0.31711   0.74459   0.66193   0.00000  Uiso   1.00
H1345  H     0.26981   0.71469   0.67290   0.00000  Uiso   1.00
H1346  H     0.26782   0.77509   0.66440   0.00000  Uiso   1.00
H1347  H     0.13795   0.70930   0.68634   0.00000  Uiso   1.00
H1348  H     0.05325   0.92902   0.69435   0.00000  Uiso   1.00
H1349  H     0.07256   0.96766   0.73558   0.00000  Uiso   1.00
H1350  H     0.01917   0.96912   0.72362   0.00000  Uiso   1.00
H1351  H     0.19647   0.95736   0.81321   0.00000  Uiso   1.00
H1352  H     0.19062   0.88946   0.52231   0.00000  Uiso   1.00
H1353  H     0.15442   0.76341   0.97559   0.00000  Uiso   1.00
H1354  H     0.12929   0.90697   0.96791   0.00000  Uiso   1.00
H1355  H     0.09813   0.78627   0.53509   0.00000  Uiso   1.00
H1356  H     0.21629   0.96216   0.62505   0.00000  Uiso   1.00
N1357  N     0.16667   0.95240   0.75000   0.00000  Uiso   1.00
N1358  N     0.16667   0.71427   0.75000   0.00000  Uiso   1.00
O1359  O     0.10559   0.87154   0.75000   0.00000  Uiso   1.00
O1360  O     0.16735   0.75153   0.89004   0.00000  Uiso   1.00
O1361  O     0.13932   0.91505   0.88194   0.00000  Uiso   1.00
O1362  O     0.10503   0.77780   0.62670   0.00000  Uiso   1.00
O1363  O     0.04125   0.75072   0.73780   0.00000  Uiso   1.00
O1364  O     0.29150   0.91752   0.73930   0.00000  Uiso   1.00
O1365  O     0.29156   0.75218   0.72583   0.00000  Uiso   1.00
O1366  O     0.03992   0.91479   0.76258   0.00000  Uiso   1.00
O1367  O     0.22774   0.79513   0.75001   0.00000  Uiso   1.00
O1368  O     0.22774   0.87154   0.75001   0.00000  Uiso   1.00
O1369  O     0.10559   0.79513   0.75000   0.00000  Uiso   1.00
O1370  O     0.16666   0.87155   0.68453   0.00000  Uiso   1.00
O1371  O     0.16667   0.79511   0.81547   0.00000  Uiso   1.00
O1372  O     0.16667   0.87155   0.81547   0.00000  Uiso   1.00
O1373  O     0.16666   0.79511   0.68453   0.00000  Uiso   1.00
O1374  O     0.20872   0.89475   0.60886   0.00000  Uiso   1.00
Zn1375 Zn    0.16667   0.88437   0.75000   0.00000  Uiso   1.00
Zn1376 Zn    0.16667   0.78229   0.75000   0.00000  Uiso   1.00
C1377  C     0.41971   0.83336   0.75022   0.00000  Uiso   1.00
C1378  C     0.64516   0.87598   0.74004   0.00000  Uiso   1.00
C1379  C     0.64521   0.79287   0.73340   0.00000  Uiso   1.00
C1380  C     0.35406   0.87556   0.74732   0.00000  Uiso   1.00
C1381  C     0.50565   0.86732   0.54361   0.00000  Uiso   1.00
C1382  C     0.48322   0.79400   0.95566   0.00000  Uiso   1.00
C1383  C     0.46960   0.87503   0.95144   0.00000  Uiso   1.00
C1384  C     0.45435   0.80748   0.55117   0.00000  Uiso   1.00
C1385  C     0.51241   0.86685   0.58962   0.00000  Uiso   1.00
C1386  C     0.48942   0.79238   0.90955   0.00000  Uiso   1.00
C1387  C     0.47587   0.87448   0.90544   0.00000  Uiso   1.00
C1388  C     0.57988   0.83345   0.74604   0.00000  Uiso   1.00
C1389  C     0.46179   0.80477   0.59750   0.00000  Uiso   1.00
C1390  C     0.49173   0.83425   0.61595   0.00000  Uiso   1.00
C1391  C     0.48850   0.83344   0.88451   0.00000  Uiso   1.00
C1392  C     0.47691   0.83776   0.52470   0.00000  Uiso   1.00
C1393  C     0.47438   0.83525   0.97643   0.00000  Uiso   1.00
C1394  C     0.62382   0.83414   0.73869   0.00000  Uiso   1.00
C1395  C     0.37531   0.83355   0.74668   0.00000  Uiso   1.00
C1396  C     0.53198   0.94094   0.60107   0.00000  Uiso   1.00
C1397  C     0.46561   0.72304   0.88809   0.00000  Uiso   1.00
C1398  C     0.43085   0.92181   0.87010   0.00000  Uiso   1.00
C1399  C     0.49885   0.83349   0.66374   0.00000  Uiso   1.00
C1400  C     0.42353   0.73755   0.60666   0.00000  Uiso   1.00
C1401  C     0.37284   0.73008   0.78068   0.00000  Uiso   1.00
C1402  C     0.61453   0.92822   0.69431   0.00000  Uiso   1.00
C1403  C     0.61995   0.74694   0.67913   0.00000  Uiso   1.00
C1404  C     0.37935   0.94584   0.72691   0.00000  Uiso   1.00
C1405  C     0.49774   0.83328   0.83650   0.00000  Uiso   1.00
C1406  C     0.51681   0.69049   0.78499   0.00000  Uiso   1.00
C1407  C     0.48451   0.97619   0.71431   0.00000  Uiso   1.00
C1408  C     0.48412   0.69089   0.71452   0.00000  Uiso   1.00
C1409  C     0.51655   0.97577   0.78515   0.00000  Uiso   1.00
C1410  C     0.35415   0.79217   0.73961   0.00000  Uiso   1.00
H1411  H     0.53052   0.70859   0.81275   0.00000  Uiso   1.00
H1412  H     0.54125   0.95157   0.56670   0.00000  Uiso   1.00
H1413  H     0.49853   0.94816   0.60670   0.00000  Uiso   1.00
H1414  H     0.47438   0.69089   0.87120   0.00000  Uiso   1.00
H1415  H     0.44037   0.73908   0.86806   0.00000  Uiso   1.00
H1416  H     0.45430   0.71377   0.92217   0.00000  Uiso   1.00
H1417  H     0.41868   0.89292   0.84995   0.00000  Uiso   1.00
H1418  H     0.42857   0.95291   0.84895   0.00000  Uiso   1.00
H1419  H     0.41136   0.92718   0.90039   0.00000  Uiso   1.00
H1420  H     0.39580   0.74487   0.58580   0.00000  Uiso   1.00
H1421  H     0.44798   0.71988   0.58697   0.00000  Uiso   1.00
H1422  H     0.47171   0.95811   0.68602   0.00000  Uiso   1.00
H1423  H     0.41348   0.71389   0.63365   0.00000  Uiso   1.00
H1424  H     0.34135   0.71669   0.78763   0.00000  Uiso   1.00
H1425  H     0.39467   0.70095   0.78143   0.00000  Uiso   1.00
H1426  H     0.38250   0.75375   0.80785   0.00000  Uiso   1.00
H1427  H     0.59934   0.96209   0.69359   0.00000  Uiso   1.00
H1428  H     0.64239   0.93001   0.67252   0.00000  Uiso   1.00
H1429  H     0.59251   0.90327   0.67989   0.00000  Uiso   1.00
H1430  H     0.65044   0.74459   0.66193   0.00000  Uiso   1.00
H1431  H     0.60315   0.71469   0.67290   0.00000  Uiso   1.00
H1432  H     0.60115   0.77509   0.66440   0.00000  Uiso   1.00
H1433  H     0.47128   0.70930   0.68634   0.00000  Uiso   1.00
H1434  H     0.38658   0.92902   0.69435   0.00000  Uiso   1.00
H1435  H     0.40589   0.96766   0.73558   0.00000  Uiso   1.00
H1436  H     0.35251   0.96912   0.72362   0.00000  Uiso   1.00
H1437  H     0.52980   0.95736   0.81321   0.00000  Uiso   1.00
H1438  H     0.52396   0.88946   0.52231   0.00000  Uiso   1.00
H1439  H     0.48775   0.76341   0.97559   0.00000  Uiso   1.00
H1440  H     0.46262   0.90697   0.96791   0.00000  Uiso   1.00
H1441  H     0.43146   0.78627   0.53509   0.00000  Uiso   1.00
H1442  H     0.54962   0.96216   0.62505   0.00000  Uiso   1.00
N1443  N     0.50000   0.95240   0.75000   0.00000  Uiso   1.00
N1444  N     0.50000   0.71427   0.75000   0.00000  Uiso   1.00
O1445  O     0.43892   0.87154   0.75000   0.00000  Uiso   1.00
O1446  O     0.50068   0.75153   0.89004   0.00000  Uiso   1.00
O1447  O     0.47266   0.91505   0.88194   0.00000  Uiso   1.00
O1448  O     0.43836   0.77780   0.62670   0.00000  Uiso   1.00
O1449  O     0.37459   0.75072   0.73780   0.00000  Uiso   1.00
O1450  O     0.62483   0.91752   0.73930   0.00000  Uiso   1.00
O1451  O     0.62490   0.75218   0.72583   0.00000  Uiso   1.00
O1452  O     0.37326   0.91479   0.76258   0.00000  Uiso   1.00
O1453  O     0.56108   0.79513   0.75001   0.00000  Uiso   1.00
O1454  O     0.56108   0.87154   0.75001   0.00000  Uiso   1.00
O1455  O     0.43892   0.79513   0.75000   0.00000  Uiso   1.00
O1456  O     0.50000   0.87155   0.68453   0.00000  Uiso   1.00
O1457  O     0.50000   0.79511   0.81547   0.00000  Uiso   1.00
O1458  O     0.50000   0.87155   0.81547   0.00000  Uiso   1.00
O1459  O     0.50000   0.79511   0.68453   0.00000  Uiso   1.00
O1460  O     0.54205   0.89475   0.60886   0.00000  Uiso   1.00
Zn1461 Zn    0.50000   0.88437   0.75000   0.00000  Uiso   1.00
Zn1462 Zn    0.50000   0.78229   0.75000   0.00000  Uiso   1.00
C1463  C     0.75304   0.83336   0.75022   0.00000  Uiso   1.00
C1464  C     0.97850   0.87598   0.74004   0.00000  Uiso   1.00
C1465  C     0.97854   0.79287   0.73340   0.00000  Uiso   1.00
C1466  C     0.68739   0.87556   0.74732   0.00000  Uiso   1.00
C1467  C     0.83898   0.86732   0.54361   0.00000  Uiso   1.00
C1468  C     0.81656   0.79400   0.95566   0.00000  Uiso   1.00
C1469  C     0.80293   0.87503   0.95144   0.00000  Uiso   1.00
C1470  C     0.78768   0.80748   0.55117   0.00000  Uiso   1.00
C1471  C     0.84575   0.86685   0.58962   0.00000  Uiso   1.00
C1472  C     0.82275   0.79238   0.90955   0.00000  Uiso   1.00
C1473  C     0.80920   0.87448   0.90544   0.00000  Uiso   1.00
C1474  C     0.91321   0.83345   0.74604   0.00000  Uiso   1.00
C1475  C     0.79513   0.80477   0.59750   0.00000  Uiso   1.00
C1476  C     0.82506   0.83425   0.61595   0.00000  Uiso   1.00
C1477  C     0.82183   0.83344   0.88451   0.00000  Uiso   1.00
C1478  C     0.81024   0.83776   0.52470   0.00000  Uiso   1.00
C1479  C     0.80771   0.83525   0.97643   0.00000  Uiso   1.00
C1480  C     0.95715   0.83414   0.73869   0.00000  Uiso   1.00
C1481  C     0.70864   0.83355   0.74668   0.00000  Uiso   1.00
C1482  C     0.86531   0.94094   0.60107   0.00000  Uiso   1.00
C1483  C     0.79895   0.72304   0.88809   0.00000  Uiso   1.00
C1484  C     0.76418   0.92181   0.87010   0.00000  Uiso   1.00
C1485  C     0.83218   0.83349   0.66374   0.00000  Uiso   1.00
C1486  C     0.75686   0.73755   0.60666   0.00000  Uiso   1.00
C1487  C     0.70617   0.73008   0.78068   0.00000  Uiso   1.00
C1488  C     0.94786   0.92822   0.69431   0.00000  Uiso   1.00
C1489  C     0.95328   0.74694   0.67913   0.00000  Uiso   1.00
C1490  C     0.71268   0.94584   0.72691   0.00000  Uiso   1.00
C1491  C     0.83107   0.83328   0.83650   0.00000  Uiso   1.00
C1492  C     0.85014   0.69049   0.78499   0.00000  Uiso   1.00
C1493  C     0.81784   0.97619   0.71431   0.00000  Uiso   1.00
C1494  C     0.81746   0.69089   0.71452   0.00000  Uiso   1.00
C1495  C     0.84989   0.97577   0.78515   0.00000  Uiso   1.00
C1496  C     0.68748   0.79217   0.73961   0.00000  Uiso   1.00
H1497  H     0.86385   0.70859   0.81275   0.00000  Uiso   1.00
H1498  H     0.87459   0.95157   0.56670   0.00000  Uiso   1.00
H1499  H     0.83186   0.94816   0.60670   0.00000  Uiso   1.00
H1500  H     0.80771   0.69089   0.87120   0.00000  Uiso   1.00
H1501  H     0.77371   0.73908   0.86806   0.00000  Uiso   1.00
H1502  H     0.78763   0.71377   0.92217   0.00000  Uiso   1.00
H1503  H     0.75201   0.89292   0.84995   0.00000  Uiso   1.00
H1504  H     0.76190   0.95291   0.84895   0.00000  Uiso   1.00
H1505  H     0.74470   0.92718   0.90039   0.00000  Uiso   1.00
H1506  H     0.72914   0.74487   0.58580   0.00000  Uiso   1.00
H1507  H     0.78132   0.71988   0.58697   0.00000  Uiso   1.00
H1508  H     0.80505   0.95811   0.68602   0.00000  Uiso   1.00
H1509  H     0.74681   0.71389   0.63365   0.00000  Uiso   1.00
H1510  H     0.67468   0.71669   0.78763   0.00000  Uiso   1.00
H1511  H     0.72800   0.70095   0.78143   0.00000  Uiso   1.00
H1512  H     0.71584   0.75375   0.80785   0.00000  Uiso   1.00
H1513  H     0.93267   0.96209   0.69359   0.00000  Uiso   1.00
H1514  H     0.97573   0.93001   0.67252   0.00000  Uiso   1.00
H1515  H     0.92584   0.90327   0.67989   0.00000  Uiso   1.00
H1516  H     0.98377   0.74459   0.66193   0.00000  Uiso   1.00
H1517  H     0.93648   0.71469   0.67290   0.00000  Uiso   1.00
H1518  H     0.93449   0.77509   0.66440   0.00000  Uiso   1.00
H1519  H     0.80462   0.70930   0.68634   0.00000  Uiso   1.00
H1520  H     0.71991   0.92902   0.69435   0.00000  Uiso   1.00
H1521  H     0.73923   0.96766   0.73558   0.00000  Uiso   1.00
H1522  H     0.68584   0.96912   0.72362   0.00000  Uiso   1.00
H1523  H     0.86314   0.95736   0.81321   0.00000  Uiso   1.00
H1524  H     0.85729   0.88946   0.52231   0.00000  Uiso   1.00
H1525  H     0.82109   0.76341   0.97559   0.00000  Uiso   1.00
H1526  H     0.79596   0.90697   0.96791   0.00000  Uiso   1.00
H1527  H     0.76480   0.78627   0.53509   0.00000  Uiso   1.00
H1528  H     0.88295   0.96216   0.62505   0.00000  Uiso   1.00
N1529  N     0.83333   0.95240   0.75000   0.00000  Uiso   1.00
N1530  N     0.83333   0.71427   0.75000   0.00000  Uiso   1.00
O1531  O     0.77226   0.87154   0.75000   0.00000  Uiso   1.00
O1532  O     0.83402   0.75153   0.89004   0.00000  Uiso   1.00
O1533  O     0.80599   0.91505   0.88194   0.00000  Uiso   1.00
O1534  O     0.77170   0.77780   0.62670   0.00000  Uiso   1.00
O1535  O     0.70792   0.75072   0.73780   0.00000  Uiso   1.00
O1536  O     0.95817   0.91752   0.73930   0.00000  Uiso   1.00
O1537  O     0.95823   0.75218   0.72583   0.00000  Uiso   1.00
O1538  O     0.70659   0.91479   0.76258   0.00000  Uiso   1.00
O1539  O     0.89441   0.79513   0.75001   0.00000  Uiso   1.00
O1540  O     0.89441   0.87154   0.75001   0.00000  Uiso   1.00
O1541  O     0.77226   0.79513   0.75000   0.00000  Uiso   1.00
O1542  O     0.83333   0.87155   0.68453   0.00000  Uiso   1.00
O1543  O     0.83334   0.79511   0.81547   0.00000  Uiso   1.00
O1544  O     0.83334   0.87155   0.81547   0.00000  Uiso   1.00
O1545  O     0.83333   0.79511   0.68453   0.00000  Uiso   1.00
O1546  O     0.87539   0.89475   0.60886   0.00000  Uiso   1.00
Zn1547 Zn    0.83333   0.88437   0.75000   0.00000  Uiso   1.00
Zn1548 Zn    0.83333   0.78229   0.75000   0.00000  Uiso   1.00
loop_
_geom_bond_atom_site_label_1
_geom_bond_atom_site_label_2
_geom_bond_distance
_geom_bond_site_symmetry_2
_ccdc_geom_bond_type
C1     C19     1.440   .     S
C1     O69     1.283   .     A
C1     O79     1.282   .     A
C2     C18     1.411   .     A
C2     O74     1.385   .     S
C2     C90     1.382   .     S
C3     C18     1.404   .     A
C3     O75     1.384   .     S
C3     C120    1.379   .     S
C4     C19     1.411   .     A
C4     O76     1.389   .     S
C4     C174    1.382   1_455 S
C5     C16     1.394   .     A
C5     C9      1.388   .     A
C5     H62     1.083   .     S
C6     H63     1.084   .     S
C6     C17     1.393   .     A
C6     C10     1.390   .     A
C7     C11     1.386   .     A
C7     C17     1.391   .     A
C7     H64     1.084   .     S
C8     C13     1.403   .     A
C8     H65     1.082   .     S
C8     C16     1.393   .     A
C9     O84     1.388   .     S
C9     C14     1.406   .     A
C10    C15     1.415   .     A
C10    O70     1.384   .     S
C11    O71     1.383   .     S
C11    C15     1.419   .     A
C12    O78     1.278   .     A
C12    O77     1.285   .     A
C12    C18     1.438   .     S
C13    C14     1.413   .     A
C13    O72     1.398   .     S
C14    C23     1.442   .     S
C15    C29     1.461   .     S
C16    C791    1.443   1_554 S
C17    C790    1.443   .     S
C19    C34     1.413   .     A
C20    H66     1.109   .     S
C20    O84     1.413   .     S
C20    H37     1.115   .     S
C20    H36     1.111   .     S
C21    H38     1.109   .     S
C21    H39     1.114   .     S
C21    O70     1.412   .     S
C21    H40     1.112   .     S
C22    H41     1.114   .     S
C22    H43     1.113   .     S
C22    O71     1.410   .     S
C22    H42     1.110   .     S
C23    O83     1.284   .     A
C23    O80     1.281   .     A
C24    O72     1.412   .     S
C24    H45     1.114   .     S
C24    H47     1.109   .     S
C24    H44     1.111   .     S
C25    H50     1.115   .     S
C25    H48     1.111   .     S
C25    O73     1.413   .     S
C25    H49     1.108   .     S
C26    H52     1.112   .     S
C26    H53     1.110   .     S
C26    H51     1.109   .     S
C26    O74     1.415   .     S
C27    H54     1.113   .     S
C27    H55     1.109   .     S
C27    O75     1.410   .     S
C27    H56     1.114   .     S
C28    H60     1.108   .     S
C28    O76     1.411   .     S
C28    H59     1.104   .     S
C28    H58     1.115   .     S
C29    O81     1.289   .     A
C29    O82     1.287   .     A
C30    H35     1.081   .     S
C30    N68     1.364   .     A
C30    C549    1.411   1_545 S
C31    H46     1.081   .     S
C31    N67     1.364   .     A
C31    C290    1.411   .     S
C32    N68     1.364   .     A
C32    H57     1.079   .     S
C32    C547    1.411   1_545 S
C33    N67     1.365   .     A
C33    H61     1.081   .     S
C33    C288    1.411   .     S
C34    O73     1.385   .     S
C34    C175    1.379   1_455 S
N67    Zn85    1.998   .     S
N68    Zn86    1.998   .     S
O69    Zn85    2.011   .     S
O77    Zn86    2.011   .     S
O78    Zn85    2.010   .     S
O79    Zn86    2.010   .     S
O80    Zn85    1.988   .     S
O81    Zn86    1.988   .     S
O82    Zn85    1.985   .     S
O83    Zn86    1.985   .     S
C87    C105    1.440   .     S
C87    O155    1.283   .     A
C87    O165    1.282   .     A
C88    C104    1.411   .     A
C88    O160    1.385   .     S
C88    C176    1.382   .     S
C89    C104    1.404   .     A
C89    O161    1.384   .     S
C89    C206    1.379   .     S
C90    C105    1.411   .     A
C90    O162    1.389   .     S
C91    C102    1.394   .     A
C91    C95     1.388   .     A
C91    H148    1.083   .     S
C92    H149    1.084   .     S
C92    C103    1.393   .     A
C92    C96     1.390   .     A
C93    C97     1.386   .     A
C93    C103    1.391   .     A
C93    H150    1.084   .     S
C94    C99     1.403   .     A
C94    H151    1.082   .     S
C94    C102    1.393   .     A
C95    O170    1.388   .     S
C95    C100    1.406   .     A
C96    C101    1.415   .     A
C96    O156    1.384   .     S
C97    O157    1.383   .     S
C97    C101    1.419   .     A
C98    O164    1.278   .     A
C98    O163    1.285   .     A
C98    C104    1.438   .     S
C99    C100    1.413   .     A
C99    O158    1.398   .     S
C100   C109    1.442   .     S
C101   C115    1.461   .     S
C102   C877    1.443   1_554 S
C103   C876    1.443   .     S
C105   C120    1.413   .     A
C106   H152    1.109   .     S
C106   O170    1.413   .     S
C106   H123    1.115   .     S
C106   H122    1.111   .     S
C107   H124    1.109   .     S
C107   H125    1.114   .     S
C107   O156    1.412   .     S
C107   H126    1.112   .     S
C108   H127    1.114   .     S
C108   H129    1.113   .     S
C108   O157    1.410   .     S
C108   H128    1.110   .     S
C109   O169    1.284   .     A
C109   O166    1.281   .     A
C110   O158    1.412   .     S
C110   H131    1.114   .     S
C110   H133    1.109   .     S
C110   H130    1.111   .     S
C111   H136    1.115   .     S
C111   H134    1.111   .     S
C111   O159    1.413   .     S
C111   H135    1.108   .     S
C112   H138    1.112   .     S
C112   H139    1.110   .     S
C112   H137    1.109   .     S
C112   O160    1.415   .     S
C113   H140    1.113   .     S
C113   H141    1.109   .     S
C113   O161    1.410   .     S
C113   H142    1.114   .     S
C114   H146    1.108   .     S
C114   O162    1.411   .     S
C114   H145    1.104   .     S
C114   H144    1.115   .     S
C115   O167    1.289   .     A
C115   O168    1.287   .     A
C116   H121    1.081   .     S
C116   N154    1.364   .     A
C116   C635    1.411   1_545 S
C117   H132    1.081   .     S
C117   N153    1.364   .     A
C117   C376    1.411   .     S
C118   N154    1.364   .     A
C118   H143    1.079   .     S
C118   C633    1.411   1_545 S
C119   N153    1.365   .     A
C119   H147    1.081   .     S
C119   C374    1.411   .     S
C120   O159    1.385   .     S
N153   Zn171   1.998   .     S
N154   Zn172   1.998   .     S
O155   Zn171   2.011   .     S
O163   Zn172   2.011   .     S
O164   Zn171   2.010   .     S
O165   Zn172   2.010   .     S
O166   Zn171   1.988   .     S
O167   Zn172   1.988   .     S
O168   Zn171   1.985   .     S
O169   Zn172   1.985   .     S
C173   C191    1.440   .     S
C173   O241    1.283   .     A
C173   O251    1.282   .     A
C174   C190    1.411   .     A
C174   O246    1.385   .     S
C174   C4      1.382   1_655 S
C175   C190    1.404   .     A
C175   O247    1.384   .     S
C175   C34     1.379   1_655 S
C176   C191    1.411   .     A
C176   O248    1.389   .     S
C177   C188    1.394   .     A
C177   C181    1.388   .     A
C177   H234    1.083   .     S
C178   H235    1.084   .     S
C178   C189    1.393   .     A
C178   C182    1.390   .     A
C179   C183    1.386   .     A
C179   C189    1.391   .     A
C179   H236    1.084   .     S
C180   C185    1.403   .     A
C180   H237    1.082   .     S
C180   C188    1.393   .     A
C181   O256    1.388   .     S
C181   C186    1.406   .     A
C182   C187    1.415   .     A
C182   O242    1.384   .     S
C183   O243    1.383   .     S
C183   C187    1.419   .     A
C184   O250    1.278   .     A
C184   O249    1.285   .     A
C184   C190    1.438   .     S
C185   C186    1.413   .     A
C185   O244    1.398   .     S
C186   C195    1.442   .     S
C187   C201    1.461   .     S
C188   C963    1.443   1_554 S
C189   C962    1.443   .     S
C191   C206    1.413   .     A
C192   H238    1.109   .     S
C192   O256    1.413   .     S
C192   H209    1.115   .     S
C192   H208    1.111   .     S
C193   H210    1.109   .     S
C193   H211    1.114   .     S
C193   O242    1.412   .     S
C193   H212    1.112   .     S
C194   H213    1.114   .     S
C194   H215    1.113   .     S
C194   O243    1.410   .     S
C194   H214    1.110   .     S
C195   O255    1.284   .     A
C195   O252    1.281   .     A
C196   O244    1.412   .     S
C196   H217    1.114   .     S
C196   H219    1.109   .     S
C196   H216    1.111   .     S
C197   H222    1.115   .     S
C197   H220    1.111   .     S
C197   O245    1.413   .     S
C197   H221    1.108   .     S
C198   H224    1.112   .     S
C198   H225    1.110   .     S
C198   H223    1.109   .     S
C198   O246    1.415   .     S
C199   H226    1.113   .     S
C199   H227    1.109   .     S
C199   O247    1.410   .     S
C199   H228    1.114   .     S
C200   H232    1.108   .     S
C200   O248    1.411   .     S
C200   H231    1.104   .     S
C200   H230    1.115   .     S
C201   O253    1.289   .     A
C201   O254    1.287   .     A
C202   H207    1.081   .     S
C202   N240    1.364   .     A
C202   C721    1.411   1_545 S
C203   H218    1.081   .     S
C203   N239    1.364   .     A
C203   C462    1.411   .     S
C204   N240    1.364   .     A
C204   H229    1.079   .     S
C204   C719    1.411   1_545 S
C205   N239    1.365   .     A
C205   H233    1.081   .     S
C205   C460    1.411   .     S
C206   O245    1.385   .     S
N239   Zn257   1.998   .     S
N240   Zn258   1.998   .     S
O241   Zn257   2.011   .     S
O249   Zn258   2.011   .     S
O250   Zn257   2.010   .     S
O251   Zn258   2.010   .     S
O252   Zn257   1.988   .     S
O253   Zn258   1.988   .     S
O254   Zn257   1.985   .     S
O255   Zn258   1.985   .     S
C259   C277    1.440   .     S
C259   O327    1.283   .     A
C259   O337    1.282   .     A
C260   C276    1.411   .     A
C260   O332    1.385   .     S
C260   C348    1.382   .     S
C261   C276    1.404   .     A
C261   O333    1.384   .     S
C261   C378    1.379   .     S
C262   C277    1.411   .     A
C262   O334    1.389   .     S
C262   C432    1.382   1_455 S
C263   C274    1.394   .     A
C263   C267    1.388   .     A
C263   H320    1.083   .     S
C264   H321    1.084   .     S
C264   C275    1.393   .     A
C264   C268    1.390   .     A
C265   C269    1.386   .     A
C265   C275    1.391   .     A
C265   H322    1.084   .     S
C266   C271    1.403   .     A
C266   H323    1.082   .     S
C266   C274    1.393   .     A
C267   O342    1.388   .     S
C267   C272    1.406   .     A
C268   C273    1.415   .     A
C268   O328    1.384   .     S
C269   O329    1.383   .     S
C269   C273    1.419   .     A
C270   O336    1.278   .     A
C270   O335    1.285   .     A
C270   C276    1.438   .     S
C271   C272    1.413   .     A
C271   O330    1.398   .     S
C272   C281    1.442   .     S
C273   C287    1.461   .     S
C274   C1049   1.443   1_554 S
C275   C1048   1.443   .     S
C277   C292    1.413   .     A
C278   H324    1.109   .     S
C278   O342    1.413   .     S
C278   H295    1.115   .     S
C278   H294    1.111   .     S
C279   H296    1.109   .     S
C279   H297    1.114   .     S
C279   O328    1.412   .     S
C279   H298    1.112   .     S
C280   H299    1.114   .     S
C280   H301    1.113   .     S
C280   O329    1.410   .     S
C280   H300    1.110   .     S
C281   O341    1.284   .     A
C281   O338    1.281   .     A
C282   O330    1.412   .     S
C282   H303    1.114   .     S
C282   H305    1.109   .     S
C282   H302    1.111   .     S
C283   H308    1.115   .     S
C283   H306    1.111   .     S
C283   O331    1.413   .     S
C283   H307    1.108   .     S
C284   H310    1.112   .     S
C284   H311    1.110   .     S
C284   H309    1.109   .     S
C284   O332    1.415   .     S
C285   H312    1.113   .     S
C285   H313    1.109   .     S
C285   O333    1.410   .     S
C285   H314    1.114   .     S
C286   H318    1.108   .     S
C286   O334    1.411   .     S
C286   H317    1.104   .     S
C286   H316    1.115   .     S
C287   O339    1.289   .     A
C287   O340    1.287   .     A
C288   H293    1.081   .     S
C288   N326    1.364   .     A
C289   H304    1.081   .     S
C289   N325    1.364   .     A
C289   C548    1.411   .     S
C290   N326    1.364   .     A
C290   H315    1.079   .     S
C291   N325    1.365   .     A
C291   H319    1.081   .     S
C291   C546    1.411   .     S
C292   O331    1.385   .     S
C292   C433    1.379   1_455 S
N325   Zn343   1.998   .     S
N326   Zn344   1.998   .     S
O327   Zn343   2.011   .     S
O335   Zn344   2.011   .     S
O336   Zn343   2.010   .     S
O337   Zn344   2.010   .     S
O338   Zn343   1.988   .     S
O339   Zn344   1.988   .     S
O340   Zn343   1.985   .     S
O341   Zn344   1.985   .     S
C345   C363    1.440   .     S
C345   O413    1.283   .     A
C345   O423    1.282   .     A
C346   C362    1.411   .     A
C346   O418    1.385   .     S
C346   C434    1.382   .     S
C347   C362    1.404   .     A
C347   O419    1.384   .     S
C347   C464    1.379   .     S
C348   C363    1.411   .     A
C348   O420    1.389   .     S
C349   C360    1.394   .     A
C349   C353    1.388   .     A
C349   H406    1.083   .     S
C350   H407    1.084   .     S
C350   C361    1.393   .     A
C350   C354    1.390   .     A
C351   C355    1.386   .     A
C351   C361    1.391   .     A
C351   H408    1.084   .     S
C352   C357    1.403   .     A
C352   H409    1.082   .     S
C352   C360    1.393   .     A
C353   O428    1.388   .     S
C353   C358    1.406   .     A
C354   C359    1.415   .     A
C354   O414    1.384   .     S
C355   O415    1.383   .     S
C355   C359    1.419   .     A
C356   O422    1.278   .     A
C356   O421    1.285   .     A
C356   C362    1.438   .     S
C357   C358    1.413   .     A
C357   O416    1.398   .     S
C358   C367    1.442   .     S
C359   C373    1.461   .     S
C360   C1135   1.443   1_554 S
C361   C1134   1.443   .     S
C363   C378    1.413   .     A
C364   H410    1.109   .     S
C364   O428    1.413   .     S
C364   H381    1.115   .     S
C364   H380    1.111   .     S
C365   H382    1.109   .     S
C365   H383    1.114   .     S
C365   O414    1.412   .     S
C365   H384    1.112   .     S
C366   H385    1.114   .     S
C366   H387    1.113   .     S
C366   O415    1.410   .     S
C366   H386    1.110   .     S
C367   O427    1.284   .     A
C367   O424    1.281   .     A
C368   O416    1.412   .     S
C368   H389    1.114   .     S
C368   H391    1.109   .     S
C368   H388    1.111   .     S
C369   H394    1.115   .     S
C369   H392    1.111   .     S
C369   O417    1.413   .     S
C369   H393    1.108   .     S
C370   H396    1.112   .     S
C370   H397    1.110   .     S
C370   H395    1.109   .     S
C370   O418    1.415   .     S
C371   H398    1.113   .     S
C371   H399    1.109   .     S
C371   O419    1.410   .     S
C371   H400    1.114   .     S
C372   H404    1.108   .     S
C372   O420    1.411   .     S
C372   H403    1.104   .     S
C372   H402    1.115   .     S
C373   O425    1.289   .     A
C373   O426    1.287   .     A
C374   H379    1.081   .     S
C374   N412    1.364   .     A
C375   H390    1.081   .     S
C375   N411    1.364   .     A
C375   C634    1.411   .     S
C376   N412    1.364   .     A
C376   H401    1.079   .     S
C377   N411    1.365   .     A
C377   H405    1.081   .     S
C377   C632    1.411   .     S
C378   O417    1.385   .     S
N411   Zn429   1.998   .     S
N412   Zn430   1.998   .     S
O413   Zn429   2.011   .     S
O421   Zn430   2.011   .     S
O422   Zn429   2.010   .     S
O423   Zn430   2.010   .     S
O424   Zn429   1.988   .     S
O425   Zn430   1.988   .     S
O426   Zn429   1.985   .     S
O427   Zn430   1.985   .     S
C431   C449    1.440   .     S
C431   O499    1.283   .     A
C431   O509    1.282   .     A
C432   C448    1.411   .     A
C432   O504    1.385   .     S
C432   C262    1.382   1_655 S
C433   C448    1.404   .     A
C433   O505    1.384   .     S
C433   C292    1.379   1_655 S
C434   C449    1.411   .     A
C434   O506    1.389   .     S
C435   C446    1.394   .     A
C435   C439    1.388   .     A
C435   H492    1.083   .     S
C436   H493    1.084   .     S
C436   C447    1.393   .     A
C436   C440    1.390   .     A
C437   C441    1.386   .     A
C437   C447    1.391   .     A
C437   H494    1.084   .     S
C438   C443    1.403   .     A
C438   H495    1.082   .     S
C438   C446    1.393   .     A
C439   O514    1.388   .     S
C439   C444    1.406   .     A
C440   C445    1.415   .     A
C440   O500    1.384   .     S
C441   O501    1.383   .     S
C441   C445    1.419   .     A
C442   O508    1.278   .     A
C442   O507    1.285   .     A
C442   C448    1.438   .     S
C443   C444    1.413   .     A
C443   O502    1.398   .     S
C444   C453    1.442   .     S
C445   C459    1.461   .     S
C446   C1221   1.443   1_554 S
C447   C1220   1.443   .     S
C449   C464    1.413   .     A
C450   H496    1.109   .     S
C450   O514    1.413   .     S
C450   H467    1.115   .     S
C450   H466    1.111   .     S
C451   H468    1.109   .     S
C451   H469    1.114   .     S
C451   O500    1.412   .     S
C451   H470    1.112   .     S
C452   H471    1.114   .     S
C452   H473    1.113   .     S
C452   O501    1.410   .     S
C452   H472    1.110   .     S
C453   O513    1.284   .     A
C453   O510    1.281   .     A
C454   O502    1.412   .     S
C454   H475    1.114   .     S
C454   H477    1.109   .     S
C454   H474    1.111   .     S
C455   H480    1.115   .     S
C455   H478    1.111   .     S
C455   O503    1.413   .     S
C455   H479    1.108   .     S
C456   H482    1.112   .     S
C456   H483    1.110   .     S
C456   H481    1.109   .     S
C456   O504    1.415   .     S
C457   H484    1.113   .     S
C457   H485    1.109   .     S
C457   O505    1.410   .     S
C457   H486    1.114   .     S
C458   H490    1.108   .     S
C458   O506    1.411   .     S
C458   H489    1.104   .     S
C458   H488    1.115   .     S
C459   O511    1.289   .     A
C459   O512    1.287   .     A
C460   H465    1.081   .     S
C460   N498    1.364   .     A
C461   H476    1.081   .     S
C461   N497    1.364   .     A
C461   C720    1.411   .     S
C462   N498    1.364   .     A
C462   H487    1.079   .     S
C463   N497    1.365   .     A
C463   H491    1.081   .     S
C463   C718    1.411   .     S
C464   O503    1.385   .     S
N497   Zn515   1.998   .     S
N498   Zn516   1.998   .     S
O499   Zn515   2.011   .     S
O507   Zn516   2.011   .     S
O508   Zn515   2.010   .     S
O509   Zn516   2.010   .     S
O510   Zn515   1.988   .     S
O511   Zn516   1.988   .     S
O512   Zn515   1.985   .     S
O513   Zn516   1.985   .     S
C517   C535    1.440   .     S
C517   O585    1.283   .     A
C517   O595    1.282   .     A
C518   C534    1.411   .     A
C518   O590    1.385   .     S
C518   C606    1.382   .     S
C519   C534    1.404   .     A
C519   O591    1.384   .     S
C519   C636    1.379   .     S
C520   C535    1.411   .     A
C520   O592    1.389   .     S
C520   C690    1.382   1_455 S
C521   C532    1.394   .     A
C521   C525    1.388   .     A
C521   H578    1.083   .     S
C522   H579    1.084   .     S
C522   C533    1.393   .     A
C522   C526    1.390   .     A
C523   C527    1.386   .     A
C523   C533    1.391   .     A
C523   H580    1.084   .     S
C524   C529    1.403   .     A
C524   H581    1.082   .     S
C524   C532    1.393   .     A
C525   O600    1.388   .     S
C525   C530    1.406   .     A
C526   C531    1.415   .     A
C526   O586    1.384   .     S
C527   O587    1.383   .     S
C527   C531    1.419   .     A
C528   O594    1.278   .     A
C528   O593    1.285   .     A
C528   C534    1.438   .     S
C529   C530    1.413   .     A
C529   O588    1.398   .     S
C530   C539    1.442   .     S
C531   C545    1.461   .     S
C532   C1307   1.443   1_554 S
C533   C1306   1.443   .     S
C535   C550    1.413   .     A
C536   H582    1.109   .     S
C536   O600    1.413   .     S
C536   H553    1.115   .     S
C536   H552    1.111   .     S
C537   H554    1.109   .     S
C537   H555    1.114   .     S
C537   O586    1.412   .     S
C537   H556    1.112   .     S
C538   H557    1.114   .     S
C538   H559    1.113   .     S
C538   O587    1.410   .     S
C538   H558    1.110   .     S
C539   O599    1.284   .     A
C539   O596    1.281   .     A
C540   O588    1.412   .     S
C540   H561    1.114   .     S
C540   H563    1.109   .     S
C540   H560    1.111   .     S
C541   H566    1.115   .     S
C541   H564    1.111   .     S
C541   O589    1.413   .     S
C541   H565    1.108   .     S
C542   H568    1.112   .     S
C542   H569    1.110   .     S
C542   H567    1.109   .     S
C542   O590    1.415   .     S
C543   H570    1.113   .     S
C543   H571    1.109   .     S
C543   O591    1.410   .     S
C543   H572    1.114   .     S
C544   H576    1.108   .     S
C544   O592    1.411   .     S
C544   H575    1.104   .     S
C544   H574    1.115   .     S
C545   O597    1.289   .     A
C545   O598    1.287   .     A
C546   H551    1.081   .     S
C546   N584    1.364   .     A
C547   H562    1.081   .     S
C547   N583    1.364   .     A
C547   C32     1.411   1_565 S
C548   N584    1.364   .     A
C548   H573    1.079   .     S
C549   N583    1.365   .     A
C549   H577    1.081   .     S
C549   C30     1.411   1_565 S
C550   O589    1.385   .     S
C550   C691    1.379   1_455 S
N583   Zn601   1.998   .     S
N584   Zn602   1.998   .     S
O585   Zn601   2.011   .     S
O593   Zn602   2.011   .     S
O594   Zn601   2.010   .     S
O595   Zn602   2.010   .     S
O596   Zn601   1.988   .     S
O597   Zn602   1.988   .     S
O598   Zn601   1.985   .     S
O599   Zn602   1.985   .     S
C603   C621    1.440   .     S
C603   O671    1.283   .     A
C603   O681    1.282   .     A
C604   C620    1.411   .     A
C604   O676    1.385   .     S
C604   C692    1.382   .     S
C605   C620    1.404   .     A
C605   O677    1.384   .     S
C605   C722    1.379   .     S
C606   C621    1.411   .     A
C606   O678    1.389   .     S
C607   C618    1.394   .     A
C607   C611    1.388   .     A
C607   H664    1.083   .     S
C608   H665    1.084   .     S
C608   C619    1.393   .     A
C608   C612    1.390   .     A
C609   C613    1.386   .     A
C609   C619    1.391   .     A
C609   H666    1.084   .     S
C610   C615    1.403   .     A
C610   H667    1.082   .     S
C610   C618    1.393   .     A
C611   O686    1.388   .     S
C611   C616    1.406   .     A
C612   C617    1.415   .     A
C612   O672    1.384   .     S
C613   O673    1.383   .     S
C613   C617    1.419   .     A
C614   O680    1.278   .     A
C614   O679    1.285   .     A
C614   C620    1.438   .     S
C615   C616    1.413   .     A
C615   O674    1.398   .     S
C616   C625    1.442   .     S
C617   C631    1.461   .     S
C618   C1393   1.443   1_554 S
C619   C1392   1.443   .     S
C621   C636    1.413   .     A
C622   H668    1.109   .     S
C622   O686    1.413   .     S
C622   H639    1.115   .     S
C622   H638    1.111   .     S
C623   H640    1.109   .     S
C623   H641    1.114   .     S
C623   O672    1.412   .     S
C623   H642    1.112   .     S
C624   H643    1.114   .     S
C624   H645    1.113   .     S
C624   O673    1.410   .     S
C624   H644    1.110   .     S
C625   O685    1.284   .     A
C625   O682    1.281   .     A
C626   O674    1.412   .     S
C626   H647    1.114   .     S
C626   H649    1.109   .     S
C626   H646    1.111   .     S
C627   H652    1.115   .     S
C627   H650    1.111   .     S
C627   O675    1.413   .     S
C627   H651    1.108   .     S
C628   H654    1.112   .     S
C628   H655    1.110   .     S
C628   H653    1.109   .     S
C628   O676    1.415   .     S
C629   H656    1.113   .     S
C629   H657    1.109   .     S
C629   O677    1.410   .     S
C629   H658    1.114   .     S
C630   H662    1.108   .     S
C630   O678    1.411   .     S
C630   H661    1.104   .     S
C630   H660    1.115   .     S
C631   O683    1.289   .     A
C631   O684    1.287   .     A
C632   H637    1.081   .     S
C632   N670    1.364   .     A
C633   H648    1.081   .     S
C633   N669    1.364   .     A
C633   C118    1.411   1_565 S
C634   N670    1.364   .     A
C634   H659    1.079   .     S
C635   N669    1.365   .     A
C635   H663    1.081   .     S
C635   C116    1.411   1_565 S
C636   O675    1.385   .     S
N669   Zn687   1.998   .     S
N670   Zn688   1.998   .     S
O671   Zn687   2.011   .     S
O679   Zn688   2.011   .     S
O680   Zn687   2.010   .     S
O681   Zn688   2.010   .     S
O682   Zn687   1.988   .     S
O683   Zn688   1.988   .     S
O684   Zn687   1.985   .     S
O685   Zn688   1.985   .     S
C689   C707    1.440   .     S
C689   O757    1.283   .     A
C689   O767    1.282   .     A
C690   C706    1.411   .     A
C690   O762    1.385   .     S
C690   C520    1.382   1_655 S
C691   C706    1.404   .     A
C691   O763    1.384   .     S
C691   C550    1.379   1_655 S
C692   C707    1.411   .     A
C692   O764    1.389   .     S
C693   C704    1.394   .     A
C693   C697    1.388   .     A
C693   H750    1.083   .     S
C694   H751    1.084   .     S
C694   C705    1.393   .     A
C694   C698    1.390   .     A
C695   C699    1.386   .     A
C695   C705    1.391   .     A
C695   H752    1.084   .     S
C696   C701    1.403   .     A
C696   H753    1.082   .     S
C696   C704    1.393   .     A
C697   O772    1.388   .     S
C697   C702    1.406   .     A
C698   C703    1.415   .     A
C698   O758    1.384   .     S
C699   O759    1.383   .     S
C699   C703    1.419   .     A
C700   O766    1.278   .     A
C700   O765    1.285   .     A
C700   C706    1.438   .     S
C701   C702    1.413   .     A
C701   O760    1.398   .     S
C702   C711    1.442   .     S
C703   C717    1.461   .     S
C704   C1479   1.443   1_554 S
C705   C1478   1.443   .     S
C707   C722    1.413   .     A
C708   H754    1.109   .     S
C708   O772    1.413   .     S
C708   H725    1.115   .     S
C708   H724    1.111   .     S
C709   H726    1.109   .     S
C709   H727    1.114   .     S
C709   O758    1.412   .     S
C709   H728    1.112   .     S
C710   H729    1.114   .     S
C710   H731    1.113   .     S
C710   O759    1.410   .     S
C710   H730    1.110   .     S
C711   O771    1.284   .     A
C711   O768    1.281   .     A
C712   O760    1.412   .     S
C712   H733    1.114   .     S
C712   H735    1.109   .     S
C712   H732    1.111   .     S
C713   H738    1.115   .     S
C713   H736    1.111   .     S
C713   O761    1.413   .     S
C713   H737    1.108   .     S
C714   H740    1.112   .     S
C714   H741    1.110   .     S
C714   H739    1.109   .     S
C714   O762    1.415   .     S
C715   H742    1.113   .     S
C715   H743    1.109   .     S
C715   O763    1.410   .     S
C715   H744    1.114   .     S
C716   H748    1.108   .     S
C716   O764    1.411   .     S
C716   H747    1.104   .     S
C716   H746    1.115   .     S
C717   O769    1.289   .     A
C717   O770    1.287   .     A
C718   H723    1.081   .     S
C718   N756    1.364   .     A
C719   H734    1.081   .     S
C719   N755    1.364   .     A
C719   C204    1.411   1_565 S
C720   N756    1.364   .     A
C720   H745    1.079   .     S
C721   N755    1.365   .     A
C721   H749    1.081   .     S
C721   C202    1.411   1_565 S
C722   O761    1.385   .     S
N755   Zn773   1.998   .     S
N756   Zn774   1.998   .     S
O757   Zn773   2.011   .     S
O765   Zn774   2.011   .     S
O766   Zn773   2.010   .     S
O767   Zn774   2.010   .     S
O768   Zn773   1.988   .     S
O769   Zn774   1.988   .     S
O770   Zn773   1.985   .     S
O771   Zn774   1.985   .     S
C775   C793    1.440   .     S
C775   O843    1.283   .     A
C775   O853    1.282   .     A
C776   C792    1.411   .     A
C776   O848    1.385   .     S
C776   C864    1.382   .     S
C777   C792    1.404   .     A
C777   O849    1.384   .     S
C777   C894    1.379   .     S
C778   C793    1.411   .     A
C778   O850    1.389   .     S
C778   C948    1.382   1_455 S
C779   C790    1.394   .     A
C779   C783    1.388   .     A
C779   H836    1.083   .     S
C780   H837    1.084   .     S
C780   C791    1.393   .     A
C780   C784    1.390   .     A
C781   C785    1.386   .     A
C781   C791    1.391   .     A
C781   H838    1.084   .     S
C782   C787    1.403   .     A
C782   H839    1.082   .     S
C782   C790    1.393   .     A
C783   O858    1.388   .     S
C783   C788    1.406   .     A
C784   C789    1.415   .     A
C784   O844    1.384   .     S
C785   O845    1.383   .     S
C785   C789    1.419   .     A
C786   O852    1.278   .     A
C786   O851    1.285   .     A
C786   C792    1.438   .     S
C787   C788    1.413   .     A
C787   O846    1.398   .     S
C788   C797    1.442   .     S
C789   C803    1.461   .     S
C791   C16     1.443   1_556 S
C793   C808    1.413   .     A
C794   H840    1.109   .     S
C794   O858    1.413   .     S
C794   H811    1.115   .     S
C794   H810    1.111   .     S
C795   H812    1.109   .     S
C795   H813    1.114   .     S
C795   O844    1.412   .     S
C795   H814    1.112   .     S
C796   H815    1.114   .     S
C796   H817    1.113   .     S
C796   O845    1.410   .     S
C796   H816    1.110   .     S
C797   O857    1.284   .     A
C797   O854    1.281   .     A
C798   O846    1.412   .     S
C798   H819    1.114   .     S
C798   H821    1.109   .     S
C798   H818    1.111   .     S
C799   H824    1.115   .     S
C799   H822    1.111   .     S
C799   O847    1.413   .     S
C799   H823    1.108   .     S
C800   H826    1.112   .     S
C800   H827    1.110   .     S
C800   H825    1.109   .     S
C800   O848    1.415   .     S
C801   H828    1.113   .     S
C801   H829    1.109   .     S
C801   O849    1.410   .     S
C801   H830    1.114   .     S
C802   H834    1.108   .     S
C802   O850    1.411   .     S
C802   H833    1.104   .     S
C802   H832    1.115   .     S
C803   O855    1.289   .     A
C803   O856    1.287   .     A
C804   H809    1.081   .     S
C804   N842    1.364   .     A
C804   C1323   1.411   1_545 S
C805   H820    1.081   .     S
C805   N841    1.364   .     A
C805   C1064   1.411   .     S
C806   N842    1.364   .     A
C806   H831    1.079   .     S
C806   C1321   1.411   1_545 S
C807   N841    1.365   .     A
C807   H835    1.081   .     S
C807   C1062   1.411   .     S
C808   O847    1.385   .     S
C808   C949    1.379   1_455 S
N841   Zn859   1.998   .     S
N842   Zn860   1.998   .     S
O843   Zn859   2.011   .     S
O851   Zn860   2.011   .     S
O852   Zn859   2.010   .     S
O853   Zn860   2.010   .     S
O854   Zn859   1.988   .     S
O855   Zn860   1.988   .     S
O856   Zn859   1.985   .     S
O857   Zn860   1.985   .     S
C861   C879    1.440   .     S
C861   O929    1.283   .     A
C861   O939    1.282   .     A
C862   C878    1.411   .     A
C862   O934    1.385   .     S
C862   C950    1.382   .     S
C863   C878    1.404   .     A
C863   O935    1.384   .     S
C863   C980    1.379   .     S
C864   C879    1.411   .     A
C864   O936    1.389   .     S
C865   C876    1.394   .     A
C865   C869    1.388   .     A
C865   H922    1.083   .     S
C866   H923    1.084   .     S
C866   C877    1.393   .     A
C866   C870    1.390   .     A
C867   C871    1.386   .     A
C867   C877    1.391   .     A
C867   H924    1.084   .     S
C868   C873    1.403   .     A
C868   H925    1.082   .     S
C868   C876    1.393   .     A
C869   O944    1.388   .     S
C869   C874    1.406   .     A
C870   C875    1.415   .     A
C870   O930    1.384   .     S
C871   O931    1.383   .     S
C871   C875    1.419   .     A
C872   O938    1.278   .     A
C872   O937    1.285   .     A
C872   C878    1.438   .     S
C873   C874    1.413   .     A
C873   O932    1.398   .     S
C874   C883    1.442   .     S
C875   C889    1.461   .     S
C877   C102    1.443   1_556 S
C879   C894    1.413   .     A
C880   H926    1.109   .     S
C880   O944    1.413   .     S
C880   H897    1.115   .     S
C880   H896    1.111   .     S
C881   H898    1.109   .     S
C881   H899    1.114   .     S
C881   O930    1.412   .     S
C881   H900    1.112   .     S
C882   H901    1.114   .     S
C882   H903    1.113   .     S
C882   O931    1.410   .     S
C882   H902    1.110   .     S
C883   O943    1.284   .     A
C883   O940    1.281   .     A
C884   O932    1.412   .     S
C884   H905    1.114   .     S
C884   H907    1.109   .     S
C884   H904    1.111   .     S
C885   H910    1.115   .     S
C885   H908    1.111   .     S
C885   O933    1.413   .     S
C885   H909    1.108   .     S
C886   H912    1.112   .     S
C886   H913    1.110   .     S
C886   H911    1.109   .     S
C886   O934    1.415   .     S
C887   H914    1.113   .     S
C887   H915    1.109   .     S
C887   O935    1.410   .     S
C887   H916    1.114   .     S
C888   H920    1.108   .     S
C888   O936    1.411   .     S
C888   H919    1.104   .     S
C888   H918    1.115   .     S
C889   O941    1.289   .     A
C889   O942    1.287   .     A
C890   H895    1.081   .     S
C890   N928    1.364   .     A
C890   C1409   1.411   1_545 S
C891   H906    1.081   .     S
C891   N927    1.364   .     A
C891   C1150   1.411   .     S
C892   N928    1.364   .     A
C892   H917    1.079   .     S
C892   C1407   1.411   1_545 S
C893   N927    1.365   .     A
C893   H921    1.081   .     S
C893   C1148   1.411   .     S
C894   O933    1.385   .     S
N927   Zn945   1.998   .     S
N928   Zn946   1.998   .     S
O929   Zn945   2.011   .     S
O937   Zn946   2.011   .     S
O938   Zn945   2.010   .     S
O939   Zn946   2.010   .     S
O940   Zn945   1.988   .     S
O941   Zn946   1.988   .     S
O942   Zn945   1.985   .     S
O943   Zn946   1.985   .     S
C947   C965    1.440   .     S
C947   O1015   1.283   .     A
C947   O1025   1.282   .     A
C948   C964    1.411   .     A
C948   O1020   1.385   .     S
C948   C778    1.382   1_655 S
C949   C964    1.404   .     A
C949   O1021   1.384   .     S
C949   C808    1.379   1_655 S
C950   C965    1.411   .     A
C950   O1022   1.389   .     S
C951   C962    1.394   .     A
C951   C955    1.388   .     A
C951   H1008   1.083   .     S
C952   H1009   1.084   .     S
C952   C963    1.393   .     A
C952   C956    1.390   .     A
C953   C957    1.386   .     A
C953   C963    1.391   .     A
C953   H1010   1.084   .     S
C954   C959    1.403   .     A
C954   H1011   1.082   .     S
C954   C962    1.393   .     A
C955   O1030   1.388   .     S
C955   C960    1.406   .     A
C956   C961    1.415   .     A
C956   O1016   1.384   .     S
C957   O1017   1.383   .     S
C957   C961    1.419   .     A
C958   O1024   1.278   .     A
C958   O1023   1.285   .     A
C958   C964    1.438   .     S
C959   C960    1.413   .     A
C959   O1018   1.398   .     S
C960   C969    1.442   .     S
C961   C975    1.461   .     S
C963   C188    1.443   1_556 S
C965   C980    1.413   .     A
C966   H1012   1.109   .     S
C966   O1030   1.413   .     S
C966   H983    1.115   .     S
C966   H982    1.111   .     S
C967   H984    1.109   .     S
C967   H985    1.114   .     S
C967   O1016   1.412   .     S
C967   H986    1.112   .     S
C968   H987    1.114   .     S
C968   H989    1.113   .     S
C968   O1017   1.410   .     S
C968   H988    1.110   .     S
C969   O1029   1.284   .     A
C969   O1026   1.281   .     A
C970   O1018   1.412   .     S
C970   H991    1.114   .     S
C970   H993    1.109   .     S
C970   H990    1.111   .     S
C971   H996    1.115   .     S
C971   H994    1.111   .     S
C971   O1019   1.413   .     S
C971   H995    1.108   .     S
C972   H998    1.112   .     S
C972   H999    1.110   .     S
C972   H997    1.109   .     S
C972   O1020   1.415   .     S
C973   H1000   1.113   .     S
C973   H1001   1.109   .     S
C973   O1021   1.410   .     S
C973   H1002   1.114   .     S
C974   H1006   1.108   .     S
C974   O1022   1.411   .     S
C974   H1005   1.104   .     S
C974   H1004   1.115   .     S
C975   O1027   1.289   .     A
C975   O1028   1.287   .     A
C976   H981    1.081   .     S
C976   N1014   1.364   .     A
C976   C1495   1.411   1_545 S
C977   H992    1.081   .     S
C977   N1013   1.364   .     A
C977   C1236   1.411   .     S
C978   N1014   1.364   .     A
C978   H1003   1.079   .     S
C978   C1493   1.411   1_545 S
C979   N1013   1.365   .     A
C979   H1007   1.081   .     S
C979   C1234   1.411   .     S
C980   O1019   1.385   .     S
N1013  Zn1031  1.998   .     S
N1014  Zn1032  1.998   .     S
O1015  Zn1031  2.011   .     S
O1023  Zn1032  2.011   .     S
O1024  Zn1031  2.010   .     S
O1025  Zn1032  2.010   .     S
O1026  Zn1031  1.988   .     S
O1027  Zn1032  1.988   .     S
O1028  Zn1031  1.985   .     S
O1029  Zn1032  1.985   .     S
C1033  C1051   1.440   .     S
C1033  O1101   1.283   .     A
C1033  O1111   1.282   .     A
C1034  C1050   1.411   .     A
C1034  O1106   1.385   .     S
C1034  C1122   1.382   .     S
C1035  C1050   1.404   .     A
C1035  O1107   1.384   .     S
C1035  C1152   1.379   .     S
C1036  C1051   1.411   .     A
C1036  O1108   1.389   .     S
C1036  C1206   1.382   1_455 S
C1037  C1048   1.394   .     A
C1037  C1041   1.388   .     A
C1037  H1094   1.083   .     S
C1038  H1095   1.084   .     S
C1038  C1049   1.393   .     A
C1038  C1042   1.390   .     A
C1039  C1043   1.386   .     A
C1039  C1049   1.391   .     A
C1039  H1096   1.084   .     S
C1040  C1045   1.403   .     A
C1040  H1097   1.082   .     S
C1040  C1048   1.393   .     A
C1041  O1116   1.388   .     S
C1041  C1046   1.406   .     A
C1042  C1047   1.415   .     A
C1042  O1102   1.384   .     S
C1043  O1103   1.383   .     S
C1043  C1047   1.419   .     A
C1044  O1110   1.278   .     A
C1044  O1109   1.285   .     A
C1044  C1050   1.438   .     S
C1045  C1046   1.413   .     A
C1045  O1104   1.398   .     S
C1046  C1055   1.442   .     S
C1047  C1061   1.461   .     S
C1049  C274    1.443   1_556 S
C1051  C1066   1.413   .     A
C1052  H1098   1.109   .     S
C1052  O1116   1.413   .     S
C1052  H1069   1.115   .     S
C1052  H1068   1.111   .     S
C1053  H1070   1.109   .     S
C1053  H1071   1.114   .     S
C1053  O1102   1.412   .     S
C1053  H1072   1.112   .     S
C1054  H1073   1.114   .     S
C1054  H1075   1.113   .     S
C1054  O1103   1.410   .     S
C1054  H1074   1.110   .     S
C1055  O1115   1.284   .     A
C1055  O1112   1.281   .     A
C1056  O1104   1.412   .     S
C1056  H1077   1.114   .     S
C1056  H1079   1.109   .     S
C1056  H1076   1.111   .     S
C1057  H1082   1.115   .     S
C1057  H1080   1.111   .     S
C1057  O1105   1.413   .     S
C1057  H1081   1.108   .     S
C1058  H1084   1.112   .     S
C1058  H1085   1.110   .     S
C1058  H1083   1.109   .     S
C1058  O1106   1.415   .     S
C1059  H1086   1.113   .     S
C1059  H1087   1.109   .     S
C1059  O1107   1.410   .     S
C1059  H1088   1.114   .     S
C1060  H1092   1.108   .     S
C1060  O1108   1.411   .     S
C1060  H1091   1.104   .     S
C1060  H1090   1.115   .     S
C1061  O1113   1.289   .     A
C1061  O1114   1.287   .     A
C1062  H1067   1.081   .     S
C1062  N1100   1.364   .     A
C1063  H1078   1.081   .     S
C1063  N1099   1.364   .     A
C1063  C1322   1.411   .     S
C1064  N1100   1.364   .     A
C1064  H1089   1.079   .     S
C1065  N1099   1.365   .     A
C1065  H1093   1.081   .     S
C1065  C1320   1.411   .     S
C1066  O1105   1.385   .     S
C1066  C1207   1.379   1_455 S
N1099  Zn1117  1.998   .     S
N1100  Zn1118  1.998   .     S
O1101  Zn1117  2.011   .     S
O1109  Zn1118  2.011   .     S
O1110  Zn1117  2.010   .     S
O1111  Zn1118  2.010   .     S
O1112  Zn1117  1.988   .     S
O1113  Zn1118  1.988   .     S
O1114  Zn1117  1.985   .     S
O1115  Zn1118  1.985   .     S
C1119  C1137   1.440   .     S
C1119  O1187   1.283   .     A
C1119  O1197   1.282   .     A
C1120  C1136   1.411   .     A
C1120  O1192   1.385   .     S
C1120  C1208   1.382   .     S
C1121  C1136   1.404   .     A
C1121  O1193   1.384   .     S
C1121  C1238   1.379   .     S
C1122  C1137   1.411   .     A
C1122  O1194   1.389   .     S
C1123  C1134   1.394   .     A
C1123  C1127   1.388   .     A
C1123  H1180   1.083   .     S
C1124  H1181   1.084   .     S
C1124  C1135   1.393   .     A
C1124  C1128   1.390   .     A
C1125  C1129   1.386   .     A
C1125  C1135   1.391   .     A
C1125  H1182   1.084   .     S
C1126  C1131   1.403   .     A
C1126  H1183   1.082   .     S
C1126  C1134   1.393   .     A
C1127  O1202   1.388   .     S
C1127  C1132   1.406   .     A
C1128  C1133   1.415   .     A
C1128  O1188   1.384   .     S
C1129  O1189   1.383   .     S
C1129  C1133   1.419   .     A
C1130  O1196   1.278   .     A
C1130  O1195   1.285   .     A
C1130  C1136   1.438   .     S
C1131  C1132   1.413   .     A
C1131  O1190   1.398   .     S
C1132  C1141   1.442   .     S
C1133  C1147   1.461   .     S
C1135  C360    1.443   1_556 S
C1137  C1152   1.413   .     A
C1138  H1184   1.109   .     S
C1138  O1202   1.413   .     S
C1138  H1155   1.115   .     S
C1138  H1154   1.111   .     S
C1139  H1156   1.109   .     S
C1139  H1157   1.114   .     S
C1139  O1188   1.412   .     S
C1139  H1158   1.112   .     S
C1140  H1159   1.114   .     S
C1140  H1161   1.113   .     S
C1140  O1189   1.410   .     S
C1140  H1160   1.110   .     S
C1141  O1201   1.284   .     A
C1141  O1198   1.281   .     A
C1142  O1190   1.412   .     S
C1142  H1163   1.114   .     S
C1142  H1165   1.109   .     S
C1142  H1162   1.111   .     S
C1143  H1168   1.115   .     S
C1143  H1166   1.111   .     S
C1143  O1191   1.413   .     S
C1143  H1167   1.108   .     S
C1144  H1170   1.112   .     S
C1144  H1171   1.110   .     S
C1144  H1169   1.109   .     S
C1144  O1192   1.415   .     S
C1145  H1172   1.113   .     S
C1145  H1173   1.109   .     S
C1145  O1193   1.410   .     S
C1145  H1174   1.114   .     S
C1146  H1178   1.108   .     S
C1146  O1194   1.411   .     S
C1146  H1177   1.104   .     S
C1146  H1176   1.115   .     S
C1147  O1199   1.289   .     A
C1147  O1200   1.287   .     A
C1148  H1153   1.081   .     S
C1148  N1186   1.364   .     A
C1149  H1164   1.081   .     S
C1149  N1185   1.364   .     A
C1149  C1408   1.411   .     S
C1150  N1186   1.364   .     A
C1150  H1175   1.079   .     S
C1151  N1185   1.365   .     A
C1151  H1179   1.081   .     S
C1151  C1406   1.411   .     S
C1152  O1191   1.385   .     S
N1185  Zn1203  1.998   .     S
N1186  Zn1204  1.998   .     S
O1187  Zn1203  2.011   .     S
O1195  Zn1204  2.011   .     S
O1196  Zn1203  2.010   .     S
O1197  Zn1204  2.010   .     S
O1198  Zn1203  1.988   .     S
O1199  Zn1204  1.988   .     S
O1200  Zn1203  1.985   .     S
O1201  Zn1204  1.985   .     S
C1205  C1223   1.440   .     S
C1205  O1273   1.283   .     A
C1205  O1283   1.282   .     A
C1206  C1222   1.411   .     A
C1206  O1278   1.385   .     S
C1206  C1036   1.382   1_655 S
C1207  C1222   1.404   .     A
C1207  O1279   1.384   .     S
C1207  C1066   1.379   1_655 S
C1208  C1223   1.411   .     A
C1208  O1280   1.389   .     S
C1209  C1220   1.394   .     A
C1209  C1213   1.388   .     A
C1209  H1266   1.083   .     S
C1210  H1267   1.084   .     S
C1210  C1221   1.393   .     A
C1210  C1214   1.390   .     A
C1211  C1215   1.386   .     A
C1211  C1221   1.391   .     A
C1211  H1268   1.084   .     S
C1212  C1217   1.403   .     A
C1212  H1269   1.082   .     S
C1212  C1220   1.393   .     A
C1213  O1288   1.388   .     S
C1213  C1218   1.406   .     A
C1214  C1219   1.415   .     A
C1214  O1274   1.384   .     S
C1215  O1275   1.383   .     S
C1215  C1219   1.419   .     A
C1216  O1282   1.278   .     A
C1216  O1281   1.285   .     A
C1216  C1222   1.438   .     S
C1217  C1218   1.413   .     A
C1217  O1276   1.398   .     S
C1218  C1227   1.442   .     S
C1219  C1233   1.461   .     S
C1221  C446    1.443   1_556 S
C1223  C1238   1.413   .     A
C1224  H1270   1.109   .     S
C1224  O1288   1.413   .     S
C1224  H1241   1.115   .     S
C1224  H1240   1.111   .     S
C1225  H1242   1.109   .     S
C1225  H1243   1.114   .     S
C1225  O1274   1.412   .     S
C1225  H1244   1.112   .     S
C1226  H1245   1.114   .     S
C1226  H1247   1.113   .     S
C1226  O1275   1.410   .     S
C1226  H1246   1.110   .     S
C1227  O1287   1.284   .     A
C1227  O1284   1.281   .     A
C1228  O1276   1.412   .     S
C1228  H1249   1.114   .     S
C1228  H1251   1.109   .     S
C1228  H1248   1.111   .     S
C1229  H1254   1.115   .     S
C1229  H1252   1.111   .     S
C1229  O1277   1.413   .     S
C1229  H1253   1.108   .     S
C1230  H1256   1.112   .     S
C1230  H1257   1.110   .     S
C1230  H1255   1.109   .     S
C1230  O1278   1.415   .     S
C1231  H1258   1.113   .     S
C1231  H1259   1.109   .     S
C1231  O1279   1.410   .     S
C1231  H1260   1.114   .     S
C1232  H1264   1.108   .     S
C1232  O1280   1.411   .     S
C1232  H1263   1.104   .     S
C1232  H1262   1.115   .     S
C1233  O1285   1.289   .     A
C1233  O1286   1.287   .     A
C1234  H1239   1.081   .     S
C1234  N1272   1.364   .     A
C1235  H1250   1.081   .     S
C1235  N1271   1.364   .     A
C1235  C1494   1.411   .     S
C1236  N1272   1.364   .     A
C1236  H1261   1.079   .     S
C1237  N1271   1.365   .     A
C1237  H1265   1.081   .     S
C1237  C1492   1.411   .     S
C1238  O1277   1.385   .     S
N1271  Zn1289  1.998   .     S
N1272  Zn1290  1.998   .     S
O1273  Zn1289  2.011   .     S
O1281  Zn1290  2.011   .     S
O1282  Zn1289  2.010   .     S
O1283  Zn1290  2.010   .     S
O1284  Zn1289  1.988   .     S
O1285  Zn1290  1.988   .     S
O1286  Zn1289  1.985   .     S
O1287  Zn1290  1.985   .     S
C1291  C1309   1.440   .     S
C1291  O1359   1.283   .     A
C1291  O1369   1.282   .     A
C1292  C1308   1.411   .     A
C1292  O1364   1.385   .     S
C1292  C1380   1.382   .     S
C1293  C1308   1.404   .     A
C1293  O1365   1.384   .     S
C1293  C1410   1.379   .     S
C1294  C1309   1.411   .     A
C1294  O1366   1.389   .     S
C1294  C1464   1.382   1_455 S
C1295  C1306   1.394   .     A
C1295  C1299   1.388   .     A
C1295  H1352   1.083   .     S
C1296  H1353   1.084   .     S
C1296  C1307   1.393   .     A
C1296  C1300   1.390   .     A
C1297  C1301   1.386   .     A
C1297  C1307   1.391   .     A
C1297  H1354   1.084   .     S
C1298  C1303   1.403   .     A
C1298  H1355   1.082   .     S
C1298  C1306   1.393   .     A
C1299  O1374   1.388   .     S
C1299  C1304   1.406   .     A
C1300  C1305   1.415   .     A
C1300  O1360   1.384   .     S
C1301  O1361   1.383   .     S
C1301  C1305   1.419   .     A
C1302  O1368   1.278   .     A
C1302  O1367   1.285   .     A
C1302  C1308   1.438   .     S
C1303  C1304   1.413   .     A
C1303  O1362   1.398   .     S
C1304  C1313   1.442   .     S
C1305  C1319   1.461   .     S
C1307  C532    1.443   1_556 S
C1309  C1324   1.413   .     A
C1310  H1356   1.109   .     S
C1310  O1374   1.413   .     S
C1310  H1327   1.115   .     S
C1310  H1326   1.111   .     S
C1311  H1328   1.109   .     S
C1311  H1329   1.114   .     S
C1311  O1360   1.412   .     S
C1311  H1330   1.112   .     S
C1312  H1331   1.114   .     S
C1312  H1333   1.113   .     S
C1312  O1361   1.410   .     S
C1312  H1332   1.110   .     S
C1313  O1373   1.284   .     A
C1313  O1370   1.281   .     A
C1314  O1362   1.412   .     S
C1314  H1335   1.114   .     S
C1314  H1337   1.109   .     S
C1314  H1334   1.111   .     S
C1315  H1340   1.115   .     S
C1315  H1338   1.111   .     S
C1315  O1363   1.413   .     S
C1315  H1339   1.108   .     S
C1316  H1342   1.112   .     S
C1316  H1343   1.110   .     S
C1316  H1341   1.109   .     S
C1316  O1364   1.415   .     S
C1317  H1344   1.113   .     S
C1317  H1345   1.109   .     S
C1317  O1365   1.410   .     S
C1317  H1346   1.114   .     S
C1318  H1350   1.108   .     S
C1318  O1366   1.411   .     S
C1318  H1349   1.104   .     S
C1318  H1348   1.115   .     S
C1319  O1371   1.289   .     A
C1319  O1372   1.287   .     A
C1320  H1325   1.081   .     S
C1320  N1358   1.364   .     A
C1321  H1336   1.081   .     S
C1321  N1357   1.364   .     A
C1321  C806    1.411   1_565 S
C1322  N1358   1.364   .     A
C1322  H1347   1.079   .     S
C1323  N1357   1.365   .     A
C1323  H1351   1.081   .     S
C1323  C804    1.411   1_565 S
C1324  O1363   1.385   .     S
C1324  C1465   1.379   1_455 S
N1357  Zn1375  1.998   .     S
N1358  Zn1376  1.998   .     S
O1359  Zn1375  2.011   .     S
O1367  Zn1376  2.011   .     S
O1368  Zn1375  2.010   .     S
O1369  Zn1376  2.010   .     S
O1370  Zn1375  1.988   .     S
O1371  Zn1376  1.988   .     S
O1372  Zn1375  1.985   .     S
O1373  Zn1376  1.985   .     S
C1377  C1395   1.440   .     S
C1377  O1445   1.283   .     A
C1377  O1455   1.282   .     A
C1378  C1394   1.411   .     A
C1378  O1450   1.385   .     S
C1378  C1466   1.382   .     S
C1379  C1394   1.404   .     A
C1379  O1451   1.384   .     S
C1379  C1496   1.379   .     S
C1380  C1395   1.411   .     A
C1380  O1452   1.389   .     S
C1381  C1392   1.394   .     A
C1381  C1385   1.388   .     A
C1381  H1438   1.083   .     S
C1382  H1439   1.084   .     S
C1382  C1393   1.393   .     A
C1382  C1386   1.390   .     A
C1383  C1387   1.386   .     A
C1383  C1393   1.391   .     A
C1383  H1440   1.084   .     S
C1384  C1389   1.403   .     A
C1384  H1441   1.082   .     S
C1384  C1392   1.393   .     A
C1385  O1460   1.388   .     S
C1385  C1390   1.406   .     A
C1386  C1391   1.415   .     A
C1386  O1446   1.384   .     S
C1387  O1447   1.383   .     S
C1387  C1391   1.419   .     A
C1388  O1454   1.278   .     A
C1388  O1453   1.285   .     A
C1388  C1394   1.438   .     S
C1389  C1390   1.413   .     A
C1389  O1448   1.398   .     S
C1390  C1399   1.442   .     S
C1391  C1405   1.461   .     S
C1393  C618    1.443   1_556 S
C1395  C1410   1.413   .     A
C1396  H1442   1.109   .     S
C1396  O1460   1.413   .     S
C1396  H1413   1.115   .     S
C1396  H1412   1.111   .     S
C1397  H1414   1.109   .     S
C1397  H1415   1.114   .     S
C1397  O1446   1.412   .     S
C1397  H1416   1.112   .     S
C1398  H1417   1.114   .     S
C1398  H1419   1.113   .     S
C1398  O1447   1.410   .     S
C1398  H1418   1.110   .     S
C1399  O1459   1.284   .     A
C1399  O1456   1.281   .     A
C1400  O1448   1.412   .     S
C1400  H1421   1.114   .     S
C1400  H1423   1.109   .     S
C1400  H1420   1.111   .     S
C1401  H1426   1.115   .     S
C1401  H1424   1.111   .     S
C1401  O1449   1.413   .     S
C1401  H1425   1.108   .     S
C1402  H1428   1.112   .     S
C1402  H1429   1.110   .     S
C1402  H1427   1.109   .     S
C1402  O1450   1.415   .     S
C1403  H1430   1.113   .     S
C1403  H1431   1.109   .     S
C1403  O1451   1.410   .     S
C1403  H1432   1.114   .     S
C1404  H1436   1.108   .     S
C1404  O1452   1.411   .     S
C1404  H1435   1.104   .     S
C1404  H1434   1.115   .     S
C1405  O1457   1.289   .     A
C1405  O1458   1.287   .     A
C1406  H1411   1.081   .     S
C1406  N1444   1.364   .     A
C1407  H1422   1.081   .     S
C1407  N1443   1.364   .     A
C1407  C892    1.411   1_565 S
C1408  N1444   1.364   .     A
C1408  H1433   1.079   .     S
C1409  N1443   1.365   .     A
C1409  H1437   1.081   .     S
C1409  C890    1.411   1_565 S
C1410  O1449   1.385   .     S
N1443  Zn1461  1.998   .     S
N1444  Zn1462  1.998   .     S
O1445  Zn1461  2.011   .     S
O1453  Zn1462  2.011   .     S
O1454  Zn1461  2.010   .     S
O1455  Zn1462  2.010   .     S
O1456  Zn1461  1.988   .     S
O1457  Zn1462  1.988   .     S
O1458  Zn1461  1.985   .     S
O1459  Zn1462  1.985   .     S
C1463  C1481   1.440   .     S
C1463  O1531   1.283   .     A
C1463  O1541   1.282   .     A
C1464  C1480   1.411   .     A
C1464  O1536   1.385   .     S
C1464  C1294   1.382   1_655 S
C1465  C1480   1.404   .     A
C1465  O1537   1.384   .     S
C1465  C1324   1.379   1_655 S
C1466  C1481   1.411   .     A
C1466  O1538   1.389   .     S
C1467  C1478   1.394   .     A
C1467  C1471   1.388   .     A
C1467  H1524   1.083   .     S
C1468  H1525   1.084   .     S
C1468  C1479   1.393   .     A
C1468  C1472   1.390   .     A
C1469  C1473   1.386   .     A
C1469  C1479   1.391   .     A
C1469  H1526   1.084   .     S
C1470  C1475   1.403   .     A
C1470  H1527   1.082   .     S
C1470  C1478   1.393   .     A
C1471  O1546   1.388   .     S
C1471  C1476   1.406   .     A
C1472  C1477   1.415   .     A
C1472  O1532   1.384   .     S
C1473  O1533   1.383   .     S
C1473  C1477   1.419   .     A
C1474  O1540   1.278   .     A
C1474  O1539   1.285   .     A
C1474  C1480   1.438   .     S
C1475  C1476   1.413   .     A
C1475  O1534   1.398   .     S
C1476  C1485   1.442   .     S
C1477  C1491   1.461   .     S
C1479  C704    1.443   1_556 S
C1481  C1496   1.413   .     A
C1482  H1528   1.109   .     S
C1482  O1546   1.413   .     S
C1482  H1499   1.115   .     S
C1482  H1498   1.111   .     S
C1483  H1500   1.109   .     S
C1483  H1501   1.114   .     S
C1483  O1532   1.412   .     S
C1483  H1502   1.112   .     S
C1484  H1503   1.114   .     S
C1484  H1505   1.113   .     S
C1484  O1533   1.410   .     S
C1484  H1504   1.110   .     S
C1485  O1545   1.284   .     A
C1485  O1542   1.281   .     A
C1486  O1534   1.412   .     S
C1486  H1507   1.114   .     S
C1486  H1509   1.109   .     S
C1486  H1506   1.111   .     S
C1487  H1512   1.115   .     S
C1487  H1510   1.111   .     S
C1487  O1535   1.413   .     S
C1487  H1511   1.108   .     S
C1488  H1514   1.112   .     S
C1488  H1515   1.110   .     S
C1488  H1513   1.109   .     S
C1488  O1536   1.415   .     S
C1489  H1516   1.113   .     S
C1489  H1517   1.109   .     S
C1489  O1537   1.410   .     S
C1489  H1518   1.114   .     S
C1490  H1522   1.108   .     S
C1490  O1538   1.411   .     S
C1490  H1521   1.104   .     S
C1490  H1520   1.115   .     S
C1491  O1543   1.289   .     A
C1491  O1544   1.287   .     A
C1492  H1497   1.081   .     S
C1492  N1530   1.364   .     A
C1493  H1508   1.081   .     S
C1493  N1529   1.364   .     A
C1493  C978    1.411   1_565 S
C1494  N1530   1.364   .     A
C1494  H1519   1.079   .     S
C1495  N1529   1.365   .     A
C1495  H1523   1.081   .     S
C1495  C976    1.411   1_565 S
C1496  O1535   1.385   .     S
N1529  Zn1547  1.998   .     S
N1530  Zn1548  1.998   .     S
O1531  Zn1547  2.011   .     S
O1539  Zn1548  2.011   .     S
O1540  Zn1547  2.010   .     S
O1541  Zn1548  2.010   .     S
O1542  Zn1547  1.988   .     S
O1543  Zn1548  1.988   .     S
O1544  Zn1547  1.985   .     S
O1545  Zn1548  1.985   .     S
