data_str_m3_o2_o10_pcu_sym.134
_audit_creation_date              2020-01-03
_audit_creation_method            'Materials Studio'
_symmetry_space_group_name_H-M    'P1'
_symmetry_Int_Tables_number       1
_symmetry_cell_setting            triclinic
loop_
_symmetry_equiv_pos_as_xyz
  x,y,z
_cell_length_a                    25.7371
_cell_length_b                    29.7920
_cell_length_c                    28.5608
_cell_angle_alpha                 91.0956
_cell_angle_beta                  99.3444
_cell_angle_gamma                 90.7810
loop_
_atom_site_label
_atom_site_type_symbol
_atom_site_fract_x
_atom_site_fract_y
_atom_site_fract_z
_atom_site_U_iso_or_equiv
_atom_site_adp_type
_atom_site_occupancy
C1     C     0.16703   0.16395   0.24964   0.00000  Uiso   1.00
C2     C     0.16737   0.33635   0.25051   0.00000  Uiso   1.00
C3     C     0.12243   0.23635   0.04568   0.00000  Uiso   1.00
C4     C     0.20697   0.27072   0.45389   0.00000  Uiso   1.00
C5     C     0.12347   0.23464   0.09496   0.00000  Uiso   1.00
C6     C     0.20701   0.27038   0.40473   0.00000  Uiso   1.00
C7     C     0.21018   0.26456   0.10911   0.00000  Uiso   1.00
C8     C     0.12725   0.22837   0.39128   0.00000  Uiso   1.00
C9     C     0.21169   0.26382   0.06004   0.00000  Uiso   1.00
C10    C     0.12679   0.22712   0.44051   0.00000  Uiso   1.00
C11    C     0.16706   0.24993   0.02675   0.00000  Uiso   1.00
C12    C     0.16677   0.24918   0.47329   0.00000  Uiso   1.00
C13    C     0.06702   0.24989   0.23744   0.00000  Uiso   1.00
C14    C     0.26631   0.25001   0.26256   0.00000  Uiso   1.00
C15    C     0.01179   0.24973   0.23083   0.00000  Uiso   1.00
C16    C     0.32155   0.25001   0.26919   0.00000  Uiso   1.00
C17    C     0.15174   0.04478   0.27866   0.00000  Uiso   1.00
C18    C     0.17464   0.45456   0.21192   0.00000  Uiso   1.00
C19    C     0.14380   0.09036   0.27639   0.00000  Uiso   1.00
C20    C     0.16618   0.40869   0.21028   0.00000  Uiso   1.00
C21    C     0.17308   0.11627   0.24978   0.00000  Uiso   1.00
C22    C     0.17363   0.38476   0.25235   0.00000  Uiso   1.00
C23    C     0.21132   0.09722   0.22632   0.00000  Uiso   1.00
C24    C     0.19068   0.40684   0.29601   0.00000  Uiso   1.00
C25    C     0.22140   0.05147   0.22978   0.00000  Uiso   1.00
C26    C     0.20155   0.45276   0.29810   0.00000  Uiso   1.00
C27    C     0.19032   0.02523   0.25580   0.00000  Uiso   1.00
C28    C     0.19198   0.47668   0.25542   0.00000  Uiso   1.00
H29    H     0.32406   0.24939   0.19459   0.00000  Uiso   1.00
H30    H     0.00929   0.25031   0.30545   0.00000  Uiso   1.00
H31    H     0.12734   0.02447   0.29786   0.00000  Uiso   1.00
H32    H     0.16627   0.47315   0.17937   0.00000  Uiso   1.00
H33    H     0.11439   0.10533   0.29471   0.00000  Uiso   1.00
H34    H     0.15295   0.39214   0.17624   0.00000  Uiso   1.00
H35    H     0.23466   0.11858   0.20712   0.00000  Uiso   1.00
H36    H     0.19666   0.38814   0.32842   0.00000  Uiso   1.00
H37    H     0.08663   0.22574   0.02280   0.00000  Uiso   1.00
H38    H     0.23851   0.28882   0.47624   0.00000  Uiso   1.00
H39    H     0.24451   0.27615   0.13352   0.00000  Uiso   1.00
H40    H     0.09618   0.21138   0.36706   0.00000  Uiso   1.00
H41    H     0.24833   0.27378   0.04927   0.00000  Uiso   1.00
H42    H     0.09523   0.20827   0.45194   0.00000  Uiso   1.00
N43    N     0.16667   0.24999   0.12624   0.00000  Uiso   1.00
N44    N     0.16667   0.25001   0.37377   0.00000  Uiso   1.00
O45    O     0.16667   0.18453   0.28974   0.00000  Uiso   1.00
O46    O     0.16666   0.31546   0.21026   0.00000  Uiso   1.00
O47    O     0.16667   0.18453   0.21026   0.00000  Uiso   1.00
O48    O     0.16666   0.31547   0.28974   0.00000  Uiso   1.00
O49    O     0.09058   0.25000   0.28045   0.00000  Uiso   1.00
O50    O     0.24275   0.25000   0.21956   0.00000  Uiso   1.00
O51    O     0.09058   0.24999   0.20097   0.00000  Uiso   1.00
O52    O     0.24275   0.25000   0.29904   0.00000  Uiso   1.00
Zn53   Zn    0.16667   0.25000   0.30307   0.00000  Uiso   1.00
Zn54   Zn    0.16667   0.24999   0.19693   0.00000  Uiso   1.00
C55    C     0.26496   0.03281   0.20720   0.00000  Uiso   1.00
O56    O     0.28486   0.49709   0.21992   0.00000  Uiso   1.00
O57    O     0.28431   0.05688   0.17194   0.00000  Uiso   1.00
H58    H     0.31421   0.04111   0.15964   0.00000  Uiso   1.00
C59    C     0.22297   0.47437   0.34487   0.00000  Uiso   1.00
O60    O     0.24702   0.01024   0.34694   0.00000  Uiso   1.00
O61    O     0.21675   0.45298   0.38684   0.00000  Uiso   1.00
H62    H     0.23331   0.47070   0.41629   0.00000  Uiso   1.00
C63    C     0.07779   0.21349   0.11119   0.00000  Uiso   1.00
O64    O     0.08389   0.18124   0.13718   0.00000  Uiso   1.00
O65    O     0.02716   0.22873   0.09444   0.00000  Uiso   1.00
H66    H     0.33218   0.21120   0.10749   0.00000  Uiso   1.00
C67    C     0.25292   0.29130   0.38857   0.00000  Uiso   1.00
O68    O     0.24718   0.32152   0.36013   0.00000  Uiso   1.00
O69    O     0.30354   0.27786   0.40808   0.00000  Uiso   1.00
H70    H     0.33211   0.29477   0.39473   0.00000  Uiso   1.00
C71    C     0.50036   0.16395   0.24964   0.00000  Uiso   1.00
C72    C     0.50070   0.33635   0.25051   0.00000  Uiso   1.00
C73    C     0.45576   0.23635   0.04568   0.00000  Uiso   1.00
C74    C     0.54030   0.27072   0.45389   0.00000  Uiso   1.00
C75    C     0.45680   0.23464   0.09496   0.00000  Uiso   1.00
C76    C     0.54034   0.27038   0.40473   0.00000  Uiso   1.00
C77    C     0.54351   0.26456   0.10911   0.00000  Uiso   1.00
C78    C     0.46058   0.22837   0.39128   0.00000  Uiso   1.00
C79    C     0.54502   0.26382   0.06004   0.00000  Uiso   1.00
C80    C     0.46013   0.22712   0.44051   0.00000  Uiso   1.00
C81    C     0.50039   0.24993   0.02675   0.00000  Uiso   1.00
C82    C     0.50011   0.24918   0.47329   0.00000  Uiso   1.00
C83    C     0.40035   0.24989   0.23744   0.00000  Uiso   1.00
C84    C     0.59965   0.25001   0.26256   0.00000  Uiso   1.00
C85    C     0.34512   0.24973   0.23083   0.00000  Uiso   1.00
C86    C     0.65488   0.25001   0.26919   0.00000  Uiso   1.00
C87    C     0.48507   0.04478   0.27866   0.00000  Uiso   1.00
C88    C     0.50797   0.45456   0.21192   0.00000  Uiso   1.00
C89    C     0.47713   0.09036   0.27639   0.00000  Uiso   1.00
C90    C     0.49951   0.40869   0.21028   0.00000  Uiso   1.00
C91    C     0.50641   0.11627   0.24978   0.00000  Uiso   1.00
C92    C     0.50696   0.38476   0.25235   0.00000  Uiso   1.00
C93    C     0.54465   0.09722   0.22632   0.00000  Uiso   1.00
C94    C     0.52401   0.40684   0.29601   0.00000  Uiso   1.00
C95    C     0.55473   0.05147   0.22978   0.00000  Uiso   1.00
C96    C     0.53488   0.45276   0.29810   0.00000  Uiso   1.00
C97    C     0.52365   0.02523   0.25580   0.00000  Uiso   1.00
C98    C     0.52531   0.47668   0.25542   0.00000  Uiso   1.00
H99    H     0.65739   0.24939   0.19459   0.00000  Uiso   1.00
H100   H     0.34262   0.25031   0.30545   0.00000  Uiso   1.00
H101   H     0.46067   0.02447   0.29786   0.00000  Uiso   1.00
H102   H     0.49960   0.47315   0.17937   0.00000  Uiso   1.00
H103   H     0.44772   0.10533   0.29471   0.00000  Uiso   1.00
H104   H     0.48628   0.39214   0.17624   0.00000  Uiso   1.00
H105   H     0.56799   0.11858   0.20712   0.00000  Uiso   1.00
H106   H     0.53000   0.38814   0.32842   0.00000  Uiso   1.00
H107   H     0.41996   0.22574   0.02280   0.00000  Uiso   1.00
H108   H     0.57185   0.28882   0.47624   0.00000  Uiso   1.00
H109   H     0.57784   0.27615   0.13352   0.00000  Uiso   1.00
H110   H     0.42951   0.21138   0.36706   0.00000  Uiso   1.00
H111   H     0.58167   0.27378   0.04927   0.00000  Uiso   1.00
H112   H     0.42856   0.20827   0.45194   0.00000  Uiso   1.00
N113   N     0.50000   0.24999   0.12624   0.00000  Uiso   1.00
N114   N     0.50000   0.25001   0.37377   0.00000  Uiso   1.00
O115   O     0.50000   0.18453   0.28974   0.00000  Uiso   1.00
O116   O     0.50000   0.31546   0.21026   0.00000  Uiso   1.00
O117   O     0.50000   0.18453   0.21026   0.00000  Uiso   1.00
O118   O     0.50000   0.31547   0.28974   0.00000  Uiso   1.00
O119   O     0.42392   0.25000   0.28045   0.00000  Uiso   1.00
O120   O     0.57608   0.25000   0.21956   0.00000  Uiso   1.00
O121   O     0.42392   0.24999   0.20097   0.00000  Uiso   1.00
O122   O     0.57608   0.25000   0.29904   0.00000  Uiso   1.00
Zn123  Zn    0.50000   0.25000   0.30307   0.00000  Uiso   1.00
Zn124  Zn    0.50000   0.24999   0.19693   0.00000  Uiso   1.00
C125   C     0.59829   0.03281   0.20720   0.00000  Uiso   1.00
O126   O     0.61819   0.49709   0.21992   0.00000  Uiso   1.00
O127   O     0.61764   0.05688   0.17194   0.00000  Uiso   1.00
H128   H     0.64755   0.04111   0.15964   0.00000  Uiso   1.00
C129   C     0.55630   0.47437   0.34487   0.00000  Uiso   1.00
O130   O     0.58035   0.01024   0.34694   0.00000  Uiso   1.00
O131   O     0.55008   0.45298   0.38684   0.00000  Uiso   1.00
H132   H     0.56664   0.47070   0.41629   0.00000  Uiso   1.00
C133   C     0.41112   0.21349   0.11119   0.00000  Uiso   1.00
O134   O     0.41723   0.18124   0.13718   0.00000  Uiso   1.00
O135   O     0.36050   0.22873   0.09444   0.00000  Uiso   1.00
H136   H     0.66551   0.21120   0.10749   0.00000  Uiso   1.00
C137   C     0.58626   0.29130   0.38857   0.00000  Uiso   1.00
O138   O     0.58052   0.32152   0.36013   0.00000  Uiso   1.00
O139   O     0.63688   0.27786   0.40808   0.00000  Uiso   1.00
H140   H     0.66544   0.29477   0.39473   0.00000  Uiso   1.00
C141   C     0.83369   0.16395   0.24964   0.00000  Uiso   1.00
C142   C     0.83404   0.33635   0.25051   0.00000  Uiso   1.00
C143   C     0.78910   0.23635   0.04568   0.00000  Uiso   1.00
C144   C     0.87363   0.27072   0.45389   0.00000  Uiso   1.00
C145   C     0.79014   0.23464   0.09496   0.00000  Uiso   1.00
C146   C     0.87368   0.27038   0.40473   0.00000  Uiso   1.00
C147   C     0.87685   0.26456   0.10911   0.00000  Uiso   1.00
C148   C     0.79391   0.22837   0.39128   0.00000  Uiso   1.00
C149   C     0.87835   0.26382   0.06004   0.00000  Uiso   1.00
C150   C     0.79346   0.22712   0.44051   0.00000  Uiso   1.00
C151   C     0.83373   0.24993   0.02675   0.00000  Uiso   1.00
C152   C     0.83344   0.24918   0.47329   0.00000  Uiso   1.00
C153   C     0.73369   0.24989   0.23744   0.00000  Uiso   1.00
C154   C     0.93298   0.25001   0.26256   0.00000  Uiso   1.00
C155   C     0.67845   0.24973   0.23083   0.00000  Uiso   1.00
C156   C     0.98822   0.25001   0.26919   0.00000  Uiso   1.00
C157   C     0.81840   0.04478   0.27866   0.00000  Uiso   1.00
C158   C     0.84131   0.45456   0.21192   0.00000  Uiso   1.00
C159   C     0.81047   0.09036   0.27639   0.00000  Uiso   1.00
C160   C     0.83285   0.40869   0.21028   0.00000  Uiso   1.00
C161   C     0.83974   0.11627   0.24978   0.00000  Uiso   1.00
C162   C     0.84029   0.38476   0.25235   0.00000  Uiso   1.00
C163   C     0.87799   0.09722   0.22632   0.00000  Uiso   1.00
C164   C     0.85734   0.40684   0.29601   0.00000  Uiso   1.00
C165   C     0.88807   0.05147   0.22978   0.00000  Uiso   1.00
C166   C     0.86821   0.45276   0.29810   0.00000  Uiso   1.00
C167   C     0.85699   0.02523   0.25580   0.00000  Uiso   1.00
C168   C     0.85864   0.47668   0.25542   0.00000  Uiso   1.00
H169   H     0.99073   0.24939   0.19459   0.00000  Uiso   1.00
H170   H     0.67596   0.25031   0.30545   0.00000  Uiso   1.00
H171   H     0.79400   0.02447   0.29786   0.00000  Uiso   1.00
H172   H     0.83293   0.47315   0.17937   0.00000  Uiso   1.00
H173   H     0.78106   0.10533   0.29471   0.00000  Uiso   1.00
H174   H     0.81962   0.39214   0.17624   0.00000  Uiso   1.00
H175   H     0.90133   0.11858   0.20712   0.00000  Uiso   1.00
H176   H     0.86333   0.38814   0.32842   0.00000  Uiso   1.00
H177   H     0.75329   0.22574   0.02280   0.00000  Uiso   1.00
H178   H     0.90518   0.28882   0.47624   0.00000  Uiso   1.00
H179   H     0.91118   0.27615   0.13352   0.00000  Uiso   1.00
H180   H     0.76284   0.21138   0.36706   0.00000  Uiso   1.00
H181   H     0.91500   0.27378   0.04927   0.00000  Uiso   1.00
H182   H     0.76189   0.20827   0.45194   0.00000  Uiso   1.00
N183   N     0.83333   0.24999   0.12624   0.00000  Uiso   1.00
N184   N     0.83333   0.25001   0.37377   0.00000  Uiso   1.00
O185   O     0.83334   0.18453   0.28974   0.00000  Uiso   1.00
O186   O     0.83333   0.31546   0.21026   0.00000  Uiso   1.00
O187   O     0.83334   0.18453   0.21026   0.00000  Uiso   1.00
O188   O     0.83333   0.31547   0.28974   0.00000  Uiso   1.00
O189   O     0.75725   0.25000   0.28045   0.00000  Uiso   1.00
O190   O     0.90942   0.25000   0.21956   0.00000  Uiso   1.00
O191   O     0.75725   0.24999   0.20097   0.00000  Uiso   1.00
O192   O     0.90942   0.25000   0.29904   0.00000  Uiso   1.00
Zn193  Zn    0.83333   0.25000   0.30307   0.00000  Uiso   1.00
Zn194  Zn    0.83333   0.24999   0.19693   0.00000  Uiso   1.00
C195   C     0.93163   0.03281   0.20720   0.00000  Uiso   1.00
O196   O     0.95152   0.49709   0.21992   0.00000  Uiso   1.00
O197   O     0.95098   0.05688   0.17194   0.00000  Uiso   1.00
H198   H     0.98088   0.04111   0.15964   0.00000  Uiso   1.00
C199   C     0.88963   0.47437   0.34487   0.00000  Uiso   1.00
O200   O     0.91368   0.01024   0.34694   0.00000  Uiso   1.00
O201   O     0.88341   0.45298   0.38684   0.00000  Uiso   1.00
H202   H     0.89997   0.47070   0.41629   0.00000  Uiso   1.00
C203   C     0.74446   0.21349   0.11119   0.00000  Uiso   1.00
O204   O     0.75056   0.18124   0.13718   0.00000  Uiso   1.00
O205   O     0.69383   0.22873   0.09444   0.00000  Uiso   1.00
H206   H     0.99885   0.21120   0.10749   0.00000  Uiso   1.00
C207   C     0.91959   0.29130   0.38857   0.00000  Uiso   1.00
O208   O     0.91385   0.32152   0.36013   0.00000  Uiso   1.00
O209   O     0.97021   0.27786   0.40808   0.00000  Uiso   1.00
H210   H     0.99878   0.29477   0.39473   0.00000  Uiso   1.00
C211   C     0.16703   0.66395   0.24964   0.00000  Uiso   1.00
C212   C     0.16737   0.83635   0.25051   0.00000  Uiso   1.00
C213   C     0.12243   0.73635   0.04568   0.00000  Uiso   1.00
C214   C     0.20697   0.77072   0.45389   0.00000  Uiso   1.00
C215   C     0.12347   0.73464   0.09496   0.00000  Uiso   1.00
C216   C     0.20701   0.77038   0.40473   0.00000  Uiso   1.00
C217   C     0.21018   0.76456   0.10911   0.00000  Uiso   1.00
C218   C     0.12725   0.72837   0.39128   0.00000  Uiso   1.00
C219   C     0.21169   0.76382   0.06004   0.00000  Uiso   1.00
C220   C     0.12679   0.72712   0.44051   0.00000  Uiso   1.00
C221   C     0.16706   0.74993   0.02675   0.00000  Uiso   1.00
C222   C     0.16677   0.74918   0.47329   0.00000  Uiso   1.00
C223   C     0.06702   0.74989   0.23744   0.00000  Uiso   1.00
C224   C     0.26631   0.75001   0.26256   0.00000  Uiso   1.00
C225   C     0.01179   0.74973   0.23083   0.00000  Uiso   1.00
C226   C     0.32155   0.75001   0.26919   0.00000  Uiso   1.00
C227   C     0.15174   0.54478   0.27866   0.00000  Uiso   1.00
C228   C     0.17464   0.95456   0.21192   0.00000  Uiso   1.00
C229   C     0.14380   0.59036   0.27639   0.00000  Uiso   1.00
C230   C     0.16618   0.90869   0.21028   0.00000  Uiso   1.00
C231   C     0.17308   0.61627   0.24978   0.00000  Uiso   1.00
C232   C     0.17363   0.88476   0.25235   0.00000  Uiso   1.00
C233   C     0.21132   0.59722   0.22632   0.00000  Uiso   1.00
C234   C     0.19068   0.90684   0.29601   0.00000  Uiso   1.00
C235   C     0.22140   0.55147   0.22978   0.00000  Uiso   1.00
C236   C     0.20155   0.95276   0.29810   0.00000  Uiso   1.00
C237   C     0.19032   0.52523   0.25580   0.00000  Uiso   1.00
C238   C     0.19198   0.97668   0.25542   0.00000  Uiso   1.00
H239   H     0.32406   0.74939   0.19459   0.00000  Uiso   1.00
H240   H     0.00929   0.75031   0.30545   0.00000  Uiso   1.00
H241   H     0.12734   0.52447   0.29786   0.00000  Uiso   1.00
H242   H     0.16627   0.97315   0.17937   0.00000  Uiso   1.00
H243   H     0.11439   0.60533   0.29471   0.00000  Uiso   1.00
H244   H     0.15295   0.89214   0.17624   0.00000  Uiso   1.00
H245   H     0.23466   0.61858   0.20712   0.00000  Uiso   1.00
H246   H     0.19666   0.88814   0.32842   0.00000  Uiso   1.00
H247   H     0.08663   0.72574   0.02280   0.00000  Uiso   1.00
H248   H     0.23851   0.78882   0.47624   0.00000  Uiso   1.00
H249   H     0.24451   0.77615   0.13352   0.00000  Uiso   1.00
H250   H     0.09618   0.71138   0.36706   0.00000  Uiso   1.00
H251   H     0.24833   0.77378   0.04927   0.00000  Uiso   1.00
H252   H     0.09523   0.70827   0.45194   0.00000  Uiso   1.00
N253   N     0.16667   0.74999   0.12624   0.00000  Uiso   1.00
N254   N     0.16667   0.75001   0.37377   0.00000  Uiso   1.00
O255   O     0.16667   0.68453   0.28974   0.00000  Uiso   1.00
O256   O     0.16666   0.81546   0.21026   0.00000  Uiso   1.00
O257   O     0.16667   0.68453   0.21026   0.00000  Uiso   1.00
O258   O     0.16666   0.81547   0.28974   0.00000  Uiso   1.00
O259   O     0.09058   0.75000   0.28045   0.00000  Uiso   1.00
O260   O     0.24275   0.75000   0.21956   0.00000  Uiso   1.00
O261   O     0.09058   0.74999   0.20097   0.00000  Uiso   1.00
O262   O     0.24275   0.75000   0.29904   0.00000  Uiso   1.00
Zn263  Zn    0.16667   0.75000   0.30307   0.00000  Uiso   1.00
Zn264  Zn    0.16667   0.74999   0.19693   0.00000  Uiso   1.00
C265   C     0.26496   0.53281   0.20720   0.00000  Uiso   1.00
O266   O     0.28486   0.99709   0.21992   0.00000  Uiso   1.00
O267   O     0.28431   0.55688   0.17194   0.00000  Uiso   1.00
H268   H     0.31421   0.54111   0.15964   0.00000  Uiso   1.00
C269   C     0.22297   0.97437   0.34487   0.00000  Uiso   1.00
O270   O     0.24702   0.51024   0.34694   0.00000  Uiso   1.00
O271   O     0.21675   0.95298   0.38684   0.00000  Uiso   1.00
H272   H     0.23331   0.97070   0.41629   0.00000  Uiso   1.00
C273   C     0.07779   0.71349   0.11119   0.00000  Uiso   1.00
O274   O     0.08389   0.68124   0.13718   0.00000  Uiso   1.00
O275   O     0.02716   0.72873   0.09444   0.00000  Uiso   1.00
H276   H     0.33218   0.71120   0.10749   0.00000  Uiso   1.00
C277   C     0.25292   0.79130   0.38857   0.00000  Uiso   1.00
O278   O     0.24718   0.82152   0.36013   0.00000  Uiso   1.00
O279   O     0.30354   0.77786   0.40808   0.00000  Uiso   1.00
H280   H     0.33211   0.79477   0.39473   0.00000  Uiso   1.00
C281   C     0.50036   0.66395   0.24964   0.00000  Uiso   1.00
C282   C     0.50070   0.83635   0.25051   0.00000  Uiso   1.00
C283   C     0.45576   0.73635   0.04568   0.00000  Uiso   1.00
C284   C     0.54030   0.77072   0.45389   0.00000  Uiso   1.00
C285   C     0.45680   0.73464   0.09496   0.00000  Uiso   1.00
C286   C     0.54034   0.77038   0.40473   0.00000  Uiso   1.00
C287   C     0.54351   0.76456   0.10911   0.00000  Uiso   1.00
C288   C     0.46058   0.72837   0.39128   0.00000  Uiso   1.00
C289   C     0.54502   0.76382   0.06004   0.00000  Uiso   1.00
C290   C     0.46013   0.72712   0.44051   0.00000  Uiso   1.00
C291   C     0.50039   0.74993   0.02675   0.00000  Uiso   1.00
C292   C     0.50011   0.74918   0.47329   0.00000  Uiso   1.00
C293   C     0.40035   0.74989   0.23744   0.00000  Uiso   1.00
C294   C     0.59965   0.75001   0.26256   0.00000  Uiso   1.00
C295   C     0.34512   0.74973   0.23083   0.00000  Uiso   1.00
C296   C     0.65488   0.75001   0.26919   0.00000  Uiso   1.00
C297   C     0.48507   0.54478   0.27866   0.00000  Uiso   1.00
C298   C     0.50797   0.95456   0.21192   0.00000  Uiso   1.00
C299   C     0.47713   0.59036   0.27639   0.00000  Uiso   1.00
C300   C     0.49951   0.90869   0.21028   0.00000  Uiso   1.00
C301   C     0.50641   0.61627   0.24978   0.00000  Uiso   1.00
C302   C     0.50696   0.88476   0.25235   0.00000  Uiso   1.00
C303   C     0.54465   0.59722   0.22632   0.00000  Uiso   1.00
C304   C     0.52401   0.90684   0.29601   0.00000  Uiso   1.00
C305   C     0.55473   0.55147   0.22978   0.00000  Uiso   1.00
C306   C     0.53488   0.95276   0.29810   0.00000  Uiso   1.00
C307   C     0.52365   0.52523   0.25580   0.00000  Uiso   1.00
C308   C     0.52531   0.97668   0.25542   0.00000  Uiso   1.00
H309   H     0.65739   0.74939   0.19459   0.00000  Uiso   1.00
H310   H     0.34262   0.75031   0.30545   0.00000  Uiso   1.00
H311   H     0.46067   0.52447   0.29786   0.00000  Uiso   1.00
H312   H     0.49960   0.97315   0.17937   0.00000  Uiso   1.00
H313   H     0.44772   0.60533   0.29471   0.00000  Uiso   1.00
H314   H     0.48628   0.89214   0.17624   0.00000  Uiso   1.00
H315   H     0.56799   0.61858   0.20712   0.00000  Uiso   1.00
H316   H     0.53000   0.88814   0.32842   0.00000  Uiso   1.00
H317   H     0.41996   0.72574   0.02280   0.00000  Uiso   1.00
H318   H     0.57185   0.78882   0.47624   0.00000  Uiso   1.00
H319   H     0.57784   0.77615   0.13352   0.00000  Uiso   1.00
H320   H     0.42951   0.71138   0.36706   0.00000  Uiso   1.00
H321   H     0.58167   0.77378   0.04927   0.00000  Uiso   1.00
H322   H     0.42856   0.70827   0.45194   0.00000  Uiso   1.00
N323   N     0.50000   0.74999   0.12624   0.00000  Uiso   1.00
N324   N     0.50000   0.75001   0.37377   0.00000  Uiso   1.00
O325   O     0.50000   0.68453   0.28974   0.00000  Uiso   1.00
O326   O     0.50000   0.81546   0.21026   0.00000  Uiso   1.00
O327   O     0.50000   0.68453   0.21026   0.00000  Uiso   1.00
O328   O     0.50000   0.81547   0.28974   0.00000  Uiso   1.00
O329   O     0.42392   0.75000   0.28045   0.00000  Uiso   1.00
O330   O     0.57608   0.75000   0.21956   0.00000  Uiso   1.00
O331   O     0.42392   0.74999   0.20097   0.00000  Uiso   1.00
O332   O     0.57608   0.75000   0.29904   0.00000  Uiso   1.00
Zn333  Zn    0.50000   0.75000   0.30307   0.00000  Uiso   1.00
Zn334  Zn    0.50000   0.74999   0.19693   0.00000  Uiso   1.00
C335   C     0.59829   0.53281   0.20720   0.00000  Uiso   1.00
O336   O     0.61819   0.99709   0.21992   0.00000  Uiso   1.00
O337   O     0.61764   0.55688   0.17194   0.00000  Uiso   1.00
H338   H     0.64755   0.54111   0.15964   0.00000  Uiso   1.00
C339   C     0.55630   0.97437   0.34487   0.00000  Uiso   1.00
O340   O     0.58035   0.51024   0.34694   0.00000  Uiso   1.00
O341   O     0.55008   0.95298   0.38684   0.00000  Uiso   1.00
H342   H     0.56664   0.97070   0.41629   0.00000  Uiso   1.00
C343   C     0.41112   0.71349   0.11119   0.00000  Uiso   1.00
O344   O     0.41723   0.68124   0.13718   0.00000  Uiso   1.00
O345   O     0.36050   0.72873   0.09444   0.00000  Uiso   1.00
H346   H     0.66551   0.71120   0.10749   0.00000  Uiso   1.00
C347   C     0.58626   0.79130   0.38857   0.00000  Uiso   1.00
O348   O     0.58052   0.82152   0.36013   0.00000  Uiso   1.00
O349   O     0.63688   0.77786   0.40808   0.00000  Uiso   1.00
H350   H     0.66544   0.79477   0.39473   0.00000  Uiso   1.00
C351   C     0.83369   0.66395   0.24964   0.00000  Uiso   1.00
C352   C     0.83404   0.83635   0.25051   0.00000  Uiso   1.00
C353   C     0.78910   0.73635   0.04568   0.00000  Uiso   1.00
C354   C     0.87363   0.77072   0.45389   0.00000  Uiso   1.00
C355   C     0.79014   0.73464   0.09496   0.00000  Uiso   1.00
C356   C     0.87368   0.77038   0.40473   0.00000  Uiso   1.00
C357   C     0.87685   0.76456   0.10911   0.00000  Uiso   1.00
C358   C     0.79391   0.72837   0.39128   0.00000  Uiso   1.00
C359   C     0.87835   0.76382   0.06004   0.00000  Uiso   1.00
C360   C     0.79346   0.72712   0.44051   0.00000  Uiso   1.00
C361   C     0.83373   0.74993   0.02675   0.00000  Uiso   1.00
C362   C     0.83344   0.74918   0.47329   0.00000  Uiso   1.00
C363   C     0.73369   0.74989   0.23744   0.00000  Uiso   1.00
C364   C     0.93298   0.75001   0.26256   0.00000  Uiso   1.00
C365   C     0.67845   0.74973   0.23083   0.00000  Uiso   1.00
C366   C     0.98822   0.75001   0.26919   0.00000  Uiso   1.00
C367   C     0.81840   0.54478   0.27866   0.00000  Uiso   1.00
C368   C     0.84131   0.95456   0.21192   0.00000  Uiso   1.00
C369   C     0.81047   0.59036   0.27639   0.00000  Uiso   1.00
C370   C     0.83285   0.90869   0.21028   0.00000  Uiso   1.00
C371   C     0.83974   0.61627   0.24978   0.00000  Uiso   1.00
C372   C     0.84029   0.88476   0.25235   0.00000  Uiso   1.00
C373   C     0.87799   0.59722   0.22632   0.00000  Uiso   1.00
C374   C     0.85734   0.90684   0.29601   0.00000  Uiso   1.00
C375   C     0.88807   0.55147   0.22978   0.00000  Uiso   1.00
C376   C     0.86821   0.95276   0.29810   0.00000  Uiso   1.00
C377   C     0.85699   0.52523   0.25580   0.00000  Uiso   1.00
C378   C     0.85864   0.97668   0.25542   0.00000  Uiso   1.00
H379   H     0.99073   0.74939   0.19459   0.00000  Uiso   1.00
H380   H     0.67596   0.75031   0.30545   0.00000  Uiso   1.00
H381   H     0.79400   0.52447   0.29786   0.00000  Uiso   1.00
H382   H     0.83293   0.97315   0.17937   0.00000  Uiso   1.00
H383   H     0.78106   0.60533   0.29471   0.00000  Uiso   1.00
H384   H     0.81962   0.89214   0.17624   0.00000  Uiso   1.00
H385   H     0.90133   0.61858   0.20712   0.00000  Uiso   1.00
H386   H     0.86333   0.88814   0.32842   0.00000  Uiso   1.00
H387   H     0.75329   0.72574   0.02280   0.00000  Uiso   1.00
H388   H     0.90518   0.78882   0.47624   0.00000  Uiso   1.00
H389   H     0.91118   0.77615   0.13352   0.00000  Uiso   1.00
H390   H     0.76284   0.71138   0.36706   0.00000  Uiso   1.00
H391   H     0.91500   0.77378   0.04927   0.00000  Uiso   1.00
H392   H     0.76189   0.70827   0.45194   0.00000  Uiso   1.00
N393   N     0.83333   0.74999   0.12624   0.00000  Uiso   1.00
N394   N     0.83333   0.75001   0.37377   0.00000  Uiso   1.00
O395   O     0.83334   0.68453   0.28974   0.00000  Uiso   1.00
O396   O     0.83333   0.81546   0.21026   0.00000  Uiso   1.00
O397   O     0.83334   0.68453   0.21026   0.00000  Uiso   1.00
O398   O     0.83333   0.81547   0.28974   0.00000  Uiso   1.00
O399   O     0.75725   0.75000   0.28045   0.00000  Uiso   1.00
O400   O     0.90942   0.75000   0.21956   0.00000  Uiso   1.00
O401   O     0.75725   0.74999   0.20097   0.00000  Uiso   1.00
O402   O     0.90942   0.75000   0.29904   0.00000  Uiso   1.00
Zn403  Zn    0.83333   0.75000   0.30307   0.00000  Uiso   1.00
Zn404  Zn    0.83333   0.74999   0.19693   0.00000  Uiso   1.00
C405   C     0.93163   0.53281   0.20720   0.00000  Uiso   1.00
O406   O     0.95152   0.99709   0.21992   0.00000  Uiso   1.00
O407   O     0.95098   0.55688   0.17194   0.00000  Uiso   1.00
H408   H     0.98088   0.54111   0.15964   0.00000  Uiso   1.00
C409   C     0.88963   0.97437   0.34487   0.00000  Uiso   1.00
O410   O     0.91368   0.51024   0.34694   0.00000  Uiso   1.00
O411   O     0.88341   0.95298   0.38684   0.00000  Uiso   1.00
H412   H     0.89997   0.97070   0.41629   0.00000  Uiso   1.00
C413   C     0.74446   0.71349   0.11119   0.00000  Uiso   1.00
O414   O     0.75056   0.68124   0.13718   0.00000  Uiso   1.00
O415   O     0.69383   0.72873   0.09444   0.00000  Uiso   1.00
H416   H     0.99885   0.71120   0.10749   0.00000  Uiso   1.00
C417   C     0.91959   0.79130   0.38857   0.00000  Uiso   1.00
O418   O     0.91385   0.82152   0.36013   0.00000  Uiso   1.00
O419   O     0.97021   0.77786   0.40808   0.00000  Uiso   1.00
H420   H     0.99878   0.79477   0.39473   0.00000  Uiso   1.00
C421   C     0.16703   0.16395   0.74964   0.00000  Uiso   1.00
C422   C     0.16737   0.33635   0.75051   0.00000  Uiso   1.00
C423   C     0.12243   0.23635   0.54568   0.00000  Uiso   1.00
C424   C     0.20697   0.27072   0.95389   0.00000  Uiso   1.00
C425   C     0.12347   0.23464   0.59496   0.00000  Uiso   1.00
C426   C     0.20701   0.27038   0.90473   0.00000  Uiso   1.00
C427   C     0.21018   0.26456   0.60911   0.00000  Uiso   1.00
C428   C     0.12725   0.22837   0.89128   0.00000  Uiso   1.00
C429   C     0.21169   0.26382   0.56004   0.00000  Uiso   1.00
C430   C     0.12679   0.22712   0.94051   0.00000  Uiso   1.00
C431   C     0.16706   0.24993   0.52675   0.00000  Uiso   1.00
C432   C     0.16677   0.24918   0.97329   0.00000  Uiso   1.00
C433   C     0.06702   0.24989   0.73744   0.00000  Uiso   1.00
C434   C     0.26631   0.25001   0.76256   0.00000  Uiso   1.00
C435   C     0.01179   0.24973   0.73083   0.00000  Uiso   1.00
C436   C     0.32155   0.25001   0.76919   0.00000  Uiso   1.00
C437   C     0.15174   0.04478   0.77866   0.00000  Uiso   1.00
C438   C     0.17464   0.45456   0.71192   0.00000  Uiso   1.00
C439   C     0.14380   0.09036   0.77639   0.00000  Uiso   1.00
C440   C     0.16618   0.40869   0.71028   0.00000  Uiso   1.00
C441   C     0.17308   0.11627   0.74978   0.00000  Uiso   1.00
C442   C     0.17363   0.38476   0.75235   0.00000  Uiso   1.00
C443   C     0.21132   0.09722   0.72632   0.00000  Uiso   1.00
C444   C     0.19068   0.40684   0.79601   0.00000  Uiso   1.00
C445   C     0.22140   0.05147   0.72978   0.00000  Uiso   1.00
C446   C     0.20155   0.45276   0.79810   0.00000  Uiso   1.00
C447   C     0.19032   0.02523   0.75580   0.00000  Uiso   1.00
C448   C     0.19198   0.47668   0.75542   0.00000  Uiso   1.00
H449   H     0.32406   0.24939   0.69459   0.00000  Uiso   1.00
H450   H     0.00929   0.25031   0.80545   0.00000  Uiso   1.00
H451   H     0.12734   0.02447   0.79786   0.00000  Uiso   1.00
H452   H     0.16627   0.47315   0.67937   0.00000  Uiso   1.00
H453   H     0.11439   0.10533   0.79471   0.00000  Uiso   1.00
H454   H     0.15295   0.39214   0.67624   0.00000  Uiso   1.00
H455   H     0.23466   0.11858   0.70712   0.00000  Uiso   1.00
H456   H     0.19666   0.38814   0.82842   0.00000  Uiso   1.00
H457   H     0.08663   0.22574   0.52280   0.00000  Uiso   1.00
H458   H     0.23851   0.28882   0.97624   0.00000  Uiso   1.00
H459   H     0.24451   0.27615   0.63352   0.00000  Uiso   1.00
H460   H     0.09618   0.21138   0.86706   0.00000  Uiso   1.00
H461   H     0.24833   0.27378   0.54927   0.00000  Uiso   1.00
H462   H     0.09523   0.20827   0.95194   0.00000  Uiso   1.00
N463   N     0.16667   0.24999   0.62624   0.00000  Uiso   1.00
N464   N     0.16667   0.25001   0.87377   0.00000  Uiso   1.00
O465   O     0.16667   0.18453   0.78974   0.00000  Uiso   1.00
O466   O     0.16666   0.31546   0.71026   0.00000  Uiso   1.00
O467   O     0.16667   0.18453   0.71026   0.00000  Uiso   1.00
O468   O     0.16666   0.31547   0.78974   0.00000  Uiso   1.00
O469   O     0.09058   0.25000   0.78045   0.00000  Uiso   1.00
O470   O     0.24275   0.25000   0.71956   0.00000  Uiso   1.00
O471   O     0.09058   0.24999   0.70097   0.00000  Uiso   1.00
O472   O     0.24275   0.25000   0.79904   0.00000  Uiso   1.00
Zn473  Zn    0.16667   0.25000   0.80307   0.00000  Uiso   1.00
Zn474  Zn    0.16667   0.24999   0.69693   0.00000  Uiso   1.00
C475   C     0.26496   0.03281   0.70720   0.00000  Uiso   1.00
O476   O     0.28486   0.49709   0.71992   0.00000  Uiso   1.00
O477   O     0.28431   0.05688   0.67194   0.00000  Uiso   1.00
H478   H     0.31421   0.04111   0.65964   0.00000  Uiso   1.00
C479   C     0.22297   0.47437   0.84487   0.00000  Uiso   1.00
O480   O     0.24702   0.01024   0.84694   0.00000  Uiso   1.00
O481   O     0.21675   0.45298   0.88684   0.00000  Uiso   1.00
H482   H     0.23331   0.47070   0.91629   0.00000  Uiso   1.00
C483   C     0.07779   0.21349   0.61119   0.00000  Uiso   1.00
O484   O     0.08389   0.18124   0.63718   0.00000  Uiso   1.00
O485   O     0.02716   0.22873   0.59444   0.00000  Uiso   1.00
H486   H     0.33218   0.21120   0.60749   0.00000  Uiso   1.00
C487   C     0.25292   0.29130   0.88857   0.00000  Uiso   1.00
O488   O     0.24718   0.32152   0.86013   0.00000  Uiso   1.00
O489   O     0.30354   0.27786   0.90808   0.00000  Uiso   1.00
H490   H     0.33211   0.29477   0.89473   0.00000  Uiso   1.00
C491   C     0.50036   0.16395   0.74964   0.00000  Uiso   1.00
C492   C     0.50070   0.33635   0.75051   0.00000  Uiso   1.00
C493   C     0.45576   0.23635   0.54568   0.00000  Uiso   1.00
C494   C     0.54030   0.27072   0.95389   0.00000  Uiso   1.00
C495   C     0.45680   0.23464   0.59496   0.00000  Uiso   1.00
C496   C     0.54034   0.27038   0.90473   0.00000  Uiso   1.00
C497   C     0.54351   0.26456   0.60911   0.00000  Uiso   1.00
C498   C     0.46058   0.22837   0.89128   0.00000  Uiso   1.00
C499   C     0.54502   0.26382   0.56004   0.00000  Uiso   1.00
C500   C     0.46013   0.22712   0.94051   0.00000  Uiso   1.00
C501   C     0.50039   0.24993   0.52675   0.00000  Uiso   1.00
C502   C     0.50011   0.24918   0.97329   0.00000  Uiso   1.00
C503   C     0.40035   0.24989   0.73744   0.00000  Uiso   1.00
C504   C     0.59965   0.25001   0.76256   0.00000  Uiso   1.00
C505   C     0.34512   0.24973   0.73083   0.00000  Uiso   1.00
C506   C     0.65488   0.25001   0.76919   0.00000  Uiso   1.00
C507   C     0.48507   0.04478   0.77866   0.00000  Uiso   1.00
C508   C     0.50797   0.45456   0.71192   0.00000  Uiso   1.00
C509   C     0.47713   0.09036   0.77639   0.00000  Uiso   1.00
C510   C     0.49951   0.40869   0.71028   0.00000  Uiso   1.00
C511   C     0.50641   0.11627   0.74978   0.00000  Uiso   1.00
C512   C     0.50696   0.38476   0.75235   0.00000  Uiso   1.00
C513   C     0.54465   0.09722   0.72632   0.00000  Uiso   1.00
C514   C     0.52401   0.40684   0.79601   0.00000  Uiso   1.00
C515   C     0.55473   0.05147   0.72978   0.00000  Uiso   1.00
C516   C     0.53488   0.45276   0.79810   0.00000  Uiso   1.00
C517   C     0.52365   0.02523   0.75580   0.00000  Uiso   1.00
C518   C     0.52531   0.47668   0.75542   0.00000  Uiso   1.00
H519   H     0.65739   0.24939   0.69459   0.00000  Uiso   1.00
H520   H     0.34262   0.25031   0.80545   0.00000  Uiso   1.00
H521   H     0.46067   0.02447   0.79786   0.00000  Uiso   1.00
H522   H     0.49960   0.47315   0.67937   0.00000  Uiso   1.00
H523   H     0.44772   0.10533   0.79471   0.00000  Uiso   1.00
H524   H     0.48628   0.39214   0.67624   0.00000  Uiso   1.00
H525   H     0.56799   0.11858   0.70712   0.00000  Uiso   1.00
H526   H     0.53000   0.38814   0.82842   0.00000  Uiso   1.00
H527   H     0.41996   0.22574   0.52280   0.00000  Uiso   1.00
H528   H     0.57185   0.28882   0.97624   0.00000  Uiso   1.00
H529   H     0.57784   0.27615   0.63352   0.00000  Uiso   1.00
H530   H     0.42951   0.21138   0.86706   0.00000  Uiso   1.00
H531   H     0.58167   0.27378   0.54927   0.00000  Uiso   1.00
H532   H     0.42856   0.20827   0.95194   0.00000  Uiso   1.00
N533   N     0.50000   0.24999   0.62624   0.00000  Uiso   1.00
N534   N     0.50000   0.25001   0.87377   0.00000  Uiso   1.00
O535   O     0.50000   0.18453   0.78974   0.00000  Uiso   1.00
O536   O     0.50000   0.31546   0.71026   0.00000  Uiso   1.00
O537   O     0.50000   0.18453   0.71026   0.00000  Uiso   1.00
O538   O     0.50000   0.31547   0.78974   0.00000  Uiso   1.00
O539   O     0.42392   0.25000   0.78045   0.00000  Uiso   1.00
O540   O     0.57608   0.25000   0.71956   0.00000  Uiso   1.00
O541   O     0.42392   0.24999   0.70097   0.00000  Uiso   1.00
O542   O     0.57608   0.25000   0.79904   0.00000  Uiso   1.00
Zn543  Zn    0.50000   0.25000   0.80307   0.00000  Uiso   1.00
Zn544  Zn    0.50000   0.24999   0.69693   0.00000  Uiso   1.00
C545   C     0.59829   0.03281   0.70720   0.00000  Uiso   1.00
O546   O     0.61819   0.49709   0.71992   0.00000  Uiso   1.00
O547   O     0.61764   0.05688   0.67194   0.00000  Uiso   1.00
H548   H     0.64755   0.04111   0.65964   0.00000  Uiso   1.00
C549   C     0.55630   0.47437   0.84487   0.00000  Uiso   1.00
O550   O     0.58035   0.01024   0.84694   0.00000  Uiso   1.00
O551   O     0.55008   0.45298   0.88684   0.00000  Uiso   1.00
H552   H     0.56664   0.47070   0.91629   0.00000  Uiso   1.00
C553   C     0.41112   0.21349   0.61119   0.00000  Uiso   1.00
O554   O     0.41723   0.18124   0.63718   0.00000  Uiso   1.00
O555   O     0.36050   0.22873   0.59444   0.00000  Uiso   1.00
H556   H     0.66551   0.21120   0.60749   0.00000  Uiso   1.00
C557   C     0.58626   0.29130   0.88857   0.00000  Uiso   1.00
O558   O     0.58052   0.32152   0.86013   0.00000  Uiso   1.00
O559   O     0.63688   0.27786   0.90808   0.00000  Uiso   1.00
H560   H     0.66544   0.29477   0.89473   0.00000  Uiso   1.00
C561   C     0.83369   0.16395   0.74964   0.00000  Uiso   1.00
C562   C     0.83404   0.33635   0.75051   0.00000  Uiso   1.00
C563   C     0.78910   0.23635   0.54568   0.00000  Uiso   1.00
C564   C     0.87363   0.27072   0.95389   0.00000  Uiso   1.00
C565   C     0.79014   0.23464   0.59496   0.00000  Uiso   1.00
C566   C     0.87368   0.27038   0.90473   0.00000  Uiso   1.00
C567   C     0.87685   0.26456   0.60911   0.00000  Uiso   1.00
C568   C     0.79391   0.22837   0.89128   0.00000  Uiso   1.00
C569   C     0.87835   0.26382   0.56004   0.00000  Uiso   1.00
C570   C     0.79346   0.22712   0.94051   0.00000  Uiso   1.00
C571   C     0.83373   0.24993   0.52675   0.00000  Uiso   1.00
C572   C     0.83344   0.24918   0.97329   0.00000  Uiso   1.00
C573   C     0.73369   0.24989   0.73744   0.00000  Uiso   1.00
C574   C     0.93298   0.25001   0.76256   0.00000  Uiso   1.00
C575   C     0.67845   0.24973   0.73083   0.00000  Uiso   1.00
C576   C     0.98822   0.25001   0.76919   0.00000  Uiso   1.00
C577   C     0.81840   0.04478   0.77866   0.00000  Uiso   1.00
C578   C     0.84131   0.45456   0.71192   0.00000  Uiso   1.00
C579   C     0.81047   0.09036   0.77639   0.00000  Uiso   1.00
C580   C     0.83285   0.40869   0.71028   0.00000  Uiso   1.00
C581   C     0.83974   0.11627   0.74978   0.00000  Uiso   1.00
C582   C     0.84029   0.38476   0.75235   0.00000  Uiso   1.00
C583   C     0.87799   0.09722   0.72632   0.00000  Uiso   1.00
C584   C     0.85734   0.40684   0.79601   0.00000  Uiso   1.00
C585   C     0.88807   0.05147   0.72978   0.00000  Uiso   1.00
C586   C     0.86821   0.45276   0.79810   0.00000  Uiso   1.00
C587   C     0.85699   0.02523   0.75580   0.00000  Uiso   1.00
C588   C     0.85864   0.47668   0.75542   0.00000  Uiso   1.00
H589   H     0.99073   0.24939   0.69459   0.00000  Uiso   1.00
H590   H     0.67596   0.25031   0.80545   0.00000  Uiso   1.00
H591   H     0.79400   0.02447   0.79786   0.00000  Uiso   1.00
H592   H     0.83293   0.47315   0.67937   0.00000  Uiso   1.00
H593   H     0.78106   0.10533   0.79471   0.00000  Uiso   1.00
H594   H     0.81962   0.39214   0.67624   0.00000  Uiso   1.00
H595   H     0.90133   0.11858   0.70712   0.00000  Uiso   1.00
H596   H     0.86333   0.38814   0.82842   0.00000  Uiso   1.00
H597   H     0.75329   0.22574   0.52280   0.00000  Uiso   1.00
H598   H     0.90518   0.28882   0.97624   0.00000  Uiso   1.00
H599   H     0.91118   0.27615   0.63352   0.00000  Uiso   1.00
H600   H     0.76284   0.21138   0.86706   0.00000  Uiso   1.00
H601   H     0.91500   0.27378   0.54927   0.00000  Uiso   1.00
H602   H     0.76189   0.20827   0.95194   0.00000  Uiso   1.00
N603   N     0.83333   0.24999   0.62624   0.00000  Uiso   1.00
N604   N     0.83333   0.25001   0.87377   0.00000  Uiso   1.00
O605   O     0.83334   0.18453   0.78974   0.00000  Uiso   1.00
O606   O     0.83333   0.31546   0.71026   0.00000  Uiso   1.00
O607   O     0.83334   0.18453   0.71026   0.00000  Uiso   1.00
O608   O     0.83333   0.31547   0.78974   0.00000  Uiso   1.00
O609   O     0.75725   0.25000   0.78045   0.00000  Uiso   1.00
O610   O     0.90942   0.25000   0.71956   0.00000  Uiso   1.00
O611   O     0.75725   0.24999   0.70097   0.00000  Uiso   1.00
O612   O     0.90942   0.25000   0.79904   0.00000  Uiso   1.00
Zn613  Zn    0.83333   0.25000   0.80307   0.00000  Uiso   1.00
Zn614  Zn    0.83333   0.24999   0.69693   0.00000  Uiso   1.00
C615   C     0.93163   0.03281   0.70720   0.00000  Uiso   1.00
O616   O     0.95152   0.49709   0.71992   0.00000  Uiso   1.00
O617   O     0.95098   0.05688   0.67194   0.00000  Uiso   1.00
H618   H     0.98088   0.04111   0.65964   0.00000  Uiso   1.00
C619   C     0.88963   0.47437   0.84487   0.00000  Uiso   1.00
O620   O     0.91368   0.01024   0.84694   0.00000  Uiso   1.00
O621   O     0.88341   0.45298   0.88684   0.00000  Uiso   1.00
H622   H     0.89997   0.47070   0.91629   0.00000  Uiso   1.00
C623   C     0.74446   0.21349   0.61119   0.00000  Uiso   1.00
O624   O     0.75056   0.18124   0.63718   0.00000  Uiso   1.00
O625   O     0.69383   0.22873   0.59444   0.00000  Uiso   1.00
H626   H     0.99885   0.21120   0.60749   0.00000  Uiso   1.00
C627   C     0.91959   0.29130   0.88857   0.00000  Uiso   1.00
O628   O     0.91385   0.32152   0.86013   0.00000  Uiso   1.00
O629   O     0.97021   0.27786   0.90808   0.00000  Uiso   1.00
H630   H     0.99878   0.29477   0.89473   0.00000  Uiso   1.00
C631   C     0.16703   0.66395   0.74964   0.00000  Uiso   1.00
C632   C     0.16737   0.83635   0.75051   0.00000  Uiso   1.00
C633   C     0.12243   0.73635   0.54568   0.00000  Uiso   1.00
C634   C     0.20697   0.77072   0.95389   0.00000  Uiso   1.00
C635   C     0.12347   0.73464   0.59496   0.00000  Uiso   1.00
C636   C     0.20701   0.77038   0.90473   0.00000  Uiso   1.00
C637   C     0.21018   0.76456   0.60911   0.00000  Uiso   1.00
C638   C     0.12725   0.72837   0.89128   0.00000  Uiso   1.00
C639   C     0.21169   0.76382   0.56004   0.00000  Uiso   1.00
C640   C     0.12679   0.72712   0.94051   0.00000  Uiso   1.00
C641   C     0.16706   0.74993   0.52675   0.00000  Uiso   1.00
C642   C     0.16677   0.74918   0.97329   0.00000  Uiso   1.00
C643   C     0.06702   0.74989   0.73744   0.00000  Uiso   1.00
C644   C     0.26631   0.75001   0.76256   0.00000  Uiso   1.00
C645   C     0.01179   0.74973   0.73083   0.00000  Uiso   1.00
C646   C     0.32155   0.75001   0.76919   0.00000  Uiso   1.00
C647   C     0.15174   0.54478   0.77866   0.00000  Uiso   1.00
C648   C     0.17464   0.95456   0.71192   0.00000  Uiso   1.00
C649   C     0.14380   0.59036   0.77639   0.00000  Uiso   1.00
C650   C     0.16618   0.90869   0.71028   0.00000  Uiso   1.00
C651   C     0.17308   0.61627   0.74978   0.00000  Uiso   1.00
C652   C     0.17363   0.88476   0.75235   0.00000  Uiso   1.00
C653   C     0.21132   0.59722   0.72632   0.00000  Uiso   1.00
C654   C     0.19068   0.90684   0.79601   0.00000  Uiso   1.00
C655   C     0.22140   0.55147   0.72978   0.00000  Uiso   1.00
C656   C     0.20155   0.95276   0.79810   0.00000  Uiso   1.00
C657   C     0.19032   0.52523   0.75580   0.00000  Uiso   1.00
C658   C     0.19198   0.97668   0.75542   0.00000  Uiso   1.00
H659   H     0.32406   0.74939   0.69459   0.00000  Uiso   1.00
H660   H     0.00929   0.75031   0.80545   0.00000  Uiso   1.00
H661   H     0.12734   0.52447   0.79786   0.00000  Uiso   1.00
H662   H     0.16627   0.97315   0.67937   0.00000  Uiso   1.00
H663   H     0.11439   0.60533   0.79471   0.00000  Uiso   1.00
H664   H     0.15295   0.89214   0.67624   0.00000  Uiso   1.00
H665   H     0.23466   0.61858   0.70712   0.00000  Uiso   1.00
H666   H     0.19666   0.88814   0.82842   0.00000  Uiso   1.00
H667   H     0.08663   0.72574   0.52280   0.00000  Uiso   1.00
H668   H     0.23851   0.78882   0.97624   0.00000  Uiso   1.00
H669   H     0.24451   0.77615   0.63352   0.00000  Uiso   1.00
H670   H     0.09618   0.71138   0.86706   0.00000  Uiso   1.00
H671   H     0.24833   0.77378   0.54927   0.00000  Uiso   1.00
H672   H     0.09523   0.70827   0.95194   0.00000  Uiso   1.00
N673   N     0.16667   0.74999   0.62624   0.00000  Uiso   1.00
N674   N     0.16667   0.75001   0.87377   0.00000  Uiso   1.00
O675   O     0.16667   0.68453   0.78974   0.00000  Uiso   1.00
O676   O     0.16666   0.81546   0.71026   0.00000  Uiso   1.00
O677   O     0.16667   0.68453   0.71026   0.00000  Uiso   1.00
O678   O     0.16666   0.81547   0.78974   0.00000  Uiso   1.00
O679   O     0.09058   0.75000   0.78045   0.00000  Uiso   1.00
O680   O     0.24275   0.75000   0.71956   0.00000  Uiso   1.00
O681   O     0.09058   0.74999   0.70097   0.00000  Uiso   1.00
O682   O     0.24275   0.75000   0.79904   0.00000  Uiso   1.00
Zn683  Zn    0.16667   0.75000   0.80307   0.00000  Uiso   1.00
Zn684  Zn    0.16667   0.74999   0.69693   0.00000  Uiso   1.00
C685   C     0.26496   0.53281   0.70720   0.00000  Uiso   1.00
O686   O     0.28486   0.99709   0.71992   0.00000  Uiso   1.00
O687   O     0.28431   0.55688   0.67194   0.00000  Uiso   1.00
H688   H     0.31421   0.54111   0.65964   0.00000  Uiso   1.00
C689   C     0.22297   0.97437   0.84487   0.00000  Uiso   1.00
O690   O     0.24702   0.51024   0.84694   0.00000  Uiso   1.00
O691   O     0.21675   0.95298   0.88684   0.00000  Uiso   1.00
H692   H     0.23331   0.97070   0.91629   0.00000  Uiso   1.00
C693   C     0.07779   0.71349   0.61119   0.00000  Uiso   1.00
O694   O     0.08389   0.68124   0.63718   0.00000  Uiso   1.00
O695   O     0.02716   0.72873   0.59444   0.00000  Uiso   1.00
H696   H     0.33218   0.71120   0.60749   0.00000  Uiso   1.00
C697   C     0.25292   0.79130   0.88857   0.00000  Uiso   1.00
O698   O     0.24718   0.82152   0.86013   0.00000  Uiso   1.00
O699   O     0.30354   0.77786   0.90808   0.00000  Uiso   1.00
H700   H     0.33211   0.79477   0.89473   0.00000  Uiso   1.00
C701   C     0.50036   0.66395   0.74964   0.00000  Uiso   1.00
C702   C     0.50070   0.83635   0.75051   0.00000  Uiso   1.00
C703   C     0.45576   0.73635   0.54568   0.00000  Uiso   1.00
C704   C     0.54030   0.77072   0.95389   0.00000  Uiso   1.00
C705   C     0.45680   0.73464   0.59496   0.00000  Uiso   1.00
C706   C     0.54034   0.77038   0.90473   0.00000  Uiso   1.00
C707   C     0.54351   0.76456   0.60911   0.00000  Uiso   1.00
C708   C     0.46058   0.72837   0.89128   0.00000  Uiso   1.00
C709   C     0.54502   0.76382   0.56004   0.00000  Uiso   1.00
C710   C     0.46013   0.72712   0.94051   0.00000  Uiso   1.00
C711   C     0.50039   0.74993   0.52675   0.00000  Uiso   1.00
C712   C     0.50011   0.74918   0.97329   0.00000  Uiso   1.00
C713   C     0.40035   0.74989   0.73744   0.00000  Uiso   1.00
C714   C     0.59965   0.75001   0.76256   0.00000  Uiso   1.00
C715   C     0.34512   0.74973   0.73083   0.00000  Uiso   1.00
C716   C     0.65488   0.75001   0.76919   0.00000  Uiso   1.00
C717   C     0.48507   0.54478   0.77866   0.00000  Uiso   1.00
C718   C     0.50797   0.95456   0.71192   0.00000  Uiso   1.00
C719   C     0.47713   0.59036   0.77639   0.00000  Uiso   1.00
C720   C     0.49951   0.90869   0.71028   0.00000  Uiso   1.00
C721   C     0.50641   0.61627   0.74978   0.00000  Uiso   1.00
C722   C     0.50696   0.88476   0.75235   0.00000  Uiso   1.00
C723   C     0.54465   0.59722   0.72632   0.00000  Uiso   1.00
C724   C     0.52401   0.90684   0.79601   0.00000  Uiso   1.00
C725   C     0.55473   0.55147   0.72978   0.00000  Uiso   1.00
C726   C     0.53488   0.95276   0.79810   0.00000  Uiso   1.00
C727   C     0.52365   0.52523   0.75580   0.00000  Uiso   1.00
C728   C     0.52531   0.97668   0.75542   0.00000  Uiso   1.00
H729   H     0.65739   0.74939   0.69459   0.00000  Uiso   1.00
H730   H     0.34262   0.75031   0.80545   0.00000  Uiso   1.00
H731   H     0.46067   0.52447   0.79786   0.00000  Uiso   1.00
H732   H     0.49960   0.97315   0.67937   0.00000  Uiso   1.00
H733   H     0.44772   0.60533   0.79471   0.00000  Uiso   1.00
H734   H     0.48628   0.89214   0.67624   0.00000  Uiso   1.00
H735   H     0.56799   0.61858   0.70712   0.00000  Uiso   1.00
H736   H     0.53000   0.88814   0.82842   0.00000  Uiso   1.00
H737   H     0.41996   0.72574   0.52280   0.00000  Uiso   1.00
H738   H     0.57185   0.78882   0.97624   0.00000  Uiso   1.00
H739   H     0.57784   0.77615   0.63352   0.00000  Uiso   1.00
H740   H     0.42951   0.71138   0.86706   0.00000  Uiso   1.00
H741   H     0.58167   0.77378   0.54927   0.00000  Uiso   1.00
H742   H     0.42856   0.70827   0.95194   0.00000  Uiso   1.00
N743   N     0.50000   0.74999   0.62624   0.00000  Uiso   1.00
N744   N     0.50000   0.75001   0.87377   0.00000  Uiso   1.00
O745   O     0.50000   0.68453   0.78974   0.00000  Uiso   1.00
O746   O     0.50000   0.81546   0.71026   0.00000  Uiso   1.00
O747   O     0.50000   0.68453   0.71026   0.00000  Uiso   1.00
O748   O     0.50000   0.81547   0.78974   0.00000  Uiso   1.00
O749   O     0.42392   0.75000   0.78045   0.00000  Uiso   1.00
O750   O     0.57608   0.75000   0.71956   0.00000  Uiso   1.00
O751   O     0.42392   0.74999   0.70097   0.00000  Uiso   1.00
O752   O     0.57608   0.75000   0.79904   0.00000  Uiso   1.00
Zn753  Zn    0.50000   0.75000   0.80307   0.00000  Uiso   1.00
Zn754  Zn    0.50000   0.74999   0.69693   0.00000  Uiso   1.00
C755   C     0.59829   0.53281   0.70720   0.00000  Uiso   1.00
O756   O     0.61819   0.99709   0.71992   0.00000  Uiso   1.00
O757   O     0.61764   0.55688   0.67194   0.00000  Uiso   1.00
H758   H     0.64755   0.54111   0.65964   0.00000  Uiso   1.00
C759   C     0.55630   0.97437   0.84487   0.00000  Uiso   1.00
O760   O     0.58035   0.51024   0.84694   0.00000  Uiso   1.00
O761   O     0.55008   0.95298   0.88684   0.00000  Uiso   1.00
H762   H     0.56664   0.97070   0.91629   0.00000  Uiso   1.00
C763   C     0.41112   0.71349   0.61119   0.00000  Uiso   1.00
O764   O     0.41723   0.68124   0.63718   0.00000  Uiso   1.00
O765   O     0.36050   0.72873   0.59444   0.00000  Uiso   1.00
H766   H     0.66551   0.71120   0.60749   0.00000  Uiso   1.00
C767   C     0.58626   0.79130   0.88857   0.00000  Uiso   1.00
O768   O     0.58052   0.82152   0.86013   0.00000  Uiso   1.00
O769   O     0.63688   0.77786   0.90808   0.00000  Uiso   1.00
H770   H     0.66544   0.79477   0.89473   0.00000  Uiso   1.00
C771   C     0.83369   0.66395   0.74964   0.00000  Uiso   1.00
C772   C     0.83404   0.83635   0.75051   0.00000  Uiso   1.00
C773   C     0.78910   0.73635   0.54568   0.00000  Uiso   1.00
C774   C     0.87363   0.77072   0.95389   0.00000  Uiso   1.00
C775   C     0.79014   0.73464   0.59496   0.00000  Uiso   1.00
C776   C     0.87368   0.77038   0.90473   0.00000  Uiso   1.00
C777   C     0.87685   0.76456   0.60911   0.00000  Uiso   1.00
C778   C     0.79391   0.72837   0.89128   0.00000  Uiso   1.00
C779   C     0.87835   0.76382   0.56004   0.00000  Uiso   1.00
C780   C     0.79346   0.72712   0.94051   0.00000  Uiso   1.00
C781   C     0.83373   0.74993   0.52675   0.00000  Uiso   1.00
C782   C     0.83344   0.74918   0.97329   0.00000  Uiso   1.00
C783   C     0.73369   0.74989   0.73744   0.00000  Uiso   1.00
C784   C     0.93298   0.75001   0.76256   0.00000  Uiso   1.00
C785   C     0.67845   0.74973   0.73083   0.00000  Uiso   1.00
C786   C     0.98822   0.75001   0.76919   0.00000  Uiso   1.00
C787   C     0.81840   0.54478   0.77866   0.00000  Uiso   1.00
C788   C     0.84131   0.95456   0.71192   0.00000  Uiso   1.00
C789   C     0.81047   0.59036   0.77639   0.00000  Uiso   1.00
C790   C     0.83285   0.90869   0.71028   0.00000  Uiso   1.00
C791   C     0.83974   0.61627   0.74978   0.00000  Uiso   1.00
C792   C     0.84029   0.88476   0.75235   0.00000  Uiso   1.00
C793   C     0.87799   0.59722   0.72632   0.00000  Uiso   1.00
C794   C     0.85734   0.90684   0.79601   0.00000  Uiso   1.00
C795   C     0.88807   0.55147   0.72978   0.00000  Uiso   1.00
C796   C     0.86821   0.95276   0.79810   0.00000  Uiso   1.00
C797   C     0.85699   0.52523   0.75580   0.00000  Uiso   1.00
C798   C     0.85864   0.97668   0.75542   0.00000  Uiso   1.00
H799   H     0.99073   0.74939   0.69459   0.00000  Uiso   1.00
H800   H     0.67596   0.75031   0.80545   0.00000  Uiso   1.00
H801   H     0.79400   0.52447   0.79786   0.00000  Uiso   1.00
H802   H     0.83293   0.97315   0.67937   0.00000  Uiso   1.00
H803   H     0.78106   0.60533   0.79471   0.00000  Uiso   1.00
H804   H     0.81962   0.89214   0.67624   0.00000  Uiso   1.00
H805   H     0.90133   0.61858   0.70712   0.00000  Uiso   1.00
H806   H     0.86333   0.88814   0.82842   0.00000  Uiso   1.00
H807   H     0.75329   0.72574   0.52280   0.00000  Uiso   1.00
H808   H     0.90518   0.78882   0.97624   0.00000  Uiso   1.00
H809   H     0.91118   0.77615   0.63352   0.00000  Uiso   1.00
H810   H     0.76284   0.71138   0.86706   0.00000  Uiso   1.00
H811   H     0.91500   0.77378   0.54927   0.00000  Uiso   1.00
H812   H     0.76189   0.70827   0.95194   0.00000  Uiso   1.00
N813   N     0.83333   0.74999   0.62624   0.00000  Uiso   1.00
N814   N     0.83333   0.75001   0.87377   0.00000  Uiso   1.00
O815   O     0.83334   0.68453   0.78974   0.00000  Uiso   1.00
O816   O     0.83333   0.81546   0.71026   0.00000  Uiso   1.00
O817   O     0.83334   0.68453   0.71026   0.00000  Uiso   1.00
O818   O     0.83333   0.81547   0.78974   0.00000  Uiso   1.00
O819   O     0.75725   0.75000   0.78045   0.00000  Uiso   1.00
O820   O     0.90942   0.75000   0.71956   0.00000  Uiso   1.00
O821   O     0.75725   0.74999   0.70097   0.00000  Uiso   1.00
O822   O     0.90942   0.75000   0.79904   0.00000  Uiso   1.00
Zn823  Zn    0.83333   0.75000   0.80307   0.00000  Uiso   1.00
Zn824  Zn    0.83333   0.74999   0.69693   0.00000  Uiso   1.00
C825   C     0.93163   0.53281   0.70720   0.00000  Uiso   1.00
O826   O     0.95152   0.99709   0.71992   0.00000  Uiso   1.00
O827   O     0.95098   0.55688   0.67194   0.00000  Uiso   1.00
H828   H     0.98088   0.54111   0.65964   0.00000  Uiso   1.00
C829   C     0.88963   0.97437   0.84487   0.00000  Uiso   1.00
O830   O     0.91368   0.51024   0.84694   0.00000  Uiso   1.00
O831   O     0.88341   0.95298   0.88684   0.00000  Uiso   1.00
H832   H     0.89997   0.97070   0.91629   0.00000  Uiso   1.00
C833   C     0.74446   0.71349   0.61119   0.00000  Uiso   1.00
O834   O     0.75056   0.68124   0.63718   0.00000  Uiso   1.00
O835   O     0.69383   0.72873   0.59444   0.00000  Uiso   1.00
H836   H     0.99885   0.71120   0.60749   0.00000  Uiso   1.00
C837   C     0.91959   0.79130   0.88857   0.00000  Uiso   1.00
O838   O     0.91385   0.82152   0.86013   0.00000  Uiso   1.00
O839   O     0.97021   0.77786   0.90808   0.00000  Uiso   1.00
H840   H     0.99878   0.79477   0.89473   0.00000  Uiso   1.00
loop_
_geom_bond_atom_site_label_1
_geom_bond_atom_site_label_2
_geom_bond_distance
_geom_bond_site_symmetry_2
_ccdc_geom_bond_type
C1     C21     1.431   .     S
C1     O45     1.290   .     A
C1     O47     1.290   .     A
C2     O48     1.294   .     A
C2     C22     1.448   .     S
C2     O46     1.294   .     A
C3     C11     1.405   .     A
C3     C5      1.405   .     A
C3     H37     1.079   .     S
C4     C6      1.404   .     A
C4     C12     1.404   .     A
C4     H38     1.079   .     S
C5     N43     1.375   .     A
C5     C63     1.470   .     S
C6     N44     1.376   .     A
C6     C67     1.472   .     S
C7     N43     1.362   .     A
C7     C9      1.408   .     A
C7     H39     1.081   .     S
C8     N44     1.362   .     A
C8     C10     1.409   .     A
C8     H40     1.082   .     S
C9     H41     1.078   .     S
C9     C11     1.418   .     A
C10    H42     1.078   .     S
C10    C12     1.419   .     A
C11    C432    1.525   1_554 S
C12    C431    1.525   .     S
C13    C15     1.403   .     S
C13    O49     1.278   .     A
C13    O51     1.288   .     A
C14    C16     1.403   .     S
C14    O50     1.279   .     A
C14    O52     1.288   .     A
C15    C156    1.336   1_455 S
C15    H169    1.087   1_455 S
C16    C85     1.336   .     S
C16    H100    1.088   .     S
C17    H31     1.084   .     S
C17    C27     1.401   .     A
C17    C19     1.377   .     A
C18    H32     1.084   .     S
C18    C28     1.399   .     A
C18    C20     1.380   .     A
C19    C21     1.391   .     A
C19    H33     1.084   .     S
C20    C22     1.397   .     A
C20    H34     1.083   .     S
C21    C23     1.398   .     A
C22    C24     1.401   .     A
C23    H35     1.084   .     S
C23    C25     1.393   .     A
C24    H36     1.080   .     S
C24    C26     1.391   .     A
C25    C55     1.490   .     S
C25    C27     1.415   .     A
C26    C59     1.490   .     S
C26    C28     1.413   .     A
C27    C238    1.447   1_545 S
C28    C237    1.447   .     S
H29    C85     1.087   .     S
H30    C156    1.088   1_455 S
N43    Zn54    2.019   .     S
N44    Zn53    2.019   .     S
O45    Zn53    1.980   .     S
O46    Zn54    1.980   .     S
O47    Zn54    1.994   .     S
O48    Zn53    1.994   .     S
O49    Zn53    1.960   .     S
O50    Zn54    1.960   .     S
O51    Zn54    1.980   .     S
O52    Zn53    1.980   .     S
C55    O57     1.399   .     S
C55    O266    1.223   1_545 S
O56    C265    1.223   .     S
O57    H58     1.014   .     S
C59    O61     1.399   .     S
C59    O270    1.223   .     S
O60    C269    1.223   1_545 S
O61    H62     1.014   .     S
C63    O65     1.398   .     S
C63    O64     1.222   .     D
O65    H206    1.014   1_455 S
H66    O135    1.014   .     S
C67    O68     1.219   .     D
C67    O69     1.398   .     S
O69    H70     1.014   .     S
C71    C91     1.431   .     S
C71    O115    1.290   .     A
C71    O117    1.290   .     A
C72    O118    1.294   .     A
C72    C92     1.448   .     S
C72    O116    1.294   .     A
C73    C81     1.405   .     A
C73    C75     1.405   .     A
C73    H107    1.079   .     S
C74    C76     1.404   .     A
C74    C82     1.404   .     A
C74    H108    1.079   .     S
C75    N113    1.375   .     A
C75    C133    1.470   .     S
C76    N114    1.376   .     A
C76    C137    1.472   .     S
C77    N113    1.362   .     A
C77    C79     1.408   .     A
C77    H109    1.081   .     S
C78    N114    1.362   .     A
C78    C80     1.409   .     A
C78    H110    1.082   .     S
C79    H111    1.078   .     S
C79    C81     1.418   .     A
C80    H112    1.078   .     S
C80    C82     1.419   .     A
C81    C502    1.525   1_554 S
C82    C501    1.525   .     S
C83    C85     1.403   .     S
C83    O119    1.278   .     A
C83    O121    1.288   .     A
C84    C86     1.403   .     S
C84    O120    1.279   .     A
C84    O122    1.288   .     A
C86    C155    1.336   .     S
C86    H170    1.088   .     S
C87    H101    1.084   .     S
C87    C97     1.401   .     A
C87    C89     1.377   .     A
C88    H102    1.084   .     S
C88    C98     1.399   .     A
C88    C90     1.380   .     A
C89    C91     1.391   .     A
C89    H103    1.084   .     S
C90    C92     1.397   .     A
C90    H104    1.083   .     S
C91    C93     1.398   .     A
C92    C94     1.401   .     A
C93    H105    1.084   .     S
C93    C95     1.393   .     A
C94    H106    1.080   .     S
C94    C96     1.391   .     A
C95    C125    1.490   .     S
C95    C97     1.415   .     A
C96    C129    1.490   .     S
C96    C98     1.413   .     A
C97    C308    1.447   1_545 S
C98    C307    1.447   .     S
H99    C155    1.087   .     S
N113   Zn124   2.019   .     S
N114   Zn123   2.019   .     S
O115   Zn123   1.980   .     S
O116   Zn124   1.980   .     S
O117   Zn124   1.994   .     S
O118   Zn123   1.994   .     S
O119   Zn123   1.960   .     S
O120   Zn124   1.960   .     S
O121   Zn124   1.980   .     S
O122   Zn123   1.980   .     S
C125   O127    1.399   .     S
C125   O336    1.223   1_545 S
O126   C335    1.223   .     S
O127   H128    1.014   .     S
C129   O131    1.399   .     S
C129   O340    1.223   .     S
O130   C339    1.223   1_545 S
O131   H132    1.014   .     S
C133   O135    1.398   .     S
C133   O134    1.222   .     D
H136   O205    1.014   .     S
C137   O138    1.219   .     D
C137   O139    1.398   .     S
O139   H140    1.014   .     S
C141   C161    1.431   .     S
C141   O185    1.290   .     A
C141   O187    1.290   .     A
C142   O188    1.294   .     A
C142   C162    1.448   .     S
C142   O186    1.294   .     A
C143   C151    1.405   .     A
C143   C145    1.405   .     A
C143   H177    1.079   .     S
C144   C146    1.404   .     A
C144   C152    1.404   .     A
C144   H178    1.079   .     S
C145   N183    1.375   .     A
C145   C203    1.470   .     S
C146   N184    1.376   .     A
C146   C207    1.472   .     S
C147   N183    1.362   .     A
C147   C149    1.408   .     A
C147   H179    1.081   .     S
C148   N184    1.362   .     A
C148   C150    1.409   .     A
C148   H180    1.082   .     S
C149   H181    1.078   .     S
C149   C151    1.418   .     A
C150   H182    1.078   .     S
C150   C152    1.419   .     A
C151   C572    1.525   1_554 S
C152   C571    1.525   .     S
C153   C155    1.403   .     S
C153   O189    1.278   .     A
C153   O191    1.288   .     A
C154   C156    1.403   .     S
C154   O190    1.279   .     A
C154   O192    1.288   .     A
C156   C15     1.336   1_655 S
C156   H30     1.088   1_655 S
C157   H171    1.084   .     S
C157   C167    1.401   .     A
C157   C159    1.377   .     A
C158   H172    1.084   .     S
C158   C168    1.399   .     A
C158   C160    1.380   .     A
C159   C161    1.391   .     A
C159   H173    1.084   .     S
C160   C162    1.397   .     A
C160   H174    1.083   .     S
C161   C163    1.398   .     A
C162   C164    1.401   .     A
C163   H175    1.084   .     S
C163   C165    1.393   .     A
C164   H176    1.080   .     S
C164   C166    1.391   .     A
C165   C195    1.490   .     S
C165   C167    1.415   .     A
C166   C199    1.490   .     S
C166   C168    1.413   .     A
C167   C378    1.447   1_545 S
C168   C377    1.447   .     S
H169   C15     1.087   1_655 S
N183   Zn194   2.019   .     S
N184   Zn193   2.019   .     S
O185   Zn193   1.980   .     S
O186   Zn194   1.980   .     S
O187   Zn194   1.994   .     S
O188   Zn193   1.994   .     S
O189   Zn193   1.960   .     S
O190   Zn194   1.960   .     S
O191   Zn194   1.980   .     S
O192   Zn193   1.980   .     S
C195   O197    1.399   .     S
C195   O406    1.223   1_545 S
O196   C405    1.223   .     S
O197   H198    1.014   .     S
C199   O201    1.399   .     S
C199   O410    1.223   .     S
O200   C409    1.223   1_545 S
O201   H202    1.014   .     S
C203   O205    1.398   .     S
C203   O204    1.222   .     D
H206   O65     1.014   1_655 S
C207   O208    1.219   .     D
C207   O209    1.398   .     S
O209   H210    1.014   .     S
C211   C231    1.431   .     S
C211   O255    1.290   .     A
C211   O257    1.290   .     A
C212   O258    1.294   .     A
C212   C232    1.448   .     S
C212   O256    1.294   .     A
C213   C221    1.405   .     A
C213   C215    1.405   .     A
C213   H247    1.079   .     S
C214   C216    1.404   .     A
C214   C222    1.404   .     A
C214   H248    1.079   .     S
C215   N253    1.375   .     A
C215   C273    1.470   .     S
C216   N254    1.376   .     A
C216   C277    1.472   .     S
C217   N253    1.362   .     A
C217   C219    1.408   .     A
C217   H249    1.081   .     S
C218   N254    1.362   .     A
C218   C220    1.409   .     A
C218   H250    1.082   .     S
C219   H251    1.078   .     S
C219   C221    1.418   .     A
C220   H252    1.078   .     S
C220   C222    1.419   .     A
C221   C642    1.525   1_554 S
C222   C641    1.525   .     S
C223   C225    1.403   .     S
C223   O259    1.278   .     A
C223   O261    1.288   .     A
C224   C226    1.403   .     S
C224   O260    1.279   .     A
C224   O262    1.288   .     A
C225   C366    1.336   1_455 S
C225   H379    1.087   1_455 S
C226   C295    1.336   .     S
C226   H310    1.088   .     S
C227   H241    1.084   .     S
C227   C237    1.401   .     A
C227   C229    1.377   .     A
C228   H242    1.084   .     S
C228   C238    1.399   .     A
C228   C230    1.380   .     A
C229   C231    1.391   .     A
C229   H243    1.084   .     S
C230   C232    1.397   .     A
C230   H244    1.083   .     S
C231   C233    1.398   .     A
C232   C234    1.401   .     A
C233   H245    1.084   .     S
C233   C235    1.393   .     A
C234   H246    1.080   .     S
C234   C236    1.391   .     A
C235   C265    1.490   .     S
C235   C237    1.415   .     A
C236   C269    1.490   .     S
C236   C238    1.413   .     A
C238   C27     1.447   1_565 S
H239   C295    1.087   .     S
H240   C366    1.088   1_455 S
N253   Zn264   2.019   .     S
N254   Zn263   2.019   .     S
O255   Zn263   1.980   .     S
O256   Zn264   1.980   .     S
O257   Zn264   1.994   .     S
O258   Zn263   1.994   .     S
O259   Zn263   1.960   .     S
O260   Zn264   1.960   .     S
O261   Zn264   1.980   .     S
O262   Zn263   1.980   .     S
C265   O267    1.399   .     S
O266   C55     1.223   1_565 S
O267   H268    1.014   .     S
C269   O271    1.399   .     S
C269   O60     1.223   1_565 S
O271   H272    1.014   .     S
C273   O275    1.398   .     S
C273   O274    1.222   .     D
O275   H416    1.014   1_455 S
H276   O345    1.014   .     S
C277   O278    1.219   .     D
C277   O279    1.398   .     S
O279   H280    1.014   .     S
C281   C301    1.431   .     S
C281   O325    1.290   .     A
C281   O327    1.290   .     A
C282   O328    1.294   .     A
C282   C302    1.448   .     S
C282   O326    1.294   .     A
C283   C291    1.405   .     A
C283   C285    1.405   .     A
C283   H317    1.079   .     S
C284   C286    1.404   .     A
C284   C292    1.404   .     A
C284   H318    1.079   .     S
C285   N323    1.375   .     A
C285   C343    1.470   .     S
C286   N324    1.376   .     A
C286   C347    1.472   .     S
C287   N323    1.362   .     A
C287   C289    1.408   .     A
C287   H319    1.081   .     S
C288   N324    1.362   .     A
C288   C290    1.409   .     A
C288   H320    1.082   .     S
C289   H321    1.078   .     S
C289   C291    1.418   .     A
C290   H322    1.078   .     S
C290   C292    1.419   .     A
C291   C712    1.525   1_554 S
C292   C711    1.525   .     S
C293   C295    1.403   .     S
C293   O329    1.278   .     A
C293   O331    1.288   .     A
C294   C296    1.403   .     S
C294   O330    1.279   .     A
C294   O332    1.288   .     A
C296   C365    1.336   .     S
C296   H380    1.088   .     S
C297   H311    1.084   .     S
C297   C307    1.401   .     A
C297   C299    1.377   .     A
C298   H312    1.084   .     S
C298   C308    1.399   .     A
C298   C300    1.380   .     A
C299   C301    1.391   .     A
C299   H313    1.084   .     S
C300   C302    1.397   .     A
C300   H314    1.083   .     S
C301   C303    1.398   .     A
C302   C304    1.401   .     A
C303   H315    1.084   .     S
C303   C305    1.393   .     A
C304   H316    1.080   .     S
C304   C306    1.391   .     A
C305   C335    1.490   .     S
C305   C307    1.415   .     A
C306   C339    1.490   .     S
C306   C308    1.413   .     A
C308   C97     1.447   1_565 S
H309   C365    1.087   .     S
N323   Zn334   2.019   .     S
N324   Zn333   2.019   .     S
O325   Zn333   1.980   .     S
O326   Zn334   1.980   .     S
O327   Zn334   1.994   .     S
O328   Zn333   1.994   .     S
O329   Zn333   1.960   .     S
O330   Zn334   1.960   .     S
O331   Zn334   1.980   .     S
O332   Zn333   1.980   .     S
C335   O337    1.399   .     S
O336   C125    1.223   1_565 S
O337   H338    1.014   .     S
C339   O341    1.399   .     S
C339   O130    1.223   1_565 S
O341   H342    1.014   .     S
C343   O345    1.398   .     S
C343   O344    1.222   .     D
H346   O415    1.014   .     S
C347   O348    1.219   .     D
C347   O349    1.398   .     S
O349   H350    1.014   .     S
C351   C371    1.431   .     S
C351   O395    1.290   .     A
C351   O397    1.290   .     A
C352   O398    1.294   .     A
C352   C372    1.448   .     S
C352   O396    1.294   .     A
C353   C361    1.405   .     A
C353   C355    1.405   .     A
C353   H387    1.079   .     S
C354   C356    1.404   .     A
C354   C362    1.404   .     A
C354   H388    1.079   .     S
C355   N393    1.375   .     A
C355   C413    1.470   .     S
C356   N394    1.376   .     A
C356   C417    1.472   .     S
C357   N393    1.362   .     A
C357   C359    1.408   .     A
C357   H389    1.081   .     S
C358   N394    1.362   .     A
C358   C360    1.409   .     A
C358   H390    1.082   .     S
C359   H391    1.078   .     S
C359   C361    1.418   .     A
C360   H392    1.078   .     S
C360   C362    1.419   .     A
C361   C782    1.525   1_554 S
C362   C781    1.525   .     S
C363   C365    1.403   .     S
C363   O399    1.278   .     A
C363   O401    1.288   .     A
C364   C366    1.403   .     S
C364   O400    1.279   .     A
C364   O402    1.288   .     A
C366   C225    1.336   1_655 S
C366   H240    1.088   1_655 S
C367   H381    1.084   .     S
C367   C377    1.401   .     A
C367   C369    1.377   .     A
C368   H382    1.084   .     S
C368   C378    1.399   .     A
C368   C370    1.380   .     A
C369   C371    1.391   .     A
C369   H383    1.084   .     S
C370   C372    1.397   .     A
C370   H384    1.083   .     S
C371   C373    1.398   .     A
C372   C374    1.401   .     A
C373   H385    1.084   .     S
C373   C375    1.393   .     A
C374   H386    1.080   .     S
C374   C376    1.391   .     A
C375   C405    1.490   .     S
C375   C377    1.415   .     A
C376   C409    1.490   .     S
C376   C378    1.413   .     A
C378   C167    1.447   1_565 S
H379   C225    1.087   1_655 S
N393   Zn404   2.019   .     S
N394   Zn403   2.019   .     S
O395   Zn403   1.980   .     S
O396   Zn404   1.980   .     S
O397   Zn404   1.994   .     S
O398   Zn403   1.994   .     S
O399   Zn403   1.960   .     S
O400   Zn404   1.960   .     S
O401   Zn404   1.980   .     S
O402   Zn403   1.980   .     S
C405   O407    1.399   .     S
O406   C195    1.223   1_565 S
O407   H408    1.014   .     S
C409   O411    1.399   .     S
C409   O200    1.223   1_565 S
O411   H412    1.014   .     S
C413   O415    1.398   .     S
C413   O414    1.222   .     D
H416   O275    1.014   1_655 S
C417   O418    1.219   .     D
C417   O419    1.398   .     S
O419   H420    1.014   .     S
C421   C441    1.431   .     S
C421   O465    1.290   .     A
C421   O467    1.290   .     A
C422   O468    1.294   .     A
C422   C442    1.448   .     S
C422   O466    1.294   .     A
C423   C431    1.405   .     A
C423   C425    1.405   .     A
C423   H457    1.079   .     S
C424   C426    1.404   .     A
C424   C432    1.404   .     A
C424   H458    1.079   .     S
C425   N463    1.375   .     A
C425   C483    1.470   .     S
C426   N464    1.376   .     A
C426   C487    1.472   .     S
C427   N463    1.362   .     A
C427   C429    1.408   .     A
C427   H459    1.081   .     S
C428   N464    1.362   .     A
C428   C430    1.409   .     A
C428   H460    1.082   .     S
C429   H461    1.078   .     S
C429   C431    1.418   .     A
C430   H462    1.078   .     S
C430   C432    1.419   .     A
C432   C11     1.525   1_556 S
C433   C435    1.403   .     S
C433   O469    1.278   .     A
C433   O471    1.288   .     A
C434   C436    1.403   .     S
C434   O470    1.279   .     A
C434   O472    1.288   .     A
C435   C576    1.336   1_455 S
C435   H589    1.087   1_455 S
C436   C505    1.336   .     S
C436   H520    1.088   .     S
C437   H451    1.084   .     S
C437   C447    1.401   .     A
C437   C439    1.377   .     A
C438   H452    1.084   .     S
C438   C448    1.399   .     A
C438   C440    1.380   .     A
C439   C441    1.391   .     A
C439   H453    1.084   .     S
C440   C442    1.397   .     A
C440   H454    1.083   .     S
C441   C443    1.398   .     A
C442   C444    1.401   .     A
C443   H455    1.084   .     S
C443   C445    1.393   .     A
C444   H456    1.080   .     S
C444   C446    1.391   .     A
C445   C475    1.490   .     S
C445   C447    1.415   .     A
C446   C479    1.490   .     S
C446   C448    1.413   .     A
C447   C658    1.447   1_545 S
C448   C657    1.447   .     S
H449   C505    1.087   .     S
H450   C576    1.088   1_455 S
N463   Zn474   2.019   .     S
N464   Zn473   2.019   .     S
O465   Zn473   1.980   .     S
O466   Zn474   1.980   .     S
O467   Zn474   1.994   .     S
O468   Zn473   1.994   .     S
O469   Zn473   1.960   .     S
O470   Zn474   1.960   .     S
O471   Zn474   1.980   .     S
O472   Zn473   1.980   .     S
C475   O477    1.399   .     S
C475   O686    1.223   1_545 S
O476   C685    1.223   .     S
O477   H478    1.014   .     S
C479   O481    1.399   .     S
C479   O690    1.223   .     S
O480   C689    1.223   1_545 S
O481   H482    1.014   .     S
C483   O485    1.398   .     S
C483   O484    1.222   .     D
O485   H626    1.014   1_455 S
H486   O555    1.014   .     S
C487   O488    1.219   .     D
C487   O489    1.398   .     S
O489   H490    1.014   .     S
C491   C511    1.431   .     S
C491   O535    1.290   .     A
C491   O537    1.290   .     A
C492   O538    1.294   .     A
C492   C512    1.448   .     S
C492   O536    1.294   .     A
C493   C501    1.405   .     A
C493   C495    1.405   .     A
C493   H527    1.079   .     S
C494   C496    1.404   .     A
C494   C502    1.404   .     A
C494   H528    1.079   .     S
C495   N533    1.375   .     A
C495   C553    1.470   .     S
C496   N534    1.376   .     A
C496   C557    1.472   .     S
C497   N533    1.362   .     A
C497   C499    1.408   .     A
C497   H529    1.081   .     S
C498   N534    1.362   .     A
C498   C500    1.409   .     A
C498   H530    1.082   .     S
C499   H531    1.078   .     S
C499   C501    1.418   .     A
C500   H532    1.078   .     S
C500   C502    1.419   .     A
C502   C81     1.525   1_556 S
C503   C505    1.403   .     S
C503   O539    1.278   .     A
C503   O541    1.288   .     A
C504   C506    1.403   .     S
C504   O540    1.279   .     A
C504   O542    1.288   .     A
C506   C575    1.336   .     S
C506   H590    1.088   .     S
C507   H521    1.084   .     S
C507   C517    1.401   .     A
C507   C509    1.377   .     A
C508   H522    1.084   .     S
C508   C518    1.399   .     A
C508   C510    1.380   .     A
C509   C511    1.391   .     A
C509   H523    1.084   .     S
C510   C512    1.397   .     A
C510   H524    1.083   .     S
C511   C513    1.398   .     A
C512   C514    1.401   .     A
C513   H525    1.084   .     S
C513   C515    1.393   .     A
C514   H526    1.080   .     S
C514   C516    1.391   .     A
C515   C545    1.490   .     S
C515   C517    1.415   .     A
C516   C549    1.490   .     S
C516   C518    1.413   .     A
C517   C728    1.447   1_545 S
C518   C727    1.447   .     S
H519   C575    1.087   .     S
N533   Zn544   2.019   .     S
N534   Zn543   2.019   .     S
O535   Zn543   1.980   .     S
O536   Zn544   1.980   .     S
O537   Zn544   1.994   .     S
O538   Zn543   1.994   .     S
O539   Zn543   1.960   .     S
O540   Zn544   1.960   .     S
O541   Zn544   1.980   .     S
O542   Zn543   1.980   .     S
C545   O547    1.399   .     S
C545   O756    1.223   1_545 S
O546   C755    1.223   .     S
O547   H548    1.014   .     S
C549   O551    1.399   .     S
C549   O760    1.223   .     S
O550   C759    1.223   1_545 S
O551   H552    1.014   .     S
C553   O555    1.398   .     S
C553   O554    1.222   .     D
H556   O625    1.014   .     S
C557   O558    1.219   .     D
C557   O559    1.398   .     S
O559   H560    1.014   .     S
C561   C581    1.431   .     S
C561   O605    1.290   .     A
C561   O607    1.290   .     A
C562   O608    1.294   .     A
C562   C582    1.448   .     S
C562   O606    1.294   .     A
C563   C571    1.405   .     A
C563   C565    1.405   .     A
C563   H597    1.079   .     S
C564   C566    1.404   .     A
C564   C572    1.404   .     A
C564   H598    1.079   .     S
C565   N603    1.375   .     A
C565   C623    1.470   .     S
C566   N604    1.376   .     A
C566   C627    1.472   .     S
C567   N603    1.362   .     A
C567   C569    1.408   .     A
C567   H599    1.081   .     S
C568   N604    1.362   .     A
C568   C570    1.409   .     A
C568   H600    1.082   .     S
C569   H601    1.078   .     S
C569   C571    1.418   .     A
C570   H602    1.078   .     S
C570   C572    1.419   .     A
C572   C151    1.525   1_556 S
C573   C575    1.403   .     S
C573   O609    1.278   .     A
C573   O611    1.288   .     A
C574   C576    1.403   .     S
C574   O610    1.279   .     A
C574   O612    1.288   .     A
C576   C435    1.336   1_655 S
C576   H450    1.088   1_655 S
C577   H591    1.084   .     S
C577   C587    1.401   .     A
C577   C579    1.377   .     A
C578   H592    1.084   .     S
C578   C588    1.399   .     A
C578   C580    1.380   .     A
C579   C581    1.391   .     A
C579   H593    1.084   .     S
C580   C582    1.397   .     A
C580   H594    1.083   .     S
C581   C583    1.398   .     A
C582   C584    1.401   .     A
C583   H595    1.084   .     S
C583   C585    1.393   .     A
C584   H596    1.080   .     S
C584   C586    1.391   .     A
C585   C615    1.490   .     S
C585   C587    1.415   .     A
C586   C619    1.490   .     S
C586   C588    1.413   .     A
C587   C798    1.447   1_545 S
C588   C797    1.447   .     S
H589   C435    1.087   1_655 S
N603   Zn614   2.019   .     S
N604   Zn613   2.019   .     S
O605   Zn613   1.980   .     S
O606   Zn614   1.980   .     S
O607   Zn614   1.994   .     S
O608   Zn613   1.994   .     S
O609   Zn613   1.960   .     S
O610   Zn614   1.960   .     S
O611   Zn614   1.980   .     S
O612   Zn613   1.980   .     S
C615   O617    1.399   .     S
C615   O826    1.223   1_545 S
O616   C825    1.223   .     S
O617   H618    1.014   .     S
C619   O621    1.399   .     S
C619   O830    1.223   .     S
O620   C829    1.223   1_545 S
O621   H622    1.014   .     S
C623   O625    1.398   .     S
C623   O624    1.222   .     D
H626   O485    1.014   1_655 S
C627   O628    1.219   .     D
C627   O629    1.398   .     S
O629   H630    1.014   .     S
C631   C651    1.431   .     S
C631   O675    1.290   .     A
C631   O677    1.290   .     A
C632   O678    1.294   .     A
C632   C652    1.448   .     S
C632   O676    1.294   .     A
C633   C641    1.405   .     A
C633   C635    1.405   .     A
C633   H667    1.079   .     S
C634   C636    1.404   .     A
C634   C642    1.404   .     A
C634   H668    1.079   .     S
C635   N673    1.375   .     A
C635   C693    1.470   .     S
C636   N674    1.376   .     A
C636   C697    1.472   .     S
C637   N673    1.362   .     A
C637   C639    1.408   .     A
C637   H669    1.081   .     S
C638   N674    1.362   .     A
C638   C640    1.409   .     A
C638   H670    1.082   .     S
C639   H671    1.078   .     S
C639   C641    1.418   .     A
C640   H672    1.078   .     S
C640   C642    1.419   .     A
C642   C221    1.525   1_556 S
C643   C645    1.403   .     S
C643   O679    1.278   .     A
C643   O681    1.288   .     A
C644   C646    1.403   .     S
C644   O680    1.279   .     A
C644   O682    1.288   .     A
C645   C786    1.336   1_455 S
C645   H799    1.087   1_455 S
C646   C715    1.336   .     S
C646   H730    1.088   .     S
C647   H661    1.084   .     S
C647   C657    1.401   .     A
C647   C649    1.377   .     A
C648   H662    1.084   .     S
C648   C658    1.399   .     A
C648   C650    1.380   .     A
C649   C651    1.391   .     A
C649   H663    1.084   .     S
C650   C652    1.397   .     A
C650   H664    1.083   .     S
C651   C653    1.398   .     A
C652   C654    1.401   .     A
C653   H665    1.084   .     S
C653   C655    1.393   .     A
C654   H666    1.080   .     S
C654   C656    1.391   .     A
C655   C685    1.490   .     S
C655   C657    1.415   .     A
C656   C689    1.490   .     S
C656   C658    1.413   .     A
C658   C447    1.447   1_565 S
H659   C715    1.087   .     S
H660   C786    1.088   1_455 S
N673   Zn684   2.019   .     S
N674   Zn683   2.019   .     S
O675   Zn683   1.980   .     S
O676   Zn684   1.980   .     S
O677   Zn684   1.994   .     S
O678   Zn683   1.994   .     S
O679   Zn683   1.960   .     S
O680   Zn684   1.960   .     S
O681   Zn684   1.980   .     S
O682   Zn683   1.980   .     S
C685   O687    1.399   .     S
O686   C475    1.223   1_565 S
O687   H688    1.014   .     S
C689   O691    1.399   .     S
C689   O480    1.223   1_565 S
O691   H692    1.014   .     S
C693   O695    1.398   .     S
C693   O694    1.222   .     D
O695   H836    1.014   1_455 S
H696   O765    1.014   .     S
C697   O698    1.219   .     D
C697   O699    1.398   .     S
O699   H700    1.014   .     S
C701   C721    1.431   .     S
C701   O745    1.290   .     A
C701   O747    1.290   .     A
C702   O748    1.294   .     A
C702   C722    1.448   .     S
C702   O746    1.294   .     A
C703   C711    1.405   .     A
C703   C705    1.405   .     A
C703   H737    1.079   .     S
C704   C706    1.404   .     A
C704   C712    1.404   .     A
C704   H738    1.079   .     S
C705   N743    1.375   .     A
C705   C763    1.470   .     S
C706   N744    1.376   .     A
C706   C767    1.472   .     S
C707   N743    1.362   .     A
C707   C709    1.408   .     A
C707   H739    1.081   .     S
C708   N744    1.362   .     A
C708   C710    1.409   .     A
C708   H740    1.082   .     S
C709   H741    1.078   .     S
C709   C711    1.418   .     A
C710   H742    1.078   .     S
C710   C712    1.419   .     A
C712   C291    1.525   1_556 S
C713   C715    1.403   .     S
C713   O749    1.278   .     A
C713   O751    1.288   .     A
C714   C716    1.403   .     S
C714   O750    1.279   .     A
C714   O752    1.288   .     A
C716   C785    1.336   .     S
C716   H800    1.088   .     S
C717   H731    1.084   .     S
C717   C727    1.401   .     A
C717   C719    1.377   .     A
C718   H732    1.084   .     S
C718   C728    1.399   .     A
C718   C720    1.380   .     A
C719   C721    1.391   .     A
C719   H733    1.084   .     S
C720   C722    1.397   .     A
C720   H734    1.083   .     S
C721   C723    1.398   .     A
C722   C724    1.401   .     A
C723   H735    1.084   .     S
C723   C725    1.393   .     A
C724   H736    1.080   .     S
C724   C726    1.391   .     A
C725   C755    1.490   .     S
C725   C727    1.415   .     A
C726   C759    1.490   .     S
C726   C728    1.413   .     A
C728   C517    1.447   1_565 S
H729   C785    1.087   .     S
N743   Zn754   2.019   .     S
N744   Zn753   2.019   .     S
O745   Zn753   1.980   .     S
O746   Zn754   1.980   .     S
O747   Zn754   1.994   .     S
O748   Zn753   1.994   .     S
O749   Zn753   1.960   .     S
O750   Zn754   1.960   .     S
O751   Zn754   1.980   .     S
O752   Zn753   1.980   .     S
C755   O757    1.399   .     S
O756   C545    1.223   1_565 S
O757   H758    1.014   .     S
C759   O761    1.399   .     S
C759   O550    1.223   1_565 S
O761   H762    1.014   .     S
C763   O765    1.398   .     S
C763   O764    1.222   .     D
H766   O835    1.014   .     S
C767   O768    1.219   .     D
C767   O769    1.398   .     S
O769   H770    1.014   .     S
C771   C791    1.431   .     S
C771   O815    1.290   .     A
C771   O817    1.290   .     A
C772   O818    1.294   .     A
C772   C792    1.448   .     S
C772   O816    1.294   .     A
C773   C781    1.405   .     A
C773   C775    1.405   .     A
C773   H807    1.079   .     S
C774   C776    1.404   .     A
C774   C782    1.404   .     A
C774   H808    1.079   .     S
C775   N813    1.375   .     A
C775   C833    1.470   .     S
C776   N814    1.376   .     A
C776   C837    1.472   .     S
C777   N813    1.362   .     A
C777   C779    1.408   .     A
C777   H809    1.081   .     S
C778   N814    1.362   .     A
C778   C780    1.409   .     A
C778   H810    1.082   .     S
C779   H811    1.078   .     S
C779   C781    1.418   .     A
C780   H812    1.078   .     S
C780   C782    1.419   .     A
C782   C361    1.525   1_556 S
C783   C785    1.403   .     S
C783   O819    1.278   .     A
C783   O821    1.288   .     A
C784   C786    1.403   .     S
C784   O820    1.279   .     A
C784   O822    1.288   .     A
C786   C645    1.336   1_655 S
C786   H660    1.088   1_655 S
C787   H801    1.084   .     S
C787   C797    1.401   .     A
C787   C789    1.377   .     A
C788   H802    1.084   .     S
C788   C798    1.399   .     A
C788   C790    1.380   .     A
C789   C791    1.391   .     A
C789   H803    1.084   .     S
C790   C792    1.397   .     A
C790   H804    1.083   .     S
C791   C793    1.398   .     A
C792   C794    1.401   .     A
C793   H805    1.084   .     S
C793   C795    1.393   .     A
C794   H806    1.080   .     S
C794   C796    1.391   .     A
C795   C825    1.490   .     S
C795   C797    1.415   .     A
C796   C829    1.490   .     S
C796   C798    1.413   .     A
C798   C587    1.447   1_565 S
H799   C645    1.087   1_655 S
N813   Zn824   2.019   .     S
N814   Zn823   2.019   .     S
O815   Zn823   1.980   .     S
O816   Zn824   1.980   .     S
O817   Zn824   1.994   .     S
O818   Zn823   1.994   .     S
O819   Zn823   1.960   .     S
O820   Zn824   1.960   .     S
O821   Zn824   1.980   .     S
O822   Zn823   1.980   .     S
C825   O827    1.399   .     S
O826   C615    1.223   1_565 S
O827   H828    1.014   .     S
C829   O831    1.399   .     S
C829   O620    1.223   1_565 S
O831   H832    1.014   .     S
C833   O835    1.398   .     S
C833   O834    1.222   .     D
H836   O695    1.014   1_655 S
C837   O838    1.219   .     D
C837   O839    1.398   .     S
O839   H840    1.014   .     S
