data_str_m3_o10_o16_pcu_sym.82
_audit_creation_date              2020-01-03
_audit_creation_method            'Materials Studio'
_symmetry_space_group_name_H-M    'P1'
_symmetry_Int_Tables_number       1
_symmetry_cell_setting            triclinic
loop_
_symmetry_equiv_pos_as_xyz
  x,y,z
_cell_length_a                    23.6041
_cell_length_b                    25.6048
_cell_length_c                    24.4392
_cell_angle_alpha                 93.8145
_cell_angle_beta                  101.8029
_cell_angle_gamma                 93.4873
loop_
_atom_site_label
_atom_site_type_symbol
_atom_site_fract_x
_atom_site_fract_y
_atom_site_fract_z
_atom_site_U_iso_or_equiv
_atom_site_adp_type
_atom_site_occupancy
C1     C     0.01661   0.26494   0.25607   0.00000  Uiso   1.00
C2     C     0.05370   0.16773   0.41512   0.00000  Uiso   1.00
C3     C     0.02931   0.31989   0.27294   0.00000  Uiso   1.00
C4     C     0.03590   0.17015   0.35498   0.00000  Uiso   1.00
C5     C     0.31818   0.01727   0.27597   0.00000  Uiso   1.00
C6     C     0.32111   0.06947   0.25841   0.00000  Uiso   1.00
C7     C     0.29754   0.16404   0.14524   0.00000  Uiso   1.00
C8     C     0.28611   0.23042   0.01441   0.00000  Uiso   1.00
C9     C     0.27993   0.17274   0.08692   0.00000  Uiso   1.00
C10    C     0.01892   0.13675   0.44238   0.00000  Uiso   1.00
C11    C     0.04091   0.12309   0.49613   0.00000  Uiso   1.00
C12    C     0.13450   0.16863   0.49421   0.00000  Uiso   1.00
C13    C     0.09834   0.13809   0.02180   0.00000  Uiso   1.00
C14    C     0.26291   0.33282   0.29443   0.00000  Uiso   1.00
C15    C     0.15596   0.10274   0.20964   0.00000  Uiso   1.00
C16    C     0.22930   0.28485   0.41902   0.00000  Uiso   1.00
C17    C     0.09285   0.00628   0.28567   0.00000  Uiso   1.00
C18    C     0.10958   0.18783   0.44292   0.00000  Uiso   1.00
C19    C     0.19452   0.18046   0.01557   0.00000  Uiso   1.00
C20    C     0.22672   0.21778   0.49080   0.00000  Uiso   1.00
C21    C     0.19858   0.24222   0.44400   0.00000  Uiso   1.00
C22    C     0.14084   0.22629   0.41993   0.00000  Uiso   1.00
C23    C     0.22348   0.15591   0.06116   0.00000  Uiso   1.00
C24    C     0.31215   0.20881   0.06300   0.00000  Uiso   1.00
H25    H     0.02286   0.22249   0.08355   0.00000  Uiso   1.00
H26    H     0.22755   0.32085   0.25737   0.00000  Uiso   1.00
H27    H     0.27036   0.30049   0.32211   0.00000  Uiso   1.00
H28    H     0.17333   0.07673   0.24240   0.00000  Uiso   1.00
H29    H     0.11433   0.08365   0.18494   0.00000  Uiso   1.00
H30    H     0.18456   0.10754   0.17976   0.00000  Uiso   1.00
H31    H     0.20055   0.29965   0.38253   0.00000  Uiso   1.00
H32    H     0.24425   0.31850   0.45083   0.00000  Uiso   1.00
H33    H     0.26722   0.26911   0.40509   0.00000  Uiso   1.00
H34    H     0.10802   0.00824   0.24582   0.00000  Uiso   1.00
H35    H     0.10149   0.04443   0.31138   0.00000  Uiso   1.00
H36    H     0.17677   0.21289   0.28672   0.00000  Uiso   1.00
H37    H     0.11884   0.31168   0.31104   0.00000  Uiso   1.00
H38    H     0.31227   0.25863   0.49731   0.00000  Uiso   1.00
H39    H     0.20226   0.12549   0.07998   0.00000  Uiso   1.00
H40    H     0.30894   0.12140   0.42127   0.00000  Uiso   1.00
H41    H     0.11264   0.12623   0.06360   0.00000  Uiso   1.00
H42    H     0.01393   0.09941   0.01736   0.00000  Uiso   1.00
H43    H     0.11982   0.24490   0.38344   0.00000  Uiso   1.00
H44    H     0.24874   0.03165   0.32011   0.00000  Uiso   1.00
N45    N     0.14493   0.15223   0.23543   0.00000  Uiso   1.00
N46    N     0.18840   0.18110   0.26458   0.00000  Uiso   1.00
O47    O     0.29769   0.24629   0.25358   0.00000  Uiso   1.00
O48    O     0.05742   0.23704   0.24424   0.00000  Uiso   1.00
O49    O     0.31490   0.17358   0.33380   0.00000  Uiso   1.00
O50    O     0.07463   0.16433   0.32446   0.00000  Uiso   1.00
O51    O     0.27592   0.09629   0.25577   0.00000  Uiso   1.00
O52    O     0.03565   0.08704   0.24643   0.00000  Uiso   1.00
O53    O     0.25870   0.16901   0.17554   0.00000  Uiso   1.00
O54    O     0.01843   0.15976   0.16620   0.00000  Uiso   1.00
Zn55   Zn    0.27119   0.17284   0.25624   0.00000  Uiso   1.00
Zn56   Zn    0.06214   0.16049   0.24377   0.00000  Uiso   1.00
C57    C     0.34994   0.26494   0.25607   0.00000  Uiso   1.00
C58    C     0.38704   0.16773   0.41512   0.00000  Uiso   1.00
C59    C     0.36264   0.31989   0.27294   0.00000  Uiso   1.00
C60    C     0.36924   0.17015   0.35498   0.00000  Uiso   1.00
C61    C     0.65152   0.01727   0.27597   0.00000  Uiso   1.00
C62    C     0.65445   0.06947   0.25841   0.00000  Uiso   1.00
C63    C     0.63087   0.16404   0.14524   0.00000  Uiso   1.00
C64    C     0.61945   0.23042   0.01441   0.00000  Uiso   1.00
C65    C     0.61326   0.17274   0.08692   0.00000  Uiso   1.00
C66    C     0.35225   0.13675   0.44238   0.00000  Uiso   1.00
C67    C     0.37424   0.12309   0.49613   0.00000  Uiso   1.00
C68    C     0.46783   0.16863   0.49421   0.00000  Uiso   1.00
C69    C     0.43167   0.13809   0.02180   0.00000  Uiso   1.00
C70    C     0.59624   0.33282   0.29443   0.00000  Uiso   1.00
C71    C     0.48929   0.10274   0.20964   0.00000  Uiso   1.00
C72    C     0.56263   0.28485   0.41902   0.00000  Uiso   1.00
C73    C     0.42618   0.00628   0.28567   0.00000  Uiso   1.00
C74    C     0.44292   0.18783   0.44292   0.00000  Uiso   1.00
C75    C     0.52786   0.18046   0.01557   0.00000  Uiso   1.00
C76    C     0.56006   0.21778   0.49080   0.00000  Uiso   1.00
C77    C     0.53191   0.24222   0.44400   0.00000  Uiso   1.00
C78    C     0.47417   0.22629   0.41993   0.00000  Uiso   1.00
C79    C     0.55681   0.15591   0.06116   0.00000  Uiso   1.00
C80    C     0.64549   0.20881   0.06300   0.00000  Uiso   1.00
H81    H     0.35619   0.22249   0.08355   0.00000  Uiso   1.00
H82    H     0.56088   0.32085   0.25737   0.00000  Uiso   1.00
H83    H     0.60370   0.30049   0.32211   0.00000  Uiso   1.00
H84    H     0.50667   0.07673   0.24240   0.00000  Uiso   1.00
H85    H     0.44766   0.08365   0.18494   0.00000  Uiso   1.00
H86    H     0.51790   0.10754   0.17976   0.00000  Uiso   1.00
H87    H     0.53388   0.29965   0.38253   0.00000  Uiso   1.00
H88    H     0.57758   0.31850   0.45083   0.00000  Uiso   1.00
H89    H     0.60055   0.26911   0.40509   0.00000  Uiso   1.00
H90    H     0.44136   0.00824   0.24582   0.00000  Uiso   1.00
H91    H     0.43482   0.04443   0.31138   0.00000  Uiso   1.00
H92    H     0.51011   0.21289   0.28672   0.00000  Uiso   1.00
H93    H     0.45217   0.31168   0.31104   0.00000  Uiso   1.00
H94    H     0.64561   0.25863   0.49731   0.00000  Uiso   1.00
H95    H     0.53559   0.12549   0.07998   0.00000  Uiso   1.00
H96    H     0.64227   0.12140   0.42127   0.00000  Uiso   1.00
H97    H     0.44597   0.12623   0.06360   0.00000  Uiso   1.00
H98    H     0.34726   0.09941   0.01736   0.00000  Uiso   1.00
H99    H     0.45315   0.24490   0.38344   0.00000  Uiso   1.00
H100   H     0.58207   0.03165   0.32011   0.00000  Uiso   1.00
N101   N     0.47827   0.15223   0.23543   0.00000  Uiso   1.00
N102   N     0.52173   0.18110   0.26458   0.00000  Uiso   1.00
O103   O     0.63102   0.24629   0.25358   0.00000  Uiso   1.00
O104   O     0.39075   0.23704   0.24424   0.00000  Uiso   1.00
O105   O     0.64823   0.17358   0.33380   0.00000  Uiso   1.00
O106   O     0.40796   0.16433   0.32446   0.00000  Uiso   1.00
O107   O     0.60925   0.09629   0.25577   0.00000  Uiso   1.00
O108   O     0.36898   0.08704   0.24643   0.00000  Uiso   1.00
O109   O     0.59204   0.16901   0.17554   0.00000  Uiso   1.00
O110   O     0.35177   0.15976   0.16620   0.00000  Uiso   1.00
Zn111  Zn    0.60453   0.17284   0.25624   0.00000  Uiso   1.00
Zn112  Zn    0.39547   0.16049   0.24377   0.00000  Uiso   1.00
C113   C     0.68327   0.26494   0.25607   0.00000  Uiso   1.00
C114   C     0.72037   0.16773   0.41512   0.00000  Uiso   1.00
C115   C     0.69597   0.31989   0.27294   0.00000  Uiso   1.00
C116   C     0.70257   0.17015   0.35498   0.00000  Uiso   1.00
C117   C     0.98485   0.01727   0.27597   0.00000  Uiso   1.00
C118   C     0.98778   0.06947   0.25841   0.00000  Uiso   1.00
C119   C     0.96421   0.16404   0.14524   0.00000  Uiso   1.00
C120   C     0.95278   0.23042   0.01441   0.00000  Uiso   1.00
C121   C     0.94659   0.17274   0.08692   0.00000  Uiso   1.00
C122   C     0.68559   0.13675   0.44238   0.00000  Uiso   1.00
C123   C     0.70758   0.12309   0.49613   0.00000  Uiso   1.00
C124   C     0.80117   0.16863   0.49421   0.00000  Uiso   1.00
C125   C     0.76501   0.13809   0.02180   0.00000  Uiso   1.00
C126   C     0.92958   0.33282   0.29443   0.00000  Uiso   1.00
C127   C     0.82262   0.10274   0.20964   0.00000  Uiso   1.00
C128   C     0.89596   0.28485   0.41902   0.00000  Uiso   1.00
C129   C     0.75952   0.00628   0.28567   0.00000  Uiso   1.00
C130   C     0.77625   0.18783   0.44292   0.00000  Uiso   1.00
C131   C     0.86119   0.18046   0.01557   0.00000  Uiso   1.00
C132   C     0.89339   0.21778   0.49080   0.00000  Uiso   1.00
C133   C     0.86524   0.24222   0.44400   0.00000  Uiso   1.00
C134   C     0.80751   0.22629   0.41993   0.00000  Uiso   1.00
C135   C     0.89015   0.15591   0.06116   0.00000  Uiso   1.00
C136   C     0.97882   0.20881   0.06300   0.00000  Uiso   1.00
H137   H     0.68953   0.22249   0.08355   0.00000  Uiso   1.00
H138   H     0.89422   0.32085   0.25737   0.00000  Uiso   1.00
H139   H     0.93703   0.30049   0.32211   0.00000  Uiso   1.00
H140   H     0.84000   0.07673   0.24240   0.00000  Uiso   1.00
H141   H     0.78100   0.08365   0.18494   0.00000  Uiso   1.00
H142   H     0.85123   0.10754   0.17976   0.00000  Uiso   1.00
H143   H     0.86721   0.29965   0.38253   0.00000  Uiso   1.00
H144   H     0.91092   0.31850   0.45083   0.00000  Uiso   1.00
H145   H     0.93389   0.26911   0.40509   0.00000  Uiso   1.00
H146   H     0.77469   0.00824   0.24582   0.00000  Uiso   1.00
H147   H     0.76815   0.04443   0.31138   0.00000  Uiso   1.00
H148   H     0.84344   0.21289   0.28672   0.00000  Uiso   1.00
H149   H     0.78551   0.31168   0.31104   0.00000  Uiso   1.00
H150   H     0.97894   0.25863   0.49731   0.00000  Uiso   1.00
H151   H     0.86892   0.12549   0.07998   0.00000  Uiso   1.00
H152   H     0.97561   0.12140   0.42127   0.00000  Uiso   1.00
H153   H     0.77930   0.12623   0.06360   0.00000  Uiso   1.00
H154   H     0.68059   0.09941   0.01736   0.00000  Uiso   1.00
H155   H     0.78648   0.24490   0.38344   0.00000  Uiso   1.00
H156   H     0.91540   0.03165   0.32011   0.00000  Uiso   1.00
N157   N     0.81160   0.15223   0.23543   0.00000  Uiso   1.00
N158   N     0.85507   0.18110   0.26458   0.00000  Uiso   1.00
O159   O     0.96435   0.24629   0.25358   0.00000  Uiso   1.00
O160   O     0.72408   0.23704   0.24424   0.00000  Uiso   1.00
O161   O     0.98157   0.17358   0.33380   0.00000  Uiso   1.00
O162   O     0.74130   0.16433   0.32446   0.00000  Uiso   1.00
O163   O     0.94258   0.09629   0.25577   0.00000  Uiso   1.00
O164   O     0.70231   0.08704   0.24643   0.00000  Uiso   1.00
O165   O     0.92537   0.16901   0.17554   0.00000  Uiso   1.00
O166   O     0.68510   0.15976   0.16620   0.00000  Uiso   1.00
Zn167  Zn    0.93786   0.17284   0.25624   0.00000  Uiso   1.00
Zn168  Zn    0.72881   0.16049   0.24377   0.00000  Uiso   1.00
C169   C     0.01661   0.59828   0.25607   0.00000  Uiso   1.00
C170   C     0.05370   0.50106   0.41512   0.00000  Uiso   1.00
C171   C     0.02931   0.65323   0.27294   0.00000  Uiso   1.00
C172   C     0.03590   0.50349   0.35498   0.00000  Uiso   1.00
C173   C     0.31818   0.35061   0.27597   0.00000  Uiso   1.00
C174   C     0.32111   0.40280   0.25841   0.00000  Uiso   1.00
C175   C     0.29754   0.49737   0.14524   0.00000  Uiso   1.00
C176   C     0.28611   0.56376   0.01441   0.00000  Uiso   1.00
C177   C     0.27993   0.50607   0.08692   0.00000  Uiso   1.00
C178   C     0.01892   0.47008   0.44238   0.00000  Uiso   1.00
C179   C     0.04091   0.45642   0.49613   0.00000  Uiso   1.00
C180   C     0.13450   0.50196   0.49421   0.00000  Uiso   1.00
C181   C     0.09834   0.47142   0.02180   0.00000  Uiso   1.00
C182   C     0.26291   0.66615   0.29443   0.00000  Uiso   1.00
C183   C     0.15596   0.43608   0.20964   0.00000  Uiso   1.00
C184   C     0.22930   0.61819   0.41902   0.00000  Uiso   1.00
C185   C     0.09285   0.33961   0.28567   0.00000  Uiso   1.00
C186   C     0.10958   0.52117   0.44292   0.00000  Uiso   1.00
C187   C     0.19452   0.51379   0.01557   0.00000  Uiso   1.00
C188   C     0.22672   0.55111   0.49080   0.00000  Uiso   1.00
C189   C     0.19858   0.57556   0.44400   0.00000  Uiso   1.00
C190   C     0.14084   0.55963   0.41993   0.00000  Uiso   1.00
C191   C     0.22348   0.48924   0.06116   0.00000  Uiso   1.00
C192   C     0.31215   0.54214   0.06300   0.00000  Uiso   1.00
H193   H     0.02286   0.55582   0.08355   0.00000  Uiso   1.00
H194   H     0.22755   0.65419   0.25737   0.00000  Uiso   1.00
H195   H     0.27036   0.63383   0.32211   0.00000  Uiso   1.00
H196   H     0.17333   0.41006   0.24240   0.00000  Uiso   1.00
H197   H     0.11433   0.41698   0.18494   0.00000  Uiso   1.00
H198   H     0.18456   0.44087   0.17976   0.00000  Uiso   1.00
H199   H     0.20055   0.63298   0.38253   0.00000  Uiso   1.00
H200   H     0.24425   0.65184   0.45083   0.00000  Uiso   1.00
H201   H     0.26722   0.60245   0.40509   0.00000  Uiso   1.00
H202   H     0.10802   0.34157   0.24582   0.00000  Uiso   1.00
H203   H     0.10149   0.37776   0.31138   0.00000  Uiso   1.00
H204   H     0.17677   0.54622   0.28672   0.00000  Uiso   1.00
H205   H     0.11884   0.64501   0.31104   0.00000  Uiso   1.00
H206   H     0.31227   0.59196   0.49731   0.00000  Uiso   1.00
H207   H     0.20226   0.45883   0.07998   0.00000  Uiso   1.00
H208   H     0.30894   0.45473   0.42127   0.00000  Uiso   1.00
H209   H     0.11264   0.45956   0.06360   0.00000  Uiso   1.00
H210   H     0.01393   0.43274   0.01736   0.00000  Uiso   1.00
H211   H     0.11982   0.57823   0.38344   0.00000  Uiso   1.00
H212   H     0.24874   0.36498   0.32011   0.00000  Uiso   1.00
N213   N     0.14493   0.48556   0.23543   0.00000  Uiso   1.00
N214   N     0.18840   0.51444   0.26458   0.00000  Uiso   1.00
O215   O     0.29769   0.57963   0.25358   0.00000  Uiso   1.00
O216   O     0.05742   0.57038   0.24424   0.00000  Uiso   1.00
O217   O     0.31490   0.50691   0.33380   0.00000  Uiso   1.00
O218   O     0.07463   0.49766   0.32446   0.00000  Uiso   1.00
O219   O     0.27592   0.42962   0.25577   0.00000  Uiso   1.00
O220   O     0.03565   0.42037   0.24643   0.00000  Uiso   1.00
O221   O     0.25870   0.50234   0.17554   0.00000  Uiso   1.00
O222   O     0.01843   0.49309   0.16620   0.00000  Uiso   1.00
Zn223  Zn    0.27119   0.50618   0.25624   0.00000  Uiso   1.00
Zn224  Zn    0.06214   0.49382   0.24377   0.00000  Uiso   1.00
C225   C     0.34994   0.59828   0.25607   0.00000  Uiso   1.00
C226   C     0.38704   0.50106   0.41512   0.00000  Uiso   1.00
C227   C     0.36264   0.65323   0.27294   0.00000  Uiso   1.00
C228   C     0.36924   0.50349   0.35498   0.00000  Uiso   1.00
C229   C     0.65152   0.35061   0.27597   0.00000  Uiso   1.00
C230   C     0.65445   0.40280   0.25841   0.00000  Uiso   1.00
C231   C     0.63087   0.49737   0.14524   0.00000  Uiso   1.00
C232   C     0.61945   0.56376   0.01441   0.00000  Uiso   1.00
C233   C     0.61326   0.50607   0.08692   0.00000  Uiso   1.00
C234   C     0.35225   0.47008   0.44238   0.00000  Uiso   1.00
C235   C     0.37424   0.45642   0.49613   0.00000  Uiso   1.00
C236   C     0.46783   0.50196   0.49421   0.00000  Uiso   1.00
C237   C     0.43167   0.47142   0.02180   0.00000  Uiso   1.00
C238   C     0.59624   0.66615   0.29443   0.00000  Uiso   1.00
C239   C     0.48929   0.43608   0.20964   0.00000  Uiso   1.00
C240   C     0.56263   0.61819   0.41902   0.00000  Uiso   1.00
C241   C     0.42618   0.33961   0.28567   0.00000  Uiso   1.00
C242   C     0.44292   0.52117   0.44292   0.00000  Uiso   1.00
C243   C     0.52786   0.51379   0.01557   0.00000  Uiso   1.00
C244   C     0.56006   0.55111   0.49080   0.00000  Uiso   1.00
C245   C     0.53191   0.57556   0.44400   0.00000  Uiso   1.00
C246   C     0.47417   0.55963   0.41993   0.00000  Uiso   1.00
C247   C     0.55681   0.48924   0.06116   0.00000  Uiso   1.00
C248   C     0.64549   0.54214   0.06300   0.00000  Uiso   1.00
H249   H     0.35619   0.55582   0.08355   0.00000  Uiso   1.00
H250   H     0.56088   0.65419   0.25737   0.00000  Uiso   1.00
H251   H     0.60370   0.63383   0.32211   0.00000  Uiso   1.00
H252   H     0.50667   0.41006   0.24240   0.00000  Uiso   1.00
H253   H     0.44766   0.41698   0.18494   0.00000  Uiso   1.00
H254   H     0.51790   0.44087   0.17976   0.00000  Uiso   1.00
H255   H     0.53388   0.63298   0.38253   0.00000  Uiso   1.00
H256   H     0.57758   0.65184   0.45083   0.00000  Uiso   1.00
H257   H     0.60055   0.60245   0.40509   0.00000  Uiso   1.00
H258   H     0.44136   0.34157   0.24582   0.00000  Uiso   1.00
H259   H     0.43482   0.37776   0.31138   0.00000  Uiso   1.00
H260   H     0.51011   0.54622   0.28672   0.00000  Uiso   1.00
H261   H     0.45217   0.64501   0.31104   0.00000  Uiso   1.00
H262   H     0.64561   0.59196   0.49731   0.00000  Uiso   1.00
H263   H     0.53559   0.45883   0.07998   0.00000  Uiso   1.00
H264   H     0.64227   0.45473   0.42127   0.00000  Uiso   1.00
H265   H     0.44597   0.45956   0.06360   0.00000  Uiso   1.00
H266   H     0.34726   0.43274   0.01736   0.00000  Uiso   1.00
H267   H     0.45315   0.57823   0.38344   0.00000  Uiso   1.00
H268   H     0.58207   0.36498   0.32011   0.00000  Uiso   1.00
N269   N     0.47827   0.48556   0.23543   0.00000  Uiso   1.00
N270   N     0.52173   0.51444   0.26458   0.00000  Uiso   1.00
O271   O     0.63102   0.57963   0.25358   0.00000  Uiso   1.00
O272   O     0.39075   0.57038   0.24424   0.00000  Uiso   1.00
O273   O     0.64823   0.50691   0.33380   0.00000  Uiso   1.00
O274   O     0.40796   0.49766   0.32446   0.00000  Uiso   1.00
O275   O     0.60925   0.42962   0.25577   0.00000  Uiso   1.00
O276   O     0.36898   0.42037   0.24643   0.00000  Uiso   1.00
O277   O     0.59204   0.50234   0.17554   0.00000  Uiso   1.00
O278   O     0.35177   0.49309   0.16620   0.00000  Uiso   1.00
Zn279  Zn    0.60453   0.50618   0.25624   0.00000  Uiso   1.00
Zn280  Zn    0.39547   0.49382   0.24377   0.00000  Uiso   1.00
C281   C     0.68327   0.59828   0.25607   0.00000  Uiso   1.00
C282   C     0.72037   0.50106   0.41512   0.00000  Uiso   1.00
C283   C     0.69597   0.65323   0.27294   0.00000  Uiso   1.00
C284   C     0.70257   0.50349   0.35498   0.00000  Uiso   1.00
C285   C     0.98485   0.35061   0.27597   0.00000  Uiso   1.00
C286   C     0.98778   0.40280   0.25841   0.00000  Uiso   1.00
C287   C     0.96421   0.49737   0.14524   0.00000  Uiso   1.00
C288   C     0.95278   0.56376   0.01441   0.00000  Uiso   1.00
C289   C     0.94659   0.50607   0.08692   0.00000  Uiso   1.00
C290   C     0.68559   0.47008   0.44238   0.00000  Uiso   1.00
C291   C     0.70758   0.45642   0.49613   0.00000  Uiso   1.00
C292   C     0.80117   0.50196   0.49421   0.00000  Uiso   1.00
C293   C     0.76501   0.47142   0.02180   0.00000  Uiso   1.00
C294   C     0.92958   0.66615   0.29443   0.00000  Uiso   1.00
C295   C     0.82262   0.43608   0.20964   0.00000  Uiso   1.00
C296   C     0.89596   0.61819   0.41902   0.00000  Uiso   1.00
C297   C     0.75952   0.33961   0.28567   0.00000  Uiso   1.00
C298   C     0.77625   0.52117   0.44292   0.00000  Uiso   1.00
C299   C     0.86119   0.51379   0.01557   0.00000  Uiso   1.00
C300   C     0.89339   0.55111   0.49080   0.00000  Uiso   1.00
C301   C     0.86524   0.57556   0.44400   0.00000  Uiso   1.00
C302   C     0.80751   0.55963   0.41993   0.00000  Uiso   1.00
C303   C     0.89015   0.48924   0.06116   0.00000  Uiso   1.00
C304   C     0.97882   0.54214   0.06300   0.00000  Uiso   1.00
H305   H     0.68953   0.55582   0.08355   0.00000  Uiso   1.00
H306   H     0.89422   0.65419   0.25737   0.00000  Uiso   1.00
H307   H     0.93703   0.63383   0.32211   0.00000  Uiso   1.00
H308   H     0.84000   0.41006   0.24240   0.00000  Uiso   1.00
H309   H     0.78100   0.41698   0.18494   0.00000  Uiso   1.00
H310   H     0.85123   0.44087   0.17976   0.00000  Uiso   1.00
H311   H     0.86721   0.63298   0.38253   0.00000  Uiso   1.00
H312   H     0.91092   0.65184   0.45083   0.00000  Uiso   1.00
H313   H     0.93389   0.60245   0.40509   0.00000  Uiso   1.00
H314   H     0.77469   0.34157   0.24582   0.00000  Uiso   1.00
H315   H     0.76815   0.37776   0.31138   0.00000  Uiso   1.00
H316   H     0.84344   0.54622   0.28672   0.00000  Uiso   1.00
H317   H     0.78551   0.64501   0.31104   0.00000  Uiso   1.00
H318   H     0.97894   0.59196   0.49731   0.00000  Uiso   1.00
H319   H     0.86892   0.45883   0.07998   0.00000  Uiso   1.00
H320   H     0.97561   0.45473   0.42127   0.00000  Uiso   1.00
H321   H     0.77930   0.45956   0.06360   0.00000  Uiso   1.00
H322   H     0.68059   0.43274   0.01736   0.00000  Uiso   1.00
H323   H     0.78648   0.57823   0.38344   0.00000  Uiso   1.00
H324   H     0.91540   0.36498   0.32011   0.00000  Uiso   1.00
N325   N     0.81160   0.48556   0.23543   0.00000  Uiso   1.00
N326   N     0.85507   0.51444   0.26458   0.00000  Uiso   1.00
O327   O     0.96435   0.57963   0.25358   0.00000  Uiso   1.00
O328   O     0.72408   0.57038   0.24424   0.00000  Uiso   1.00
O329   O     0.98157   0.50691   0.33380   0.00000  Uiso   1.00
O330   O     0.74130   0.49766   0.32446   0.00000  Uiso   1.00
O331   O     0.94258   0.42962   0.25577   0.00000  Uiso   1.00
O332   O     0.70231   0.42037   0.24643   0.00000  Uiso   1.00
O333   O     0.92537   0.50234   0.17554   0.00000  Uiso   1.00
O334   O     0.68510   0.49309   0.16620   0.00000  Uiso   1.00
Zn335  Zn    0.93786   0.50618   0.25624   0.00000  Uiso   1.00
Zn336  Zn    0.72881   0.49382   0.24377   0.00000  Uiso   1.00
C337   C     0.01661   0.93161   0.25607   0.00000  Uiso   1.00
C338   C     0.05370   0.83439   0.41512   0.00000  Uiso   1.00
C339   C     0.02931   0.98656   0.27294   0.00000  Uiso   1.00
C340   C     0.03590   0.83682   0.35498   0.00000  Uiso   1.00
C341   C     0.31818   0.68394   0.27597   0.00000  Uiso   1.00
C342   C     0.32111   0.73614   0.25841   0.00000  Uiso   1.00
C343   C     0.29754   0.83071   0.14524   0.00000  Uiso   1.00
C344   C     0.28611   0.89709   0.01441   0.00000  Uiso   1.00
C345   C     0.27993   0.83941   0.08692   0.00000  Uiso   1.00
C346   C     0.01892   0.80342   0.44238   0.00000  Uiso   1.00
C347   C     0.04091   0.78975   0.49613   0.00000  Uiso   1.00
C348   C     0.13450   0.83530   0.49421   0.00000  Uiso   1.00
C349   C     0.09834   0.80475   0.02180   0.00000  Uiso   1.00
C350   C     0.26291   0.99948   0.29443   0.00000  Uiso   1.00
C351   C     0.15596   0.76941   0.20964   0.00000  Uiso   1.00
C352   C     0.22930   0.95152   0.41902   0.00000  Uiso   1.00
C353   C     0.09285   0.67294   0.28567   0.00000  Uiso   1.00
C354   C     0.10958   0.85450   0.44292   0.00000  Uiso   1.00
C355   C     0.19452   0.84713   0.01557   0.00000  Uiso   1.00
C356   C     0.22672   0.88444   0.49080   0.00000  Uiso   1.00
C357   C     0.19858   0.90889   0.44400   0.00000  Uiso   1.00
C358   C     0.14084   0.89296   0.41993   0.00000  Uiso   1.00
C359   C     0.22348   0.82257   0.06116   0.00000  Uiso   1.00
C360   C     0.31215   0.87548   0.06300   0.00000  Uiso   1.00
H361   H     0.02286   0.88915   0.08355   0.00000  Uiso   1.00
H362   H     0.22755   0.98752   0.25737   0.00000  Uiso   1.00
H363   H     0.27036   0.96716   0.32211   0.00000  Uiso   1.00
H364   H     0.17333   0.74340   0.24240   0.00000  Uiso   1.00
H365   H     0.11433   0.75031   0.18494   0.00000  Uiso   1.00
H366   H     0.18456   0.77421   0.17976   0.00000  Uiso   1.00
H367   H     0.20055   0.96631   0.38253   0.00000  Uiso   1.00
H368   H     0.24425   0.98517   0.45083   0.00000  Uiso   1.00
H369   H     0.26722   0.93578   0.40509   0.00000  Uiso   1.00
H370   H     0.10802   0.67490   0.24582   0.00000  Uiso   1.00
H371   H     0.10149   0.71109   0.31138   0.00000  Uiso   1.00
H372   H     0.17677   0.87956   0.28672   0.00000  Uiso   1.00
H373   H     0.11884   0.97834   0.31104   0.00000  Uiso   1.00
H374   H     0.31227   0.92530   0.49731   0.00000  Uiso   1.00
H375   H     0.20226   0.79216   0.07998   0.00000  Uiso   1.00
H376   H     0.30894   0.78807   0.42127   0.00000  Uiso   1.00
H377   H     0.11264   0.79290   0.06360   0.00000  Uiso   1.00
H378   H     0.01393   0.76607   0.01736   0.00000  Uiso   1.00
H379   H     0.11982   0.91156   0.38344   0.00000  Uiso   1.00
H380   H     0.24874   0.69831   0.32011   0.00000  Uiso   1.00
N381   N     0.14493   0.81890   0.23543   0.00000  Uiso   1.00
N382   N     0.18840   0.84777   0.26458   0.00000  Uiso   1.00
O383   O     0.29769   0.91296   0.25358   0.00000  Uiso   1.00
O384   O     0.05742   0.90371   0.24424   0.00000  Uiso   1.00
O385   O     0.31490   0.84024   0.33380   0.00000  Uiso   1.00
O386   O     0.07463   0.83099   0.32446   0.00000  Uiso   1.00
O387   O     0.27592   0.76296   0.25577   0.00000  Uiso   1.00
O388   O     0.03565   0.75371   0.24643   0.00000  Uiso   1.00
O389   O     0.25870   0.83567   0.17554   0.00000  Uiso   1.00
O390   O     0.01843   0.82642   0.16620   0.00000  Uiso   1.00
Zn391  Zn    0.27119   0.83951   0.25624   0.00000  Uiso   1.00
Zn392  Zn    0.06214   0.82716   0.24377   0.00000  Uiso   1.00
C393   C     0.34994   0.93161   0.25607   0.00000  Uiso   1.00
C394   C     0.38704   0.83439   0.41512   0.00000  Uiso   1.00
C395   C     0.36264   0.98656   0.27294   0.00000  Uiso   1.00
C396   C     0.36924   0.83682   0.35498   0.00000  Uiso   1.00
C397   C     0.65152   0.68394   0.27597   0.00000  Uiso   1.00
C398   C     0.65445   0.73614   0.25841   0.00000  Uiso   1.00
C399   C     0.63087   0.83071   0.14524   0.00000  Uiso   1.00
C400   C     0.61945   0.89709   0.01441   0.00000  Uiso   1.00
C401   C     0.61326   0.83941   0.08692   0.00000  Uiso   1.00
C402   C     0.35225   0.80342   0.44238   0.00000  Uiso   1.00
C403   C     0.37424   0.78975   0.49613   0.00000  Uiso   1.00
C404   C     0.46783   0.83530   0.49421   0.00000  Uiso   1.00
C405   C     0.43167   0.80475   0.02180   0.00000  Uiso   1.00
C406   C     0.59624   0.99948   0.29443   0.00000  Uiso   1.00
C407   C     0.48929   0.76941   0.20964   0.00000  Uiso   1.00
C408   C     0.56263   0.95152   0.41902   0.00000  Uiso   1.00
C409   C     0.42618   0.67294   0.28567   0.00000  Uiso   1.00
C410   C     0.44292   0.85450   0.44292   0.00000  Uiso   1.00
C411   C     0.52786   0.84713   0.01557   0.00000  Uiso   1.00
C412   C     0.56006   0.88444   0.49080   0.00000  Uiso   1.00
C413   C     0.53191   0.90889   0.44400   0.00000  Uiso   1.00
C414   C     0.47417   0.89296   0.41993   0.00000  Uiso   1.00
C415   C     0.55681   0.82257   0.06116   0.00000  Uiso   1.00
C416   C     0.64549   0.87548   0.06300   0.00000  Uiso   1.00
H417   H     0.35619   0.88915   0.08355   0.00000  Uiso   1.00
H418   H     0.56088   0.98752   0.25737   0.00000  Uiso   1.00
H419   H     0.60370   0.96716   0.32211   0.00000  Uiso   1.00
H420   H     0.50667   0.74340   0.24240   0.00000  Uiso   1.00
H421   H     0.44766   0.75031   0.18494   0.00000  Uiso   1.00
H422   H     0.51790   0.77421   0.17976   0.00000  Uiso   1.00
H423   H     0.53388   0.96631   0.38253   0.00000  Uiso   1.00
H424   H     0.57758   0.98517   0.45083   0.00000  Uiso   1.00
H425   H     0.60055   0.93578   0.40509   0.00000  Uiso   1.00
H426   H     0.44136   0.67490   0.24582   0.00000  Uiso   1.00
H427   H     0.43482   0.71109   0.31138   0.00000  Uiso   1.00
H428   H     0.51011   0.87956   0.28672   0.00000  Uiso   1.00
H429   H     0.45217   0.97834   0.31104   0.00000  Uiso   1.00
H430   H     0.64561   0.92530   0.49731   0.00000  Uiso   1.00
H431   H     0.53559   0.79216   0.07998   0.00000  Uiso   1.00
H432   H     0.64227   0.78807   0.42127   0.00000  Uiso   1.00
H433   H     0.44597   0.79290   0.06360   0.00000  Uiso   1.00
H434   H     0.34726   0.76607   0.01736   0.00000  Uiso   1.00
H435   H     0.45315   0.91156   0.38344   0.00000  Uiso   1.00
H436   H     0.58207   0.69831   0.32011   0.00000  Uiso   1.00
N437   N     0.47827   0.81890   0.23543   0.00000  Uiso   1.00
N438   N     0.52173   0.84777   0.26458   0.00000  Uiso   1.00
O439   O     0.63102   0.91296   0.25358   0.00000  Uiso   1.00
O440   O     0.39075   0.90371   0.24424   0.00000  Uiso   1.00
O441   O     0.64823   0.84024   0.33380   0.00000  Uiso   1.00
O442   O     0.40796   0.83099   0.32446   0.00000  Uiso   1.00
O443   O     0.60925   0.76296   0.25577   0.00000  Uiso   1.00
O444   O     0.36898   0.75371   0.24643   0.00000  Uiso   1.00
O445   O     0.59204   0.83567   0.17554   0.00000  Uiso   1.00
O446   O     0.35177   0.82642   0.16620   0.00000  Uiso   1.00
Zn447  Zn    0.60453   0.83951   0.25624   0.00000  Uiso   1.00
Zn448  Zn    0.39547   0.82716   0.24377   0.00000  Uiso   1.00
C449   C     0.68327   0.93161   0.25607   0.00000  Uiso   1.00
C450   C     0.72037   0.83439   0.41512   0.00000  Uiso   1.00
C451   C     0.69597   0.98656   0.27294   0.00000  Uiso   1.00
C452   C     0.70257   0.83682   0.35498   0.00000  Uiso   1.00
C453   C     0.98485   0.68394   0.27597   0.00000  Uiso   1.00
C454   C     0.98778   0.73614   0.25841   0.00000  Uiso   1.00
C455   C     0.96421   0.83071   0.14524   0.00000  Uiso   1.00
C456   C     0.95278   0.89709   0.01441   0.00000  Uiso   1.00
C457   C     0.94659   0.83941   0.08692   0.00000  Uiso   1.00
C458   C     0.68559   0.80342   0.44238   0.00000  Uiso   1.00
C459   C     0.70758   0.78975   0.49613   0.00000  Uiso   1.00
C460   C     0.80117   0.83530   0.49421   0.00000  Uiso   1.00
C461   C     0.76501   0.80475   0.02180   0.00000  Uiso   1.00
C462   C     0.92958   0.99948   0.29443   0.00000  Uiso   1.00
C463   C     0.82262   0.76941   0.20964   0.00000  Uiso   1.00
C464   C     0.89596   0.95152   0.41902   0.00000  Uiso   1.00
C465   C     0.75952   0.67294   0.28567   0.00000  Uiso   1.00
C466   C     0.77625   0.85450   0.44292   0.00000  Uiso   1.00
C467   C     0.86119   0.84713   0.01557   0.00000  Uiso   1.00
C468   C     0.89339   0.88444   0.49080   0.00000  Uiso   1.00
C469   C     0.86524   0.90889   0.44400   0.00000  Uiso   1.00
C470   C     0.80751   0.89296   0.41993   0.00000  Uiso   1.00
C471   C     0.89015   0.82257   0.06116   0.00000  Uiso   1.00
C472   C     0.97882   0.87548   0.06300   0.00000  Uiso   1.00
H473   H     0.68953   0.88915   0.08355   0.00000  Uiso   1.00
H474   H     0.89422   0.98752   0.25737   0.00000  Uiso   1.00
H475   H     0.93703   0.96716   0.32211   0.00000  Uiso   1.00
H476   H     0.84000   0.74340   0.24240   0.00000  Uiso   1.00
H477   H     0.78100   0.75031   0.18494   0.00000  Uiso   1.00
H478   H     0.85123   0.77421   0.17976   0.00000  Uiso   1.00
H479   H     0.86721   0.96631   0.38253   0.00000  Uiso   1.00
H480   H     0.91092   0.98517   0.45083   0.00000  Uiso   1.00
H481   H     0.93389   0.93578   0.40509   0.00000  Uiso   1.00
H482   H     0.77469   0.67490   0.24582   0.00000  Uiso   1.00
H483   H     0.76815   0.71109   0.31138   0.00000  Uiso   1.00
H484   H     0.84344   0.87956   0.28672   0.00000  Uiso   1.00
H485   H     0.78551   0.97834   0.31104   0.00000  Uiso   1.00
H486   H     0.97894   0.92530   0.49731   0.00000  Uiso   1.00
H487   H     0.86892   0.79216   0.07998   0.00000  Uiso   1.00
H488   H     0.97561   0.78807   0.42127   0.00000  Uiso   1.00
H489   H     0.77930   0.79290   0.06360   0.00000  Uiso   1.00
H490   H     0.68059   0.76607   0.01736   0.00000  Uiso   1.00
H491   H     0.78648   0.91156   0.38344   0.00000  Uiso   1.00
H492   H     0.91540   0.69831   0.32011   0.00000  Uiso   1.00
N493   N     0.81160   0.81890   0.23543   0.00000  Uiso   1.00
N494   N     0.85507   0.84777   0.26458   0.00000  Uiso   1.00
O495   O     0.96435   0.91296   0.25358   0.00000  Uiso   1.00
O496   O     0.72408   0.90371   0.24424   0.00000  Uiso   1.00
O497   O     0.98157   0.84024   0.33380   0.00000  Uiso   1.00
O498   O     0.74130   0.83099   0.32446   0.00000  Uiso   1.00
O499   O     0.94258   0.76296   0.25577   0.00000  Uiso   1.00
O500   O     0.70231   0.75371   0.24643   0.00000  Uiso   1.00
O501   O     0.92537   0.83567   0.17554   0.00000  Uiso   1.00
O502   O     0.68510   0.82642   0.16620   0.00000  Uiso   1.00
Zn503  Zn    0.93786   0.83951   0.25624   0.00000  Uiso   1.00
Zn504  Zn    0.72881   0.82716   0.24377   0.00000  Uiso   1.00
C505   C     0.01661   0.26494   0.75607   0.00000  Uiso   1.00
C506   C     0.05370   0.16773   0.91512   0.00000  Uiso   1.00
C507   C     0.02931   0.31989   0.77294   0.00000  Uiso   1.00
C508   C     0.03590   0.17015   0.85498   0.00000  Uiso   1.00
C509   C     0.31818   0.01727   0.77597   0.00000  Uiso   1.00
C510   C     0.32111   0.06947   0.75841   0.00000  Uiso   1.00
C511   C     0.29754   0.16404   0.64524   0.00000  Uiso   1.00
C512   C     0.28611   0.23042   0.51441   0.00000  Uiso   1.00
C513   C     0.27993   0.17274   0.58692   0.00000  Uiso   1.00
C514   C     0.01892   0.13675   0.94238   0.00000  Uiso   1.00
C515   C     0.04091   0.12309   0.99613   0.00000  Uiso   1.00
C516   C     0.13450   0.16863   0.99421   0.00000  Uiso   1.00
C517   C     0.09834   0.13809   0.52180   0.00000  Uiso   1.00
C518   C     0.26291   0.33282   0.79443   0.00000  Uiso   1.00
C519   C     0.15596   0.10274   0.70964   0.00000  Uiso   1.00
C520   C     0.22930   0.28485   0.91902   0.00000  Uiso   1.00
C521   C     0.09285   0.00628   0.78567   0.00000  Uiso   1.00
C522   C     0.10958   0.18783   0.94292   0.00000  Uiso   1.00
C523   C     0.19452   0.18046   0.51557   0.00000  Uiso   1.00
C524   C     0.22672   0.21778   0.99080   0.00000  Uiso   1.00
C525   C     0.19858   0.24222   0.94400   0.00000  Uiso   1.00
C526   C     0.14084   0.22629   0.91993   0.00000  Uiso   1.00
C527   C     0.22348   0.15591   0.56116   0.00000  Uiso   1.00
C528   C     0.31215   0.20881   0.56300   0.00000  Uiso   1.00
H529   H     0.02286   0.22249   0.58355   0.00000  Uiso   1.00
H530   H     0.22755   0.32085   0.75737   0.00000  Uiso   1.00
H531   H     0.27036   0.30049   0.82211   0.00000  Uiso   1.00
H532   H     0.17333   0.07673   0.74240   0.00000  Uiso   1.00
H533   H     0.11433   0.08365   0.68494   0.00000  Uiso   1.00
H534   H     0.18456   0.10754   0.67976   0.00000  Uiso   1.00
H535   H     0.20055   0.29965   0.88253   0.00000  Uiso   1.00
H536   H     0.24425   0.31850   0.95083   0.00000  Uiso   1.00
H537   H     0.26722   0.26911   0.90509   0.00000  Uiso   1.00
H538   H     0.10802   0.00824   0.74582   0.00000  Uiso   1.00
H539   H     0.10149   0.04443   0.81138   0.00000  Uiso   1.00
H540   H     0.17677   0.21289   0.78672   0.00000  Uiso   1.00
H541   H     0.11884   0.31168   0.81104   0.00000  Uiso   1.00
H542   H     0.31227   0.25863   0.99731   0.00000  Uiso   1.00
H543   H     0.20226   0.12549   0.57998   0.00000  Uiso   1.00
H544   H     0.30894   0.12140   0.92127   0.00000  Uiso   1.00
H545   H     0.11264   0.12623   0.56360   0.00000  Uiso   1.00
H546   H     0.01393   0.09941   0.51736   0.00000  Uiso   1.00
H547   H     0.11982   0.24490   0.88344   0.00000  Uiso   1.00
H548   H     0.24874   0.03165   0.82011   0.00000  Uiso   1.00
N549   N     0.14493   0.15223   0.73543   0.00000  Uiso   1.00
N550   N     0.18840   0.18110   0.76458   0.00000  Uiso   1.00
O551   O     0.29769   0.24629   0.75358   0.00000  Uiso   1.00
O552   O     0.05742   0.23704   0.74424   0.00000  Uiso   1.00
O553   O     0.31490   0.17358   0.83380   0.00000  Uiso   1.00
O554   O     0.07463   0.16433   0.82446   0.00000  Uiso   1.00
O555   O     0.27592   0.09629   0.75577   0.00000  Uiso   1.00
O556   O     0.03565   0.08704   0.74643   0.00000  Uiso   1.00
O557   O     0.25870   0.16901   0.67554   0.00000  Uiso   1.00
O558   O     0.01843   0.15976   0.66620   0.00000  Uiso   1.00
Zn559  Zn    0.27119   0.17284   0.75624   0.00000  Uiso   1.00
Zn560  Zn    0.06214   0.16049   0.74377   0.00000  Uiso   1.00
C561   C     0.34994   0.26494   0.75607   0.00000  Uiso   1.00
C562   C     0.38704   0.16773   0.91512   0.00000  Uiso   1.00
C563   C     0.36264   0.31989   0.77294   0.00000  Uiso   1.00
C564   C     0.36924   0.17015   0.85498   0.00000  Uiso   1.00
C565   C     0.65152   0.01727   0.77597   0.00000  Uiso   1.00
C566   C     0.65445   0.06947   0.75841   0.00000  Uiso   1.00
C567   C     0.63087   0.16404   0.64524   0.00000  Uiso   1.00
C568   C     0.61945   0.23042   0.51441   0.00000  Uiso   1.00
C569   C     0.61326   0.17274   0.58692   0.00000  Uiso   1.00
C570   C     0.35225   0.13675   0.94238   0.00000  Uiso   1.00
C571   C     0.37424   0.12309   0.99613   0.00000  Uiso   1.00
C572   C     0.46783   0.16863   0.99421   0.00000  Uiso   1.00
C573   C     0.43167   0.13809   0.52180   0.00000  Uiso   1.00
C574   C     0.59624   0.33282   0.79443   0.00000  Uiso   1.00
C575   C     0.48929   0.10274   0.70964   0.00000  Uiso   1.00
C576   C     0.56263   0.28485   0.91902   0.00000  Uiso   1.00
C577   C     0.42618   0.00628   0.78567   0.00000  Uiso   1.00
C578   C     0.44292   0.18783   0.94292   0.00000  Uiso   1.00
C579   C     0.52786   0.18046   0.51557   0.00000  Uiso   1.00
C580   C     0.56006   0.21778   0.99080   0.00000  Uiso   1.00
C581   C     0.53191   0.24222   0.94400   0.00000  Uiso   1.00
C582   C     0.47417   0.22629   0.91993   0.00000  Uiso   1.00
C583   C     0.55681   0.15591   0.56116   0.00000  Uiso   1.00
C584   C     0.64549   0.20881   0.56300   0.00000  Uiso   1.00
H585   H     0.35619   0.22249   0.58355   0.00000  Uiso   1.00
H586   H     0.56088   0.32085   0.75737   0.00000  Uiso   1.00
H587   H     0.60370   0.30049   0.82211   0.00000  Uiso   1.00
H588   H     0.50667   0.07673   0.74240   0.00000  Uiso   1.00
H589   H     0.44766   0.08365   0.68494   0.00000  Uiso   1.00
H590   H     0.51790   0.10754   0.67976   0.00000  Uiso   1.00
H591   H     0.53388   0.29965   0.88253   0.00000  Uiso   1.00
H592   H     0.57758   0.31850   0.95083   0.00000  Uiso   1.00
H593   H     0.60055   0.26911   0.90509   0.00000  Uiso   1.00
H594   H     0.44136   0.00824   0.74582   0.00000  Uiso   1.00
H595   H     0.43482   0.04443   0.81138   0.00000  Uiso   1.00
H596   H     0.51011   0.21289   0.78672   0.00000  Uiso   1.00
H597   H     0.45217   0.31168   0.81104   0.00000  Uiso   1.00
H598   H     0.64561   0.25863   0.99731   0.00000  Uiso   1.00
H599   H     0.53559   0.12549   0.57998   0.00000  Uiso   1.00
H600   H     0.64227   0.12140   0.92127   0.00000  Uiso   1.00
H601   H     0.44597   0.12623   0.56360   0.00000  Uiso   1.00
H602   H     0.34726   0.09941   0.51736   0.00000  Uiso   1.00
H603   H     0.45315   0.24490   0.88344   0.00000  Uiso   1.00
H604   H     0.58207   0.03165   0.82011   0.00000  Uiso   1.00
N605   N     0.47827   0.15223   0.73543   0.00000  Uiso   1.00
N606   N     0.52173   0.18110   0.76458   0.00000  Uiso   1.00
O607   O     0.63102   0.24629   0.75358   0.00000  Uiso   1.00
O608   O     0.39075   0.23704   0.74424   0.00000  Uiso   1.00
O609   O     0.64823   0.17358   0.83380   0.00000  Uiso   1.00
O610   O     0.40796   0.16433   0.82446   0.00000  Uiso   1.00
O611   O     0.60925   0.09629   0.75577   0.00000  Uiso   1.00
O612   O     0.36898   0.08704   0.74643   0.00000  Uiso   1.00
O613   O     0.59204   0.16901   0.67554   0.00000  Uiso   1.00
O614   O     0.35177   0.15976   0.66620   0.00000  Uiso   1.00
Zn615  Zn    0.60453   0.17284   0.75624   0.00000  Uiso   1.00
Zn616  Zn    0.39547   0.16049   0.74377   0.00000  Uiso   1.00
C617   C     0.68327   0.26494   0.75607   0.00000  Uiso   1.00
C618   C     0.72037   0.16773   0.91512   0.00000  Uiso   1.00
C619   C     0.69597   0.31989   0.77294   0.00000  Uiso   1.00
C620   C     0.70257   0.17015   0.85498   0.00000  Uiso   1.00
C621   C     0.98485   0.01727   0.77597   0.00000  Uiso   1.00
C622   C     0.98778   0.06947   0.75841   0.00000  Uiso   1.00
C623   C     0.96421   0.16404   0.64524   0.00000  Uiso   1.00
C624   C     0.95278   0.23042   0.51441   0.00000  Uiso   1.00
C625   C     0.94659   0.17274   0.58692   0.00000  Uiso   1.00
C626   C     0.68559   0.13675   0.94238   0.00000  Uiso   1.00
C627   C     0.70758   0.12309   0.99613   0.00000  Uiso   1.00
C628   C     0.80117   0.16863   0.99421   0.00000  Uiso   1.00
C629   C     0.76501   0.13809   0.52180   0.00000  Uiso   1.00
C630   C     0.92958   0.33282   0.79443   0.00000  Uiso   1.00
C631   C     0.82262   0.10274   0.70964   0.00000  Uiso   1.00
C632   C     0.89596   0.28485   0.91902   0.00000  Uiso   1.00
C633   C     0.75952   0.00628   0.78567   0.00000  Uiso   1.00
C634   C     0.77625   0.18783   0.94292   0.00000  Uiso   1.00
C635   C     0.86119   0.18046   0.51557   0.00000  Uiso   1.00
C636   C     0.89339   0.21778   0.99080   0.00000  Uiso   1.00
C637   C     0.86524   0.24222   0.94400   0.00000  Uiso   1.00
C638   C     0.80751   0.22629   0.91993   0.00000  Uiso   1.00
C639   C     0.89015   0.15591   0.56116   0.00000  Uiso   1.00
C640   C     0.97882   0.20881   0.56300   0.00000  Uiso   1.00
H641   H     0.68953   0.22249   0.58355   0.00000  Uiso   1.00
H642   H     0.89422   0.32085   0.75737   0.00000  Uiso   1.00
H643   H     0.93703   0.30049   0.82211   0.00000  Uiso   1.00
H644   H     0.84000   0.07673   0.74240   0.00000  Uiso   1.00
H645   H     0.78100   0.08365   0.68494   0.00000  Uiso   1.00
H646   H     0.85123   0.10754   0.67976   0.00000  Uiso   1.00
H647   H     0.86721   0.29965   0.88253   0.00000  Uiso   1.00
H648   H     0.91092   0.31850   0.95083   0.00000  Uiso   1.00
H649   H     0.93389   0.26911   0.90509   0.00000  Uiso   1.00
H650   H     0.77469   0.00824   0.74582   0.00000  Uiso   1.00
H651   H     0.76815   0.04443   0.81138   0.00000  Uiso   1.00
H652   H     0.84344   0.21289   0.78672   0.00000  Uiso   1.00
H653   H     0.78551   0.31168   0.81104   0.00000  Uiso   1.00
H654   H     0.97894   0.25863   0.99731   0.00000  Uiso   1.00
H655   H     0.86892   0.12549   0.57998   0.00000  Uiso   1.00
H656   H     0.97561   0.12140   0.92127   0.00000  Uiso   1.00
H657   H     0.77930   0.12623   0.56360   0.00000  Uiso   1.00
H658   H     0.68059   0.09941   0.51736   0.00000  Uiso   1.00
H659   H     0.78648   0.24490   0.88344   0.00000  Uiso   1.00
H660   H     0.91540   0.03165   0.82011   0.00000  Uiso   1.00
N661   N     0.81160   0.15223   0.73543   0.00000  Uiso   1.00
N662   N     0.85507   0.18110   0.76458   0.00000  Uiso   1.00
O663   O     0.96435   0.24629   0.75358   0.00000  Uiso   1.00
O664   O     0.72408   0.23704   0.74424   0.00000  Uiso   1.00
O665   O     0.98157   0.17358   0.83380   0.00000  Uiso   1.00
O666   O     0.74130   0.16433   0.82446   0.00000  Uiso   1.00
O667   O     0.94258   0.09629   0.75577   0.00000  Uiso   1.00
O668   O     0.70231   0.08704   0.74643   0.00000  Uiso   1.00
O669   O     0.92537   0.16901   0.67554   0.00000  Uiso   1.00
O670   O     0.68510   0.15976   0.66620   0.00000  Uiso   1.00
Zn671  Zn    0.93786   0.17284   0.75624   0.00000  Uiso   1.00
Zn672  Zn    0.72881   0.16049   0.74377   0.00000  Uiso   1.00
C673   C     0.01661   0.59828   0.75607   0.00000  Uiso   1.00
C674   C     0.05370   0.50106   0.91512   0.00000  Uiso   1.00
C675   C     0.02931   0.65323   0.77294   0.00000  Uiso   1.00
C676   C     0.03590   0.50349   0.85498   0.00000  Uiso   1.00
C677   C     0.31818   0.35061   0.77597   0.00000  Uiso   1.00
C678   C     0.32111   0.40280   0.75841   0.00000  Uiso   1.00
C679   C     0.29754   0.49737   0.64524   0.00000  Uiso   1.00
C680   C     0.28611   0.56376   0.51441   0.00000  Uiso   1.00
C681   C     0.27993   0.50607   0.58692   0.00000  Uiso   1.00
C682   C     0.01892   0.47008   0.94238   0.00000  Uiso   1.00
C683   C     0.04091   0.45642   0.99613   0.00000  Uiso   1.00
C684   C     0.13450   0.50196   0.99421   0.00000  Uiso   1.00
C685   C     0.09834   0.47142   0.52180   0.00000  Uiso   1.00
C686   C     0.26291   0.66615   0.79443   0.00000  Uiso   1.00
C687   C     0.15596   0.43608   0.70964   0.00000  Uiso   1.00
C688   C     0.22930   0.61819   0.91902   0.00000  Uiso   1.00
C689   C     0.09285   0.33961   0.78567   0.00000  Uiso   1.00
C690   C     0.10958   0.52117   0.94292   0.00000  Uiso   1.00
C691   C     0.19452   0.51379   0.51557   0.00000  Uiso   1.00
C692   C     0.22672   0.55111   0.99080   0.00000  Uiso   1.00
C693   C     0.19858   0.57556   0.94400   0.00000  Uiso   1.00
C694   C     0.14084   0.55963   0.91993   0.00000  Uiso   1.00
C695   C     0.22348   0.48924   0.56116   0.00000  Uiso   1.00
C696   C     0.31215   0.54214   0.56300   0.00000  Uiso   1.00
H697   H     0.02286   0.55582   0.58355   0.00000  Uiso   1.00
H698   H     0.22755   0.65419   0.75737   0.00000  Uiso   1.00
H699   H     0.27036   0.63383   0.82211   0.00000  Uiso   1.00
H700   H     0.17333   0.41006   0.74240   0.00000  Uiso   1.00
H701   H     0.11433   0.41698   0.68494   0.00000  Uiso   1.00
H702   H     0.18456   0.44087   0.67976   0.00000  Uiso   1.00
H703   H     0.20055   0.63298   0.88253   0.00000  Uiso   1.00
H704   H     0.24425   0.65184   0.95083   0.00000  Uiso   1.00
H705   H     0.26722   0.60245   0.90509   0.00000  Uiso   1.00
H706   H     0.10802   0.34157   0.74582   0.00000  Uiso   1.00
H707   H     0.10149   0.37776   0.81138   0.00000  Uiso   1.00
H708   H     0.17677   0.54622   0.78672   0.00000  Uiso   1.00
H709   H     0.11884   0.64501   0.81104   0.00000  Uiso   1.00
H710   H     0.31227   0.59196   0.99731   0.00000  Uiso   1.00
H711   H     0.20226   0.45883   0.57998   0.00000  Uiso   1.00
H712   H     0.30894   0.45473   0.92127   0.00000  Uiso   1.00
H713   H     0.11264   0.45956   0.56360   0.00000  Uiso   1.00
H714   H     0.01393   0.43274   0.51736   0.00000  Uiso   1.00
H715   H     0.11982   0.57823   0.88344   0.00000  Uiso   1.00
H716   H     0.24874   0.36498   0.82011   0.00000  Uiso   1.00
N717   N     0.14493   0.48556   0.73543   0.00000  Uiso   1.00
N718   N     0.18840   0.51444   0.76458   0.00000  Uiso   1.00
O719   O     0.29769   0.57963   0.75358   0.00000  Uiso   1.00
O720   O     0.05742   0.57038   0.74424   0.00000  Uiso   1.00
O721   O     0.31490   0.50691   0.83380   0.00000  Uiso   1.00
O722   O     0.07463   0.49766   0.82446   0.00000  Uiso   1.00
O723   O     0.27592   0.42962   0.75577   0.00000  Uiso   1.00
O724   O     0.03565   0.42037   0.74643   0.00000  Uiso   1.00
O725   O     0.25870   0.50234   0.67554   0.00000  Uiso   1.00
O726   O     0.01843   0.49309   0.66620   0.00000  Uiso   1.00
Zn727  Zn    0.27119   0.50618   0.75624   0.00000  Uiso   1.00
Zn728  Zn    0.06214   0.49382   0.74377   0.00000  Uiso   1.00
C729   C     0.34994   0.59828   0.75607   0.00000  Uiso   1.00
C730   C     0.38704   0.50106   0.91512   0.00000  Uiso   1.00
C731   C     0.36264   0.65323   0.77294   0.00000  Uiso   1.00
C732   C     0.36924   0.50349   0.85498   0.00000  Uiso   1.00
C733   C     0.65152   0.35061   0.77597   0.00000  Uiso   1.00
C734   C     0.65445   0.40280   0.75841   0.00000  Uiso   1.00
C735   C     0.63087   0.49737   0.64524   0.00000  Uiso   1.00
C736   C     0.61945   0.56376   0.51441   0.00000  Uiso   1.00
C737   C     0.61326   0.50607   0.58692   0.00000  Uiso   1.00
C738   C     0.35225   0.47008   0.94238   0.00000  Uiso   1.00
C739   C     0.37424   0.45642   0.99613   0.00000  Uiso   1.00
C740   C     0.46783   0.50196   0.99421   0.00000  Uiso   1.00
C741   C     0.43167   0.47142   0.52180   0.00000  Uiso   1.00
C742   C     0.59624   0.66615   0.79443   0.00000  Uiso   1.00
C743   C     0.48929   0.43608   0.70964   0.00000  Uiso   1.00
C744   C     0.56263   0.61819   0.91902   0.00000  Uiso   1.00
C745   C     0.42618   0.33961   0.78567   0.00000  Uiso   1.00
C746   C     0.44292   0.52117   0.94292   0.00000  Uiso   1.00
C747   C     0.52786   0.51379   0.51557   0.00000  Uiso   1.00
C748   C     0.56006   0.55111   0.99080   0.00000  Uiso   1.00
C749   C     0.53191   0.57556   0.94400   0.00000  Uiso   1.00
C750   C     0.47417   0.55963   0.91993   0.00000  Uiso   1.00
C751   C     0.55681   0.48924   0.56116   0.00000  Uiso   1.00
C752   C     0.64549   0.54214   0.56300   0.00000  Uiso   1.00
H753   H     0.35619   0.55582   0.58355   0.00000  Uiso   1.00
H754   H     0.56088   0.65419   0.75737   0.00000  Uiso   1.00
H755   H     0.60370   0.63383   0.82211   0.00000  Uiso   1.00
H756   H     0.50667   0.41006   0.74240   0.00000  Uiso   1.00
H757   H     0.44766   0.41698   0.68494   0.00000  Uiso   1.00
H758   H     0.51790   0.44087   0.67976   0.00000  Uiso   1.00
H759   H     0.53388   0.63298   0.88253   0.00000  Uiso   1.00
H760   H     0.57758   0.65184   0.95083   0.00000  Uiso   1.00
H761   H     0.60055   0.60245   0.90509   0.00000  Uiso   1.00
H762   H     0.44136   0.34157   0.74582   0.00000  Uiso   1.00
H763   H     0.43482   0.37776   0.81138   0.00000  Uiso   1.00
H764   H     0.51011   0.54622   0.78672   0.00000  Uiso   1.00
H765   H     0.45217   0.64501   0.81104   0.00000  Uiso   1.00
H766   H     0.64561   0.59196   0.99731   0.00000  Uiso   1.00
H767   H     0.53559   0.45883   0.57998   0.00000  Uiso   1.00
H768   H     0.64227   0.45473   0.92127   0.00000  Uiso   1.00
H769   H     0.44597   0.45956   0.56360   0.00000  Uiso   1.00
H770   H     0.34726   0.43274   0.51736   0.00000  Uiso   1.00
H771   H     0.45315   0.57823   0.88344   0.00000  Uiso   1.00
H772   H     0.58207   0.36498   0.82011   0.00000  Uiso   1.00
N773   N     0.47827   0.48556   0.73543   0.00000  Uiso   1.00
N774   N     0.52173   0.51444   0.76458   0.00000  Uiso   1.00
O775   O     0.63102   0.57963   0.75358   0.00000  Uiso   1.00
O776   O     0.39075   0.57038   0.74424   0.00000  Uiso   1.00
O777   O     0.64823   0.50691   0.83380   0.00000  Uiso   1.00
O778   O     0.40796   0.49766   0.82446   0.00000  Uiso   1.00
O779   O     0.60925   0.42962   0.75577   0.00000  Uiso   1.00
O780   O     0.36898   0.42037   0.74643   0.00000  Uiso   1.00
O781   O     0.59204   0.50234   0.67554   0.00000  Uiso   1.00
O782   O     0.35177   0.49309   0.66620   0.00000  Uiso   1.00
Zn783  Zn    0.60453   0.50618   0.75624   0.00000  Uiso   1.00
Zn784  Zn    0.39547   0.49382   0.74377   0.00000  Uiso   1.00
C785   C     0.68327   0.59828   0.75607   0.00000  Uiso   1.00
C786   C     0.72037   0.50106   0.91512   0.00000  Uiso   1.00
C787   C     0.69597   0.65323   0.77294   0.00000  Uiso   1.00
C788   C     0.70257   0.50349   0.85498   0.00000  Uiso   1.00
C789   C     0.98485   0.35061   0.77597   0.00000  Uiso   1.00
C790   C     0.98778   0.40280   0.75841   0.00000  Uiso   1.00
C791   C     0.96421   0.49737   0.64524   0.00000  Uiso   1.00
C792   C     0.95278   0.56376   0.51441   0.00000  Uiso   1.00
C793   C     0.94659   0.50607   0.58692   0.00000  Uiso   1.00
C794   C     0.68559   0.47008   0.94238   0.00000  Uiso   1.00
C795   C     0.70758   0.45642   0.99613   0.00000  Uiso   1.00
C796   C     0.80117   0.50196   0.99421   0.00000  Uiso   1.00
C797   C     0.76501   0.47142   0.52180   0.00000  Uiso   1.00
C798   C     0.92958   0.66615   0.79443   0.00000  Uiso   1.00
C799   C     0.82262   0.43608   0.70964   0.00000  Uiso   1.00
C800   C     0.89596   0.61819   0.91902   0.00000  Uiso   1.00
C801   C     0.75952   0.33961   0.78567   0.00000  Uiso   1.00
C802   C     0.77625   0.52117   0.94292   0.00000  Uiso   1.00
C803   C     0.86119   0.51379   0.51557   0.00000  Uiso   1.00
C804   C     0.89339   0.55111   0.99080   0.00000  Uiso   1.00
C805   C     0.86524   0.57556   0.94400   0.00000  Uiso   1.00
C806   C     0.80751   0.55963   0.91993   0.00000  Uiso   1.00
C807   C     0.89015   0.48924   0.56116   0.00000  Uiso   1.00
C808   C     0.97882   0.54214   0.56300   0.00000  Uiso   1.00
H809   H     0.68953   0.55582   0.58355   0.00000  Uiso   1.00
H810   H     0.89422   0.65419   0.75737   0.00000  Uiso   1.00
H811   H     0.93703   0.63383   0.82211   0.00000  Uiso   1.00
H812   H     0.84000   0.41006   0.74240   0.00000  Uiso   1.00
H813   H     0.78100   0.41698   0.68494   0.00000  Uiso   1.00
H814   H     0.85123   0.44087   0.67976   0.00000  Uiso   1.00
H815   H     0.86721   0.63298   0.88253   0.00000  Uiso   1.00
H816   H     0.91092   0.65184   0.95083   0.00000  Uiso   1.00
H817   H     0.93389   0.60245   0.90509   0.00000  Uiso   1.00
H818   H     0.77469   0.34157   0.74582   0.00000  Uiso   1.00
H819   H     0.76815   0.37776   0.81138   0.00000  Uiso   1.00
H820   H     0.84344   0.54622   0.78672   0.00000  Uiso   1.00
H821   H     0.78551   0.64501   0.81104   0.00000  Uiso   1.00
H822   H     0.97894   0.59196   0.99731   0.00000  Uiso   1.00
H823   H     0.86892   0.45883   0.57998   0.00000  Uiso   1.00
H824   H     0.97561   0.45473   0.92127   0.00000  Uiso   1.00
H825   H     0.77930   0.45956   0.56360   0.00000  Uiso   1.00
H826   H     0.68059   0.43274   0.51736   0.00000  Uiso   1.00
H827   H     0.78648   0.57823   0.88344   0.00000  Uiso   1.00
H828   H     0.91540   0.36498   0.82011   0.00000  Uiso   1.00
N829   N     0.81160   0.48556   0.73543   0.00000  Uiso   1.00
N830   N     0.85507   0.51444   0.76458   0.00000  Uiso   1.00
O831   O     0.96435   0.57963   0.75358   0.00000  Uiso   1.00
O832   O     0.72408   0.57038   0.74424   0.00000  Uiso   1.00
O833   O     0.98157   0.50691   0.83380   0.00000  Uiso   1.00
O834   O     0.74130   0.49766   0.82446   0.00000  Uiso   1.00
O835   O     0.94258   0.42962   0.75577   0.00000  Uiso   1.00
O836   O     0.70231   0.42037   0.74643   0.00000  Uiso   1.00
O837   O     0.92537   0.50234   0.67554   0.00000  Uiso   1.00
O838   O     0.68510   0.49309   0.66620   0.00000  Uiso   1.00
Zn839  Zn    0.93786   0.50618   0.75624   0.00000  Uiso   1.00
Zn840  Zn    0.72881   0.49382   0.74377   0.00000  Uiso   1.00
C841   C     0.01661   0.93161   0.75607   0.00000  Uiso   1.00
C842   C     0.05370   0.83439   0.91512   0.00000  Uiso   1.00
C843   C     0.02931   0.98656   0.77294   0.00000  Uiso   1.00
C844   C     0.03590   0.83682   0.85498   0.00000  Uiso   1.00
C845   C     0.31818   0.68394   0.77597   0.00000  Uiso   1.00
C846   C     0.32111   0.73614   0.75841   0.00000  Uiso   1.00
C847   C     0.29754   0.83071   0.64524   0.00000  Uiso   1.00
C848   C     0.28611   0.89709   0.51441   0.00000  Uiso   1.00
C849   C     0.27993   0.83941   0.58692   0.00000  Uiso   1.00
C850   C     0.01892   0.80342   0.94238   0.00000  Uiso   1.00
C851   C     0.04091   0.78975   0.99613   0.00000  Uiso   1.00
C852   C     0.13450   0.83530   0.99421   0.00000  Uiso   1.00
C853   C     0.09834   0.80475   0.52180   0.00000  Uiso   1.00
C854   C     0.26291   0.99948   0.79443   0.00000  Uiso   1.00
C855   C     0.15596   0.76941   0.70964   0.00000  Uiso   1.00
C856   C     0.22930   0.95152   0.91902   0.00000  Uiso   1.00
C857   C     0.09285   0.67294   0.78567   0.00000  Uiso   1.00
C858   C     0.10958   0.85450   0.94292   0.00000  Uiso   1.00
C859   C     0.19452   0.84713   0.51557   0.00000  Uiso   1.00
C860   C     0.22672   0.88444   0.99080   0.00000  Uiso   1.00
C861   C     0.19858   0.90889   0.94400   0.00000  Uiso   1.00
C862   C     0.14084   0.89296   0.91993   0.00000  Uiso   1.00
C863   C     0.22348   0.82257   0.56116   0.00000  Uiso   1.00
C864   C     0.31215   0.87548   0.56300   0.00000  Uiso   1.00
H865   H     0.02286   0.88915   0.58355   0.00000  Uiso   1.00
H866   H     0.22755   0.98752   0.75737   0.00000  Uiso   1.00
H867   H     0.27036   0.96716   0.82211   0.00000  Uiso   1.00
H868   H     0.17333   0.74340   0.74240   0.00000  Uiso   1.00
H869   H     0.11433   0.75031   0.68494   0.00000  Uiso   1.00
H870   H     0.18456   0.77421   0.67976   0.00000  Uiso   1.00
H871   H     0.20055   0.96631   0.88253   0.00000  Uiso   1.00
H872   H     0.24425   0.98517   0.95083   0.00000  Uiso   1.00
H873   H     0.26722   0.93578   0.90509   0.00000  Uiso   1.00
H874   H     0.10802   0.67490   0.74582   0.00000  Uiso   1.00
H875   H     0.10149   0.71109   0.81138   0.00000  Uiso   1.00
H876   H     0.17677   0.87956   0.78672   0.00000  Uiso   1.00
H877   H     0.11884   0.97834   0.81104   0.00000  Uiso   1.00
H878   H     0.31227   0.92530   0.99731   0.00000  Uiso   1.00
H879   H     0.20226   0.79216   0.57998   0.00000  Uiso   1.00
H880   H     0.30894   0.78807   0.92127   0.00000  Uiso   1.00
H881   H     0.11264   0.79290   0.56360   0.00000  Uiso   1.00
H882   H     0.01393   0.76607   0.51736   0.00000  Uiso   1.00
H883   H     0.11982   0.91156   0.88344   0.00000  Uiso   1.00
H884   H     0.24874   0.69831   0.82011   0.00000  Uiso   1.00
N885   N     0.14493   0.81890   0.73543   0.00000  Uiso   1.00
N886   N     0.18840   0.84777   0.76458   0.00000  Uiso   1.00
O887   O     0.29769   0.91296   0.75358   0.00000  Uiso   1.00
O888   O     0.05742   0.90371   0.74424   0.00000  Uiso   1.00
O889   O     0.31490   0.84024   0.83380   0.00000  Uiso   1.00
O890   O     0.07463   0.83099   0.82446   0.00000  Uiso   1.00
O891   O     0.27592   0.76296   0.75577   0.00000  Uiso   1.00
O892   O     0.03565   0.75371   0.74643   0.00000  Uiso   1.00
O893   O     0.25870   0.83567   0.67554   0.00000  Uiso   1.00
O894   O     0.01843   0.82642   0.66620   0.00000  Uiso   1.00
Zn895  Zn    0.27119   0.83951   0.75624   0.00000  Uiso   1.00
Zn896  Zn    0.06214   0.82716   0.74377   0.00000  Uiso   1.00
C897   C     0.34994   0.93161   0.75607   0.00000  Uiso   1.00
C898   C     0.38704   0.83439   0.91512   0.00000  Uiso   1.00
C899   C     0.36264   0.98656   0.77294   0.00000  Uiso   1.00
C900   C     0.36924   0.83682   0.85498   0.00000  Uiso   1.00
C901   C     0.65152   0.68394   0.77597   0.00000  Uiso   1.00
C902   C     0.65445   0.73614   0.75841   0.00000  Uiso   1.00
C903   C     0.63087   0.83071   0.64524   0.00000  Uiso   1.00
C904   C     0.61945   0.89709   0.51441   0.00000  Uiso   1.00
C905   C     0.61326   0.83941   0.58692   0.00000  Uiso   1.00
C906   C     0.35225   0.80342   0.94238   0.00000  Uiso   1.00
C907   C     0.37424   0.78975   0.99613   0.00000  Uiso   1.00
C908   C     0.46783   0.83530   0.99421   0.00000  Uiso   1.00
C909   C     0.43167   0.80475   0.52180   0.00000  Uiso   1.00
C910   C     0.59624   0.99948   0.79443   0.00000  Uiso   1.00
C911   C     0.48929   0.76941   0.70964   0.00000  Uiso   1.00
C912   C     0.56263   0.95152   0.91902   0.00000  Uiso   1.00
C913   C     0.42618   0.67294   0.78567   0.00000  Uiso   1.00
C914   C     0.44292   0.85450   0.94292   0.00000  Uiso   1.00
C915   C     0.52786   0.84713   0.51557   0.00000  Uiso   1.00
C916   C     0.56006   0.88444   0.99080   0.00000  Uiso   1.00
C917   C     0.53191   0.90889   0.94400   0.00000  Uiso   1.00
C918   C     0.47417   0.89296   0.91993   0.00000  Uiso   1.00
C919   C     0.55681   0.82257   0.56116   0.00000  Uiso   1.00
C920   C     0.64549   0.87548   0.56300   0.00000  Uiso   1.00
H921   H     0.35619   0.88915   0.58355   0.00000  Uiso   1.00
H922   H     0.56088   0.98752   0.75737   0.00000  Uiso   1.00
H923   H     0.60370   0.96716   0.82211   0.00000  Uiso   1.00
H924   H     0.50667   0.74340   0.74240   0.00000  Uiso   1.00
H925   H     0.44766   0.75031   0.68494   0.00000  Uiso   1.00
H926   H     0.51790   0.77421   0.67976   0.00000  Uiso   1.00
H927   H     0.53388   0.96631   0.88253   0.00000  Uiso   1.00
H928   H     0.57758   0.98517   0.95083   0.00000  Uiso   1.00
H929   H     0.60055   0.93578   0.90509   0.00000  Uiso   1.00
H930   H     0.44136   0.67490   0.74582   0.00000  Uiso   1.00
H931   H     0.43482   0.71109   0.81138   0.00000  Uiso   1.00
H932   H     0.51011   0.87956   0.78672   0.00000  Uiso   1.00
H933   H     0.45217   0.97834   0.81104   0.00000  Uiso   1.00
H934   H     0.64561   0.92530   0.99731   0.00000  Uiso   1.00
H935   H     0.53559   0.79216   0.57998   0.00000  Uiso   1.00
H936   H     0.64227   0.78807   0.92127   0.00000  Uiso   1.00
H937   H     0.44597   0.79290   0.56360   0.00000  Uiso   1.00
H938   H     0.34726   0.76607   0.51736   0.00000  Uiso   1.00
H939   H     0.45315   0.91156   0.88344   0.00000  Uiso   1.00
H940   H     0.58207   0.69831   0.82011   0.00000  Uiso   1.00
N941   N     0.47827   0.81890   0.73543   0.00000  Uiso   1.00
N942   N     0.52173   0.84777   0.76458   0.00000  Uiso   1.00
O943   O     0.63102   0.91296   0.75358   0.00000  Uiso   1.00
O944   O     0.39075   0.90371   0.74424   0.00000  Uiso   1.00
O945   O     0.64823   0.84024   0.83380   0.00000  Uiso   1.00
O946   O     0.40796   0.83099   0.82446   0.00000  Uiso   1.00
O947   O     0.60925   0.76296   0.75577   0.00000  Uiso   1.00
O948   O     0.36898   0.75371   0.74643   0.00000  Uiso   1.00
O949   O     0.59204   0.83567   0.67554   0.00000  Uiso   1.00
O950   O     0.35177   0.82642   0.66620   0.00000  Uiso   1.00
Zn951  Zn    0.60453   0.83951   0.75624   0.00000  Uiso   1.00
Zn952  Zn    0.39547   0.82716   0.74377   0.00000  Uiso   1.00
C953   C     0.68327   0.93161   0.75607   0.00000  Uiso   1.00
C954   C     0.72037   0.83439   0.91512   0.00000  Uiso   1.00
C955   C     0.69597   0.98656   0.77294   0.00000  Uiso   1.00
C956   C     0.70257   0.83682   0.85498   0.00000  Uiso   1.00
C957   C     0.98485   0.68394   0.77597   0.00000  Uiso   1.00
C958   C     0.98778   0.73614   0.75841   0.00000  Uiso   1.00
C959   C     0.96421   0.83071   0.64524   0.00000  Uiso   1.00
C960   C     0.95278   0.89709   0.51441   0.00000  Uiso   1.00
C961   C     0.94659   0.83941   0.58692   0.00000  Uiso   1.00
C962   C     0.68559   0.80342   0.94238   0.00000  Uiso   1.00
C963   C     0.70758   0.78975   0.99613   0.00000  Uiso   1.00
C964   C     0.80117   0.83530   0.99421   0.00000  Uiso   1.00
C965   C     0.76501   0.80475   0.52180   0.00000  Uiso   1.00
C966   C     0.92958   0.99948   0.79443   0.00000  Uiso   1.00
C967   C     0.82262   0.76941   0.70964   0.00000  Uiso   1.00
C968   C     0.89596   0.95152   0.91902   0.00000  Uiso   1.00
C969   C     0.75952   0.67294   0.78567   0.00000  Uiso   1.00
C970   C     0.77625   0.85450   0.94292   0.00000  Uiso   1.00
C971   C     0.86119   0.84713   0.51557   0.00000  Uiso   1.00
C972   C     0.89339   0.88444   0.99080   0.00000  Uiso   1.00
C973   C     0.86524   0.90889   0.94400   0.00000  Uiso   1.00
C974   C     0.80751   0.89296   0.91993   0.00000  Uiso   1.00
C975   C     0.89015   0.82257   0.56116   0.00000  Uiso   1.00
C976   C     0.97882   0.87548   0.56300   0.00000  Uiso   1.00
H977   H     0.68953   0.88915   0.58355   0.00000  Uiso   1.00
H978   H     0.89422   0.98752   0.75737   0.00000  Uiso   1.00
H979   H     0.93703   0.96716   0.82211   0.00000  Uiso   1.00
H980   H     0.84000   0.74340   0.74240   0.00000  Uiso   1.00
H981   H     0.78100   0.75031   0.68494   0.00000  Uiso   1.00
H982   H     0.85123   0.77421   0.67976   0.00000  Uiso   1.00
H983   H     0.86721   0.96631   0.88253   0.00000  Uiso   1.00
H984   H     0.91092   0.98517   0.95083   0.00000  Uiso   1.00
H985   H     0.93389   0.93578   0.90509   0.00000  Uiso   1.00
H986   H     0.77469   0.67490   0.74582   0.00000  Uiso   1.00
H987   H     0.76815   0.71109   0.81138   0.00000  Uiso   1.00
H988   H     0.84344   0.87956   0.78672   0.00000  Uiso   1.00
H989   H     0.78551   0.97834   0.81104   0.00000  Uiso   1.00
H990   H     0.97894   0.92530   0.99731   0.00000  Uiso   1.00
H991   H     0.86892   0.79216   0.57998   0.00000  Uiso   1.00
H992   H     0.97561   0.78807   0.92127   0.00000  Uiso   1.00
H993   H     0.77930   0.79290   0.56360   0.00000  Uiso   1.00
H994   H     0.68059   0.76607   0.51736   0.00000  Uiso   1.00
H995   H     0.78648   0.91156   0.88344   0.00000  Uiso   1.00
H996   H     0.91540   0.69831   0.82011   0.00000  Uiso   1.00
N997   N     0.81160   0.81890   0.73543   0.00000  Uiso   1.00
N998   N     0.85507   0.84777   0.76458   0.00000  Uiso   1.00
O999   O     0.96435   0.91296   0.75358   0.00000  Uiso   1.00
O1000  O     0.72408   0.90371   0.74424   0.00000  Uiso   1.00
O1001  O     0.98157   0.84024   0.83380   0.00000  Uiso   1.00
O1002  O     0.74130   0.83099   0.82446   0.00000  Uiso   1.00
O1003  O     0.94258   0.76296   0.75577   0.00000  Uiso   1.00
O1004  O     0.70231   0.75371   0.74643   0.00000  Uiso   1.00
O1005  O     0.92537   0.83567   0.67554   0.00000  Uiso   1.00
O1006  O     0.68510   0.82642   0.66620   0.00000  Uiso   1.00
Zn1007 Zn    0.93786   0.83951   0.75624   0.00000  Uiso   1.00
Zn1008 Zn    0.72881   0.82716   0.74377   0.00000  Uiso   1.00
loop_
_geom_bond_atom_site_label_1
_geom_bond_atom_site_label_2
_geom_bond_distance
_geom_bond_site_symmetry_2
_ccdc_geom_bond_type
C1     O48     1.301   .     A
C1     C3      1.435   .     S
C1     O159    1.283   1_455 S
C2     C4      1.450   .     S
C2     C18     1.404   .     A
C2     C10     1.401   .     A
C3     C285    1.360   1_455 S
C3     C185    1.516   .     S
C4     O50     1.302   .     A
C4     O161    1.292   1_455 S
C5     C6      1.433   .     S
C5     C395    1.360   1_545 S
C5     C350    1.520   1_545 S
C6     O51     1.296   .     A
C6     O108    1.287   .     S
C7     C9      1.437   .     S
C7     O53     1.298   .     A
C7     O110    1.292   .     S
C8     C24     1.387   .     A
C8     C524    1.411   1_554 S
C8     H542    1.081   1_554 S
C9     C24     1.393   .     A
C9     C23     1.381   .     A
C10    C11     1.386   .     A
C10    H152    1.084   1_455 S
C11    C517    1.391   .     S
C11    H546    1.083   .     S
C12    C18     1.405   .     A
C12    C517    1.421   .     S
C12    C523    1.413   .     S
C13    H41     1.078   .     S
C13    C515    1.391   1_554 S
C13    C516    1.421   1_554 S
C14    H26     1.111   .     S
C14    H27     1.103   .     S
C14    C173    1.520   .     S
C14    H212    1.111   .     S
C15    H29     1.108   .     S
C15    H28     1.106   .     S
C15    H30     1.099   .     S
C15    N45     1.439   .     S
C16    C21     1.504   .     S
C16    H33     1.109   .     S
C16    H32     1.110   .     S
C16    H31     1.108   .     S
C17    H34     1.107   .     S
C17    H35     1.110   .     S
C17    C339    1.516   1_545 S
C17    H373    1.109   1_545 S
C18    C22     1.409   .     A
C19    C23     1.392   .     A
C19    C516    1.413   1_554 S
C19    C524    1.426   1_554 S
C20    C21     1.406   .     A
C20    C512    1.411   .     S
C20    C523    1.426   .     S
C21    C22     1.394   .     A
C22    H43     1.083   .     S
C23    H39     1.079   .     S
C24    H81     1.084   .     S
H25    C136    1.084   1_455 S
H36    N46     1.030   .     S
H37    C185    1.109   .     S
H38    C512    1.081   .     S
H40    C66     1.084   .     S
H42    C515    1.083   1_554 S
H44    C350    1.111   1_545 S
N45    N46     1.283   .     D
N45    Zn56    2.028   .     S
N46    Zn55    2.028   .     S
O47    Zn55    1.955   .     S
O47    C57     1.283   .     S
O48    Zn56    1.969   .     S
O49    Zn55    1.962   .     S
O49    C60     1.292   .     S
O50    Zn56    1.928   .     S
O51    Zn55    1.969   .     S
O52    Zn56    1.955   .     S
O52    C118    1.287   1_455 S
O53    Zn55    1.928   .     S
O54    Zn56    1.962   .     S
O54    C119    1.292   1_455 S
C57    O104    1.301   .     A
C57    C59     1.435   .     S
C58    C60     1.450   .     S
C58    C74     1.404   .     A
C58    C66     1.401   .     A
C59    C173    1.360   .     S
C59    C241    1.516   .     S
C60    O106    1.302   .     A
C61    C62     1.433   .     S
C61    C451    1.360   1_545 S
C61    C406    1.520   1_545 S
C62    O107    1.296   .     A
C62    O164    1.287   .     S
C63    C65     1.437   .     S
C63    O109    1.298   .     A
C63    O166    1.292   .     S
C64    C80     1.387   .     A
C64    C580    1.411   1_554 S
C64    H598    1.081   1_554 S
C65    C80     1.393   .     A
C65    C79     1.381   .     A
C66    C67     1.386   .     A
C67    C573    1.391   .     S
C67    H602    1.083   .     S
C68    C74     1.405   .     A
C68    C573    1.421   .     S
C68    C579    1.413   .     S
C69    H97     1.078   .     S
C69    C571    1.391   1_554 S
C69    C572    1.421   1_554 S
C70    H82     1.111   .     S
C70    H83     1.103   .     S
C70    C229    1.520   .     S
C70    H268    1.111   .     S
C71    H85     1.108   .     S
C71    H84     1.106   .     S
C71    H86     1.099   .     S
C71    N101    1.439   .     S
C72    C77     1.504   .     S
C72    H89     1.109   .     S
C72    H88     1.110   .     S
C72    H87     1.108   .     S
C73    H90     1.107   .     S
C73    H91     1.110   .     S
C73    C395    1.516   1_545 S
C73    H429    1.109   1_545 S
C74    C78     1.409   .     A
C75    C79     1.392   .     A
C75    C572    1.413   1_554 S
C75    C580    1.426   1_554 S
C76    C77     1.406   .     A
C76    C568    1.411   .     S
C76    C579    1.426   .     S
C77    C78     1.394   .     A
C78    H99     1.083   .     S
C79    H95     1.079   .     S
C80    H137    1.084   .     S
H92    N102    1.030   .     S
H93    C241    1.109   .     S
H94    C568    1.081   .     S
H96    C122    1.084   .     S
H98    C571    1.083   1_554 S
H100   C406    1.111   1_545 S
N101   N102    1.283   .     D
N101   Zn112   2.028   .     S
N102   Zn111   2.028   .     S
O103   Zn111   1.955   .     S
O103   C113    1.283   .     S
O104   Zn112   1.969   .     S
O105   Zn111   1.962   .     S
O105   C116    1.292   .     S
O106   Zn112   1.928   .     S
O107   Zn111   1.969   .     S
O108   Zn112   1.955   .     S
O109   Zn111   1.928   .     S
O110   Zn112   1.962   .     S
C113   O160    1.301   .     A
C113   C115    1.435   .     S
C114   C116    1.450   .     S
C114   C130    1.404   .     A
C114   C122    1.401   .     A
C115   C229    1.360   .     S
C115   C297    1.516   .     S
C116   O162    1.302   .     A
C117   C118    1.433   .     S
C117   C339    1.360   1_645 S
C117   C462    1.520   1_545 S
C118   O163    1.296   .     A
C118   O52     1.287   1_655 S
C119   C121    1.437   .     S
C119   O165    1.298   .     A
C119   O54     1.292   1_655 S
C120   C136    1.387   .     A
C120   C636    1.411   1_554 S
C120   H654    1.081   1_554 S
C121   C136    1.393   .     A
C121   C135    1.381   .     A
C122   C123    1.386   .     A
C123   C629    1.391   .     S
C123   H658    1.083   .     S
C124   C130    1.405   .     A
C124   C629    1.421   .     S
C124   C635    1.413   .     S
C125   H153    1.078   .     S
C125   C627    1.391   1_554 S
C125   C628    1.421   1_554 S
C126   H138    1.111   .     S
C126   H139    1.103   .     S
C126   C285    1.520   .     S
C126   H324    1.111   .     S
C127   H141    1.108   .     S
C127   H140    1.106   .     S
C127   H142    1.099   .     S
C127   N157    1.439   .     S
C128   C133    1.504   .     S
C128   H145    1.109   .     S
C128   H144    1.110   .     S
C128   H143    1.108   .     S
C129   H146    1.107   .     S
C129   H147    1.110   .     S
C129   C451    1.516   1_545 S
C129   H485    1.109   1_545 S
C130   C134    1.409   .     A
C131   C135    1.392   .     A
C131   C628    1.413   1_554 S
C131   C636    1.426   1_554 S
C132   C133    1.406   .     A
C132   C624    1.411   .     S
C132   C635    1.426   .     S
C133   C134    1.394   .     A
C134   H155    1.083   .     S
C135   H151    1.079   .     S
C136   H25     1.084   1_655 S
H148   N158    1.030   .     S
H149   C297    1.109   .     S
H150   C624    1.081   .     S
H152   C10     1.084   1_655 S
H154   C627    1.083   1_554 S
H156   C462    1.111   1_545 S
N157   N158    1.283   .     D
N157   Zn168   2.028   .     S
N158   Zn167   2.028   .     S
O159   Zn167   1.955   .     S
O159   C1      1.283   1_655 S
O160   Zn168   1.969   .     S
O161   Zn167   1.962   .     S
O161   C4      1.292   1_655 S
O162   Zn168   1.928   .     S
O163   Zn167   1.969   .     S
O164   Zn168   1.955   .     S
O165   Zn167   1.928   .     S
O166   Zn168   1.962   .     S
C169   O216    1.301   .     A
C169   C171    1.435   .     S
C169   O327    1.283   1_455 S
C170   C172    1.450   .     S
C170   C186    1.404   .     A
C170   C178    1.401   .     A
C171   C453    1.360   1_455 S
C171   C353    1.516   .     S
C172   O218    1.302   .     A
C172   O329    1.292   1_455 S
C173   C174    1.433   .     S
C174   O219    1.296   .     A
C174   O276    1.287   .     S
C175   C177    1.437   .     S
C175   O221    1.298   .     A
C175   O278    1.292   .     S
C176   C192    1.387   .     A
C176   C692    1.411   1_554 S
C176   H710    1.081   1_554 S
C177   C192    1.393   .     A
C177   C191    1.381   .     A
C178   C179    1.386   .     A
C178   H320    1.084   1_455 S
C179   C685    1.391   .     S
C179   H714    1.083   .     S
C180   C186    1.405   .     A
C180   C685    1.421   .     S
C180   C691    1.413   .     S
C181   H209    1.078   .     S
C181   C683    1.391   1_554 S
C181   C684    1.421   1_554 S
C182   H194    1.111   .     S
C182   H195    1.103   .     S
C182   C341    1.520   .     S
C182   H380    1.111   .     S
C183   H197    1.108   .     S
C183   H196    1.106   .     S
C183   H198    1.099   .     S
C183   N213    1.439   .     S
C184   C189    1.504   .     S
C184   H201    1.109   .     S
C184   H200    1.110   .     S
C184   H199    1.108   .     S
C185   H202    1.107   .     S
C185   H203    1.110   .     S
C186   C190    1.409   .     A
C187   C191    1.392   .     A
C187   C684    1.413   1_554 S
C187   C692    1.426   1_554 S
C188   C189    1.406   .     A
C188   C680    1.411   .     S
C188   C691    1.426   .     S
C189   C190    1.394   .     A
C190   H211    1.083   .     S
C191   H207    1.079   .     S
C192   H249    1.084   .     S
H193   C304    1.084   1_455 S
H204   N214    1.030   .     S
H205   C353    1.109   .     S
H206   C680    1.081   .     S
H208   C234    1.084   .     S
H210   C683    1.083   1_554 S
N213   N214    1.283   .     D
N213   Zn224   2.028   .     S
N214   Zn223   2.028   .     S
O215   Zn223   1.955   .     S
O215   C225    1.283   .     S
O216   Zn224   1.969   .     S
O217   Zn223   1.962   .     S
O217   C228    1.292   .     S
O218   Zn224   1.928   .     S
O219   Zn223   1.969   .     S
O220   Zn224   1.955   .     S
O220   C286    1.287   1_455 S
O221   Zn223   1.928   .     S
O222   Zn224   1.962   .     S
O222   C287    1.292   1_455 S
C225   O272    1.301   .     A
C225   C227    1.435   .     S
C226   C228    1.450   .     S
C226   C242    1.404   .     A
C226   C234    1.401   .     A
C227   C341    1.360   .     S
C227   C409    1.516   .     S
C228   O274    1.302   .     A
C229   C230    1.433   .     S
C230   O275    1.296   .     A
C230   O332    1.287   .     S
C231   C233    1.437   .     S
C231   O277    1.298   .     A
C231   O334    1.292   .     S
C232   C248    1.387   .     A
C232   C748    1.411   1_554 S
C232   H766    1.081   1_554 S
C233   C248    1.393   .     A
C233   C247    1.381   .     A
C234   C235    1.386   .     A
C235   C741    1.391   .     S
C235   H770    1.083   .     S
C236   C242    1.405   .     A
C236   C741    1.421   .     S
C236   C747    1.413   .     S
C237   H265    1.078   .     S
C237   C739    1.391   1_554 S
C237   C740    1.421   1_554 S
C238   H250    1.111   .     S
C238   H251    1.103   .     S
C238   C397    1.520   .     S
C238   H436    1.111   .     S
C239   H253    1.108   .     S
C239   H252    1.106   .     S
C239   H254    1.099   .     S
C239   N269    1.439   .     S
C240   C245    1.504   .     S
C240   H257    1.109   .     S
C240   H256    1.110   .     S
C240   H255    1.108   .     S
C241   H258    1.107   .     S
C241   H259    1.110   .     S
C242   C246    1.409   .     A
C243   C247    1.392   .     A
C243   C740    1.413   1_554 S
C243   C748    1.426   1_554 S
C244   C245    1.406   .     A
C244   C736    1.411   .     S
C244   C747    1.426   .     S
C245   C246    1.394   .     A
C246   H267    1.083   .     S
C247   H263    1.079   .     S
C248   H305    1.084   .     S
H260   N270    1.030   .     S
H261   C409    1.109   .     S
H262   C736    1.081   .     S
H264   C290    1.084   .     S
H266   C739    1.083   1_554 S
N269   N270    1.283   .     D
N269   Zn280   2.028   .     S
N270   Zn279   2.028   .     S
O271   Zn279   1.955   .     S
O271   C281    1.283   .     S
O272   Zn280   1.969   .     S
O273   Zn279   1.962   .     S
O273   C284    1.292   .     S
O274   Zn280   1.928   .     S
O275   Zn279   1.969   .     S
O276   Zn280   1.955   .     S
O277   Zn279   1.928   .     S
O278   Zn280   1.962   .     S
C281   O328    1.301   .     A
C281   C283    1.435   .     S
C282   C284    1.450   .     S
C282   C298    1.404   .     A
C282   C290    1.401   .     A
C283   C397    1.360   .     S
C283   C465    1.516   .     S
C284   O330    1.302   .     A
C285   C286    1.433   .     S
C285   C3      1.360   1_655 S
C286   O331    1.296   .     A
C286   O220    1.287   1_655 S
C287   C289    1.437   .     S
C287   O333    1.298   .     A
C287   O222    1.292   1_655 S
C288   C304    1.387   .     A
C288   C804    1.411   1_554 S
C288   H822    1.081   1_554 S
C289   C304    1.393   .     A
C289   C303    1.381   .     A
C290   C291    1.386   .     A
C291   C797    1.391   .     S
C291   H826    1.083   .     S
C292   C298    1.405   .     A
C292   C797    1.421   .     S
C292   C803    1.413   .     S
C293   H321    1.078   .     S
C293   C795    1.391   1_554 S
C293   C796    1.421   1_554 S
C294   H306    1.111   .     S
C294   H307    1.103   .     S
C294   C453    1.520   .     S
C294   H492    1.111   .     S
C295   H309    1.108   .     S
C295   H308    1.106   .     S
C295   H310    1.099   .     S
C295   N325    1.439   .     S
C296   C301    1.504   .     S
C296   H313    1.109   .     S
C296   H312    1.110   .     S
C296   H311    1.108   .     S
C297   H314    1.107   .     S
C297   H315    1.110   .     S
C298   C302    1.409   .     A
C299   C303    1.392   .     A
C299   C796    1.413   1_554 S
C299   C804    1.426   1_554 S
C300   C301    1.406   .     A
C300   C792    1.411   .     S
C300   C803    1.426   .     S
C301   C302    1.394   .     A
C302   H323    1.083   .     S
C303   H319    1.079   .     S
C304   H193    1.084   1_655 S
H316   N326    1.030   .     S
H317   C465    1.109   .     S
H318   C792    1.081   .     S
H320   C178    1.084   1_655 S
H322   C795    1.083   1_554 S
N325   N326    1.283   .     D
N325   Zn336   2.028   .     S
N326   Zn335   2.028   .     S
O327   Zn335   1.955   .     S
O327   C169    1.283   1_655 S
O328   Zn336   1.969   .     S
O329   Zn335   1.962   .     S
O329   C172    1.292   1_655 S
O330   Zn336   1.928   .     S
O331   Zn335   1.969   .     S
O332   Zn336   1.955   .     S
O333   Zn335   1.928   .     S
O334   Zn336   1.962   .     S
C337   O384    1.301   .     A
C337   C339    1.435   .     S
C337   O495    1.283   1_455 S
C338   C340    1.450   .     S
C338   C354    1.404   .     A
C338   C346    1.401   .     A
C339   C117    1.360   1_465 S
C339   C17     1.516   1_565 S
C340   O386    1.302   .     A
C340   O497    1.292   1_455 S
C341   C342    1.433   .     S
C342   O387    1.296   .     A
C342   O444    1.287   .     S
C343   C345    1.437   .     S
C343   O389    1.298   .     A
C343   O446    1.292   .     S
C344   C360    1.387   .     A
C344   C860    1.411   1_554 S
C344   H878    1.081   1_554 S
C345   C360    1.393   .     A
C345   C359    1.381   .     A
C346   C347    1.386   .     A
C346   H488    1.084   1_455 S
C347   C853    1.391   .     S
C347   H882    1.083   .     S
C348   C354    1.405   .     A
C348   C853    1.421   .     S
C348   C859    1.413   .     S
C349   H377    1.078   .     S
C349   C851    1.391   1_554 S
C349   C852    1.421   1_554 S
C350   H362    1.111   .     S
C350   H363    1.103   .     S
C350   C5      1.520   1_565 S
C350   H44     1.111   1_565 S
C351   H365    1.108   .     S
C351   H364    1.106   .     S
C351   H366    1.099   .     S
C351   N381    1.439   .     S
C352   C357    1.504   .     S
C352   H369    1.109   .     S
C352   H368    1.110   .     S
C352   H367    1.108   .     S
C353   H370    1.107   .     S
C353   H371    1.110   .     S
C354   C358    1.409   .     A
C355   C359    1.392   .     A
C355   C852    1.413   1_554 S
C355   C860    1.426   1_554 S
C356   C357    1.406   .     A
C356   C848    1.411   .     S
C356   C859    1.426   .     S
C357   C358    1.394   .     A
C358   H379    1.083   .     S
C359   H375    1.079   .     S
C360   H417    1.084   .     S
H361   C472    1.084   1_455 S
H372   N382    1.030   .     S
H373   C17     1.109   1_565 S
H374   C848    1.081   .     S
H376   C402    1.084   .     S
H378   C851    1.083   1_554 S
N381   N382    1.283   .     D
N381   Zn392   2.028   .     S
N382   Zn391   2.028   .     S
O383   Zn391   1.955   .     S
O383   C393    1.283   .     S
O384   Zn392   1.969   .     S
O385   Zn391   1.962   .     S
O385   C396    1.292   .     S
O386   Zn392   1.928   .     S
O387   Zn391   1.969   .     S
O388   Zn392   1.955   .     S
O388   C454    1.287   1_455 S
O389   Zn391   1.928   .     S
O390   Zn392   1.962   .     S
O390   C455    1.292   1_455 S
C393   O440    1.301   .     A
C393   C395    1.435   .     S
C394   C396    1.450   .     S
C394   C410    1.404   .     A
C394   C402    1.401   .     A
C395   C5      1.360   1_565 S
C395   C73     1.516   1_565 S
C396   O442    1.302   .     A
C397   C398    1.433   .     S
C398   O443    1.296   .     A
C398   O500    1.287   .     S
C399   C401    1.437   .     S
C399   O445    1.298   .     A
C399   O502    1.292   .     S
C400   C416    1.387   .     A
C400   C916    1.411   1_554 S
C400   H934    1.081   1_554 S
C401   C416    1.393   .     A
C401   C415    1.381   .     A
C402   C403    1.386   .     A
C403   C909    1.391   .     S
C403   H938    1.083   .     S
C404   C410    1.405   .     A
C404   C909    1.421   .     S
C404   C915    1.413   .     S
C405   H433    1.078   .     S
C405   C907    1.391   1_554 S
C405   C908    1.421   1_554 S
C406   H418    1.111   .     S
C406   H419    1.103   .     S
C406   C61     1.520   1_565 S
C406   H100    1.111   1_565 S
C407   H421    1.108   .     S
C407   H420    1.106   .     S
C407   H422    1.099   .     S
C407   N437    1.439   .     S
C408   C413    1.504   .     S
C408   H425    1.109   .     S
C408   H424    1.110   .     S
C408   H423    1.108   .     S
C409   H426    1.107   .     S
C409   H427    1.110   .     S
C410   C414    1.409   .     A
C411   C415    1.392   .     A
C411   C908    1.413   1_554 S
C411   C916    1.426   1_554 S
C412   C413    1.406   .     A
C412   C904    1.411   .     S
C412   C915    1.426   .     S
C413   C414    1.394   .     A
C414   H435    1.083   .     S
C415   H431    1.079   .     S
C416   H473    1.084   .     S
H428   N438    1.030   .     S
H429   C73     1.109   1_565 S
H430   C904    1.081   .     S
H432   C458    1.084   .     S
H434   C907    1.083   1_554 S
N437   N438    1.283   .     D
N437   Zn448   2.028   .     S
N438   Zn447   2.028   .     S
O439   Zn447   1.955   .     S
O439   C449    1.283   .     S
O440   Zn448   1.969   .     S
O441   Zn447   1.962   .     S
O441   C452    1.292   .     S
O442   Zn448   1.928   .     S
O443   Zn447   1.969   .     S
O444   Zn448   1.955   .     S
O445   Zn447   1.928   .     S
O446   Zn448   1.962   .     S
C449   O496    1.301   .     A
C449   C451    1.435   .     S
C450   C452    1.450   .     S
C450   C466    1.404   .     A
C450   C458    1.401   .     A
C451   C61     1.360   1_565 S
C451   C129    1.516   1_565 S
C452   O498    1.302   .     A
C453   C454    1.433   .     S
C453   C171    1.360   1_655 S
C454   O499    1.296   .     A
C454   O388    1.287   1_655 S
C455   C457    1.437   .     S
C455   O501    1.298   .     A
C455   O390    1.292   1_655 S
C456   C472    1.387   .     A
C456   C972    1.411   1_554 S
C456   H990    1.081   1_554 S
C457   C472    1.393   .     A
C457   C471    1.381   .     A
C458   C459    1.386   .     A
C459   C965    1.391   .     S
C459   H994    1.083   .     S
C460   C466    1.405   .     A
C460   C965    1.421   .     S
C460   C971    1.413   .     S
C461   H489    1.078   .     S
C461   C963    1.391   1_554 S
C461   C964    1.421   1_554 S
C462   H474    1.111   .     S
C462   H475    1.103   .     S
C462   C117    1.520   1_565 S
C462   H156    1.111   1_565 S
C463   H477    1.108   .     S
C463   H476    1.106   .     S
C463   H478    1.099   .     S
C463   N493    1.439   .     S
C464   C469    1.504   .     S
C464   H481    1.109   .     S
C464   H480    1.110   .     S
C464   H479    1.108   .     S
C465   H482    1.107   .     S
C465   H483    1.110   .     S
C466   C470    1.409   .     A
C467   C471    1.392   .     A
C467   C964    1.413   1_554 S
C467   C972    1.426   1_554 S
C468   C469    1.406   .     A
C468   C960    1.411   .     S
C468   C971    1.426   .     S
C469   C470    1.394   .     A
C470   H491    1.083   .     S
C471   H487    1.079   .     S
C472   H361    1.084   1_655 S
H484   N494    1.030   .     S
H485   C129    1.109   1_565 S
H486   C960    1.081   .     S
H488   C346    1.084   1_655 S
H490   C963    1.083   1_554 S
N493   N494    1.283   .     D
N493   Zn504   2.028   .     S
N494   Zn503   2.028   .     S
O495   Zn503   1.955   .     S
O495   C337    1.283   1_655 S
O496   Zn504   1.969   .     S
O497   Zn503   1.962   .     S
O497   C340    1.292   1_655 S
O498   Zn504   1.928   .     S
O499   Zn503   1.969   .     S
O500   Zn504   1.955   .     S
O501   Zn503   1.928   .     S
O502   Zn504   1.962   .     S
C505   O552    1.301   .     A
C505   C507    1.435   .     S
C505   O663    1.283   1_455 S
C506   C508    1.450   .     S
C506   C522    1.404   .     A
C506   C514    1.401   .     A
C507   C789    1.360   1_455 S
C507   C689    1.516   .     S
C508   O554    1.302   .     A
C508   O665    1.292   1_455 S
C509   C510    1.433   .     S
C509   C899    1.360   1_545 S
C509   C854    1.520   1_545 S
C510   O555    1.296   .     A
C510   O612    1.287   .     S
C511   C513    1.437   .     S
C511   O557    1.298   .     A
C511   O614    1.292   .     S
C512   C528    1.387   .     A
C513   C528    1.393   .     A
C513   C527    1.381   .     A
C514   C515    1.386   .     A
C514   H656    1.084   1_455 S
C515   C13     1.391   1_556 S
C515   H42     1.083   1_556 S
C516   C522    1.405   .     A
C516   C13     1.421   1_556 S
C516   C19     1.413   1_556 S
C517   H545    1.078   .     S
C518   H530    1.111   .     S
C518   H531    1.103   .     S
C518   C677    1.520   .     S
C518   H716    1.111   .     S
C519   H533    1.108   .     S
C519   H532    1.106   .     S
C519   H534    1.099   .     S
C519   N549    1.439   .     S
C520   C525    1.504   .     S
C520   H537    1.109   .     S
C520   H536    1.110   .     S
C520   H535    1.108   .     S
C521   H538    1.107   .     S
C521   H539    1.110   .     S
C521   C843    1.516   1_545 S
C521   H877    1.109   1_545 S
C522   C526    1.409   .     A
C523   C527    1.392   .     A
C524   C525    1.406   .     A
C524   C8      1.411   1_556 S
C524   C19     1.426   1_556 S
C525   C526    1.394   .     A
C526   H547    1.083   .     S
C527   H543    1.079   .     S
C528   H585    1.084   .     S
H529   C640    1.084   1_455 S
H540   N550    1.030   .     S
H541   C689    1.109   .     S
H542   C8      1.081   1_556 S
H544   C570    1.084   .     S
H548   C854    1.111   1_545 S
N549   N550    1.283   .     D
N549   Zn560   2.028   .     S
N550   Zn559   2.028   .     S
O551   Zn559   1.955   .     S
O551   C561    1.283   .     S
O552   Zn560   1.969   .     S
O553   Zn559   1.962   .     S
O553   C564    1.292   .     S
O554   Zn560   1.928   .     S
O555   Zn559   1.969   .     S
O556   Zn560   1.955   .     S
O556   C622    1.287   1_455 S
O557   Zn559   1.928   .     S
O558   Zn560   1.962   .     S
O558   C623    1.292   1_455 S
C561   O608    1.301   .     A
C561   C563    1.435   .     S
C562   C564    1.450   .     S
C562   C578    1.404   .     A
C562   C570    1.401   .     A
C563   C677    1.360   .     S
C563   C745    1.516   .     S
C564   O610    1.302   .     A
C565   C566    1.433   .     S
C565   C955    1.360   1_545 S
C565   C910    1.520   1_545 S
C566   O611    1.296   .     A
C566   O668    1.287   .     S
C567   C569    1.437   .     S
C567   O613    1.298   .     A
C567   O670    1.292   .     S
C568   C584    1.387   .     A
C569   C584    1.393   .     A
C569   C583    1.381   .     A
C570   C571    1.386   .     A
C571   C69     1.391   1_556 S
C571   H98     1.083   1_556 S
C572   C578    1.405   .     A
C572   C69     1.421   1_556 S
C572   C75     1.413   1_556 S
C573   H601    1.078   .     S
C574   H586    1.111   .     S
C574   H587    1.103   .     S
C574   C733    1.520   .     S
C574   H772    1.111   .     S
C575   H589    1.108   .     S
C575   H588    1.106   .     S
C575   H590    1.099   .     S
C575   N605    1.439   .     S
C576   C581    1.504   .     S
C576   H593    1.109   .     S
C576   H592    1.110   .     S
C576   H591    1.108   .     S
C577   H594    1.107   .     S
C577   H595    1.110   .     S
C577   C899    1.516   1_545 S
C577   H933    1.109   1_545 S
C578   C582    1.409   .     A
C579   C583    1.392   .     A
C580   C581    1.406   .     A
C580   C64     1.411   1_556 S
C580   C75     1.426   1_556 S
C581   C582    1.394   .     A
C582   H603    1.083   .     S
C583   H599    1.079   .     S
C584   H641    1.084   .     S
H596   N606    1.030   .     S
H597   C745    1.109   .     S
H598   C64     1.081   1_556 S
H600   C626    1.084   .     S
H604   C910    1.111   1_545 S
N605   N606    1.283   .     D
N605   Zn616   2.028   .     S
N606   Zn615   2.028   .     S
O607   Zn615   1.955   .     S
O607   C617    1.283   .     S
O608   Zn616   1.969   .     S
O609   Zn615   1.962   .     S
O609   C620    1.292   .     S
O610   Zn616   1.928   .     S
O611   Zn615   1.969   .     S
O612   Zn616   1.955   .     S
O613   Zn615   1.928   .     S
O614   Zn616   1.962   .     S
C617   O664    1.301   .     A
C617   C619    1.435   .     S
C618   C620    1.450   .     S
C618   C634    1.404   .     A
C618   C626    1.401   .     A
C619   C733    1.360   .     S
C619   C801    1.516   .     S
C620   O666    1.302   .     A
C621   C622    1.433   .     S
C621   C843    1.360   1_645 S
C621   C966    1.520   1_545 S
C622   O667    1.296   .     A
C622   O556    1.287   1_655 S
C623   C625    1.437   .     S
C623   O669    1.298   .     A
C623   O558    1.292   1_655 S
C624   C640    1.387   .     A
C625   C640    1.393   .     A
C625   C639    1.381   .     A
C626   C627    1.386   .     A
C627   C125    1.391   1_556 S
C627   H154    1.083   1_556 S
C628   C634    1.405   .     A
C628   C125    1.421   1_556 S
C628   C131    1.413   1_556 S
C629   H657    1.078   .     S
C630   H642    1.111   .     S
C630   H643    1.103   .     S
C630   C789    1.520   .     S
C630   H828    1.111   .     S
C631   H645    1.108   .     S
C631   H644    1.106   .     S
C631   H646    1.099   .     S
C631   N661    1.439   .     S
C632   C637    1.504   .     S
C632   H649    1.109   .     S
C632   H648    1.110   .     S
C632   H647    1.108   .     S
C633   H650    1.107   .     S
C633   H651    1.110   .     S
C633   C955    1.516   1_545 S
C633   H989    1.109   1_545 S
C634   C638    1.409   .     A
C635   C639    1.392   .     A
C636   C637    1.406   .     A
C636   C120    1.411   1_556 S
C636   C131    1.426   1_556 S
C637   C638    1.394   .     A
C638   H659    1.083   .     S
C639   H655    1.079   .     S
C640   H529    1.084   1_655 S
H652   N662    1.030   .     S
H653   C801    1.109   .     S
H654   C120    1.081   1_556 S
H656   C514    1.084   1_655 S
H660   C966    1.111   1_545 S
N661   N662    1.283   .     D
N661   Zn672   2.028   .     S
N662   Zn671   2.028   .     S
O663   Zn671   1.955   .     S
O663   C505    1.283   1_655 S
O664   Zn672   1.969   .     S
O665   Zn671   1.962   .     S
O665   C508    1.292   1_655 S
O666   Zn672   1.928   .     S
O667   Zn671   1.969   .     S
O668   Zn672   1.955   .     S
O669   Zn671   1.928   .     S
O670   Zn672   1.962   .     S
C673   O720    1.301   .     A
C673   C675    1.435   .     S
C673   O831    1.283   1_455 S
C674   C676    1.450   .     S
C674   C690    1.404   .     A
C674   C682    1.401   .     A
C675   C957    1.360   1_455 S
C675   C857    1.516   .     S
C676   O722    1.302   .     A
C676   O833    1.292   1_455 S
C677   C678    1.433   .     S
C678   O723    1.296   .     A
C678   O780    1.287   .     S
C679   C681    1.437   .     S
C679   O725    1.298   .     A
C679   O782    1.292   .     S
C680   C696    1.387   .     A
C681   C696    1.393   .     A
C681   C695    1.381   .     A
C682   C683    1.386   .     A
C682   H824    1.084   1_455 S
C683   C181    1.391   1_556 S
C683   H210    1.083   1_556 S
C684   C690    1.405   .     A
C684   C181    1.421   1_556 S
C684   C187    1.413   1_556 S
C685   H713    1.078   .     S
C686   H698    1.111   .     S
C686   H699    1.103   .     S
C686   C845    1.520   .     S
C686   H884    1.111   .     S
C687   H701    1.108   .     S
C687   H700    1.106   .     S
C687   H702    1.099   .     S
C687   N717    1.439   .     S
C688   C693    1.504   .     S
C688   H705    1.109   .     S
C688   H704    1.110   .     S
C688   H703    1.108   .     S
C689   H706    1.107   .     S
C689   H707    1.110   .     S
C690   C694    1.409   .     A
C691   C695    1.392   .     A
C692   C693    1.406   .     A
C692   C176    1.411   1_556 S
C692   C187    1.426   1_556 S
C693   C694    1.394   .     A
C694   H715    1.083   .     S
C695   H711    1.079   .     S
C696   H753    1.084   .     S
H697   C808    1.084   1_455 S
H708   N718    1.030   .     S
H709   C857    1.109   .     S
H710   C176    1.081   1_556 S
H712   C738    1.084   .     S
N717   N718    1.283   .     D
N717   Zn728   2.028   .     S
N718   Zn727   2.028   .     S
O719   Zn727   1.955   .     S
O719   C729    1.283   .     S
O720   Zn728   1.969   .     S
O721   Zn727   1.962   .     S
O721   C732    1.292   .     S
O722   Zn728   1.928   .     S
O723   Zn727   1.969   .     S
O724   Zn728   1.955   .     S
O724   C790    1.287   1_455 S
O725   Zn727   1.928   .     S
O726   Zn728   1.962   .     S
O726   C791    1.292   1_455 S
C729   O776    1.301   .     A
C729   C731    1.435   .     S
C730   C732    1.450   .     S
C730   C746    1.404   .     A
C730   C738    1.401   .     A
C731   C845    1.360   .     S
C731   C913    1.516   .     S
C732   O778    1.302   .     A
C733   C734    1.433   .     S
C734   O779    1.296   .     A
C734   O836    1.287   .     S
C735   C737    1.437   .     S
C735   O781    1.298   .     A
C735   O838    1.292   .     S
C736   C752    1.387   .     A
C737   C752    1.393   .     A
C737   C751    1.381   .     A
C738   C739    1.386   .     A
C739   C237    1.391   1_556 S
C739   H266    1.083   1_556 S
C740   C746    1.405   .     A
C740   C237    1.421   1_556 S
C740   C243    1.413   1_556 S
C741   H769    1.078   .     S
C742   H754    1.111   .     S
C742   H755    1.103   .     S
C742   C901    1.520   .     S
C742   H940    1.111   .     S
C743   H757    1.108   .     S
C743   H756    1.106   .     S
C743   H758    1.099   .     S
C743   N773    1.439   .     S
C744   C749    1.504   .     S
C744   H761    1.109   .     S
C744   H760    1.110   .     S
C744   H759    1.108   .     S
C745   H762    1.107   .     S
C745   H763    1.110   .     S
C746   C750    1.409   .     A
C747   C751    1.392   .     A
C748   C749    1.406   .     A
C748   C232    1.411   1_556 S
C748   C243    1.426   1_556 S
C749   C750    1.394   .     A
C750   H771    1.083   .     S
C751   H767    1.079   .     S
C752   H809    1.084   .     S
H764   N774    1.030   .     S
H765   C913    1.109   .     S
H766   C232    1.081   1_556 S
H768   C794    1.084   .     S
N773   N774    1.283   .     D
N773   Zn784   2.028   .     S
N774   Zn783   2.028   .     S
O775   Zn783   1.955   .     S
O775   C785    1.283   .     S
O776   Zn784   1.969   .     S
O777   Zn783   1.962   .     S
O777   C788    1.292   .     S
O778   Zn784   1.928   .     S
O779   Zn783   1.969   .     S
O780   Zn784   1.955   .     S
O781   Zn783   1.928   .     S
O782   Zn784   1.962   .     S
C785   O832    1.301   .     A
C785   C787    1.435   .     S
C786   C788    1.450   .     S
C786   C802    1.404   .     A
C786   C794    1.401   .     A
C787   C901    1.360   .     S
C787   C969    1.516   .     S
C788   O834    1.302   .     A
C789   C790    1.433   .     S
C789   C507    1.360   1_655 S
C790   O835    1.296   .     A
C790   O724    1.287   1_655 S
C791   C793    1.437   .     S
C791   O837    1.298   .     A
C791   O726    1.292   1_655 S
C792   C808    1.387   .     A
C793   C808    1.393   .     A
C793   C807    1.381   .     A
C794   C795    1.386   .     A
C795   C293    1.391   1_556 S
C795   H322    1.083   1_556 S
C796   C802    1.405   .     A
C796   C293    1.421   1_556 S
C796   C299    1.413   1_556 S
C797   H825    1.078   .     S
C798   H810    1.111   .     S
C798   H811    1.103   .     S
C798   C957    1.520   .     S
C798   H996    1.111   .     S
C799   H813    1.108   .     S
C799   H812    1.106   .     S
C799   H814    1.099   .     S
C799   N829    1.439   .     S
C800   C805    1.504   .     S
C800   H817    1.109   .     S
C800   H816    1.110   .     S
C800   H815    1.108   .     S
C801   H818    1.107   .     S
C801   H819    1.110   .     S
C802   C806    1.409   .     A
C803   C807    1.392   .     A
C804   C805    1.406   .     A
C804   C288    1.411   1_556 S
C804   C299    1.426   1_556 S
C805   C806    1.394   .     A
C806   H827    1.083   .     S
C807   H823    1.079   .     S
C808   H697    1.084   1_655 S
H820   N830    1.030   .     S
H821   C969    1.109   .     S
H822   C288    1.081   1_556 S
H824   C682    1.084   1_655 S
N829   N830    1.283   .     D
N829   Zn840   2.028   .     S
N830   Zn839   2.028   .     S
O831   Zn839   1.955   .     S
O831   C673    1.283   1_655 S
O832   Zn840   1.969   .     S
O833   Zn839   1.962   .     S
O833   C676    1.292   1_655 S
O834   Zn840   1.928   .     S
O835   Zn839   1.969   .     S
O836   Zn840   1.955   .     S
O837   Zn839   1.928   .     S
O838   Zn840   1.962   .     S
C841   O888    1.301   .     A
C841   C843    1.435   .     S
C841   O999    1.283   1_455 S
C842   C844    1.450   .     S
C842   C858    1.404   .     A
C842   C850    1.401   .     A
C843   C621    1.360   1_465 S
C843   C521    1.516   1_565 S
C844   O890    1.302   .     A
C844   O1001   1.292   1_455 S
C845   C846    1.433   .     S
C846   O891    1.296   .     A
C846   O948    1.287   .     S
C847   C849    1.437   .     S
C847   O893    1.298   .     A
C847   O950    1.292   .     S
C848   C864    1.387   .     A
C849   C864    1.393   .     A
C849   C863    1.381   .     A
C850   C851    1.386   .     A
C850   H992    1.084   1_455 S
C851   C349    1.391   1_556 S
C851   H378    1.083   1_556 S
C852   C858    1.405   .     A
C852   C349    1.421   1_556 S
C852   C355    1.413   1_556 S
C853   H881    1.078   .     S
C854   H866    1.111   .     S
C854   H867    1.103   .     S
C854   C509    1.520   1_565 S
C854   H548    1.111   1_565 S
C855   H869    1.108   .     S
C855   H868    1.106   .     S
C855   H870    1.099   .     S
C855   N885    1.439   .     S
C856   C861    1.504   .     S
C856   H873    1.109   .     S
C856   H872    1.110   .     S
C856   H871    1.108   .     S
C857   H874    1.107   .     S
C857   H875    1.110   .     S
C858   C862    1.409   .     A
C859   C863    1.392   .     A
C860   C861    1.406   .     A
C860   C344    1.411   1_556 S
C860   C355    1.426   1_556 S
C861   C862    1.394   .     A
C862   H883    1.083   .     S
C863   H879    1.079   .     S
C864   H921    1.084   .     S
H865   C976    1.084   1_455 S
H876   N886    1.030   .     S
H877   C521    1.109   1_565 S
H878   C344    1.081   1_556 S
H880   C906    1.084   .     S
N885   N886    1.283   .     D
N885   Zn896   2.028   .     S
N886   Zn895   2.028   .     S
O887   Zn895   1.955   .     S
O887   C897    1.283   .     S
O888   Zn896   1.969   .     S
O889   Zn895   1.962   .     S
O889   C900    1.292   .     S
O890   Zn896   1.928   .     S
O891   Zn895   1.969   .     S
O892   Zn896   1.955   .     S
O892   C958    1.287   1_455 S
O893   Zn895   1.928   .     S
O894   Zn896   1.962   .     S
O894   C959    1.292   1_455 S
C897   O944    1.301   .     A
C897   C899    1.435   .     S
C898   C900    1.450   .     S
C898   C914    1.404   .     A
C898   C906    1.401   .     A
C899   C509    1.360   1_565 S
C899   C577    1.516   1_565 S
C900   O946    1.302   .     A
C901   C902    1.433   .     S
C902   O947    1.296   .     A
C902   O1004   1.287   .     S
C903   C905    1.437   .     S
C903   O949    1.298   .     A
C903   O1006   1.292   .     S
C904   C920    1.387   .     A
C905   C920    1.393   .     A
C905   C919    1.381   .     A
C906   C907    1.386   .     A
C907   C405    1.391   1_556 S
C907   H434    1.083   1_556 S
C908   C914    1.405   .     A
C908   C405    1.421   1_556 S
C908   C411    1.413   1_556 S
C909   H937    1.078   .     S
C910   H922    1.111   .     S
C910   H923    1.103   .     S
C910   C565    1.520   1_565 S
C910   H604    1.111   1_565 S
C911   H925    1.108   .     S
C911   H924    1.106   .     S
C911   H926    1.099   .     S
C911   N941    1.439   .     S
C912   C917    1.504   .     S
C912   H929    1.109   .     S
C912   H928    1.110   .     S
C912   H927    1.108   .     S
C913   H930    1.107   .     S
C913   H931    1.110   .     S
C914   C918    1.409   .     A
C915   C919    1.392   .     A
C916   C917    1.406   .     A
C916   C400    1.411   1_556 S
C916   C411    1.426   1_556 S
C917   C918    1.394   .     A
C918   H939    1.083   .     S
C919   H935    1.079   .     S
C920   H977    1.084   .     S
H932   N942    1.030   .     S
H933   C577    1.109   1_565 S
H934   C400    1.081   1_556 S
H936   C962    1.084   .     S
N941   N942    1.283   .     D
N941   Zn952   2.028   .     S
N942   Zn951   2.028   .     S
O943   Zn951   1.955   .     S
O943   C953    1.283   .     S
O944   Zn952   1.969   .     S
O945   Zn951   1.962   .     S
O945   C956    1.292   .     S
O946   Zn952   1.928   .     S
O947   Zn951   1.969   .     S
O948   Zn952   1.955   .     S
O949   Zn951   1.928   .     S
O950   Zn952   1.962   .     S
C953   O1000   1.301   .     A
C953   C955    1.435   .     S
C954   C956    1.450   .     S
C954   C970    1.404   .     A
C954   C962    1.401   .     A
C955   C565    1.360   1_565 S
C955   C633    1.516   1_565 S
C956   O1002   1.302   .     A
C957   C958    1.433   .     S
C957   C675    1.360   1_655 S
C958   O1003   1.296   .     A
C958   O892    1.287   1_655 S
C959   C961    1.437   .     S
C959   O1005   1.298   .     A
C959   O894    1.292   1_655 S
C960   C976    1.387   .     A
C961   C976    1.393   .     A
C961   C975    1.381   .     A
C962   C963    1.386   .     A
C963   C461    1.391   1_556 S
C963   H490    1.083   1_556 S
C964   C970    1.405   .     A
C964   C461    1.421   1_556 S
C964   C467    1.413   1_556 S
C965   H993    1.078   .     S
C966   H978    1.111   .     S
C966   H979    1.103   .     S
C966   C621    1.520   1_565 S
C966   H660    1.111   1_565 S
C967   H981    1.108   .     S
C967   H980    1.106   .     S
C967   H982    1.099   .     S
C967   N997    1.439   .     S
C968   C973    1.504   .     S
C968   H985    1.109   .     S
C968   H984    1.110   .     S
C968   H983    1.108   .     S
C969   H986    1.107   .     S
C969   H987    1.110   .     S
C970   C974    1.409   .     A
C971   C975    1.392   .     A
C972   C973    1.406   .     A
C972   C456    1.411   1_556 S
C972   C467    1.426   1_556 S
C973   C974    1.394   .     A
C974   H995    1.083   .     S
C975   H991    1.079   .     S
C976   H865    1.084   1_655 S
H988   N998    1.030   .     S
H989   C633    1.109   1_565 S
H990   C456    1.081   1_556 S
H992   C850    1.084   1_655 S
N997   N998    1.283   .     D
N997   Zn1008  2.028   .     S
N998   Zn1007  2.028   .     S
O999   Zn1007  1.955   .     S
O999   C841    1.283   1_655 S
O1000  Zn1008  1.969   .     S
O1001  Zn1007  1.962   .     S
O1001  C844    1.292   1_655 S
O1002  Zn1008  1.928   .     S
O1003  Zn1007  1.969   .     S
O1004  Zn1008  1.955   .     S
O1005  Zn1007  1.928   .     S
O1006  Zn1008  1.962   .     S
