data_str_m3_o1_o17_pcu_sym.105
_audit_creation_date              2020-01-03
_audit_creation_method            'Materials Studio'
_symmetry_space_group_name_H-M    'P1'
_symmetry_Int_Tables_number       1
_symmetry_cell_setting            triclinic
loop_
_symmetry_equiv_pos_as_xyz
  x,y,z
_cell_length_a                    32.1026
_cell_length_b                    29.5410
_cell_length_c                    29.8380
_cell_angle_alpha                 89.8184
_cell_angle_beta                  89.9365
_cell_angle_gamma                 89.8919
loop_
_atom_site_label
_atom_site_type_symbol
_atom_site_fract_x
_atom_site_fract_y
_atom_site_fract_z
_atom_site_U_iso_or_equiv
_atom_site_adp_type
_atom_site_occupancy
C1     C     0.08664   0.16670   0.24968   0.00000  Uiso   1.00
C2     C     0.24669   0.16663   0.25032   0.00000  Uiso   1.00
C3     C     0.09262   0.15415   0.02629   0.00000  Uiso   1.00
C4     C     0.24071   0.17918   0.47371   0.00000  Uiso   1.00
C5     C     0.02139   0.12677   0.23951   0.00000  Uiso   1.00
C6     C     0.31194   0.20657   0.26049   0.00000  Uiso   1.00
C7     C     0.31207   0.12667   0.23991   0.00000  Uiso   1.00
C8     C     0.02126   0.20666   0.26009   0.00000  Uiso   1.00
C9     C     0.29084   0.16659   0.25036   0.00000  Uiso   1.00
C10    C     0.04249   0.16675   0.24964   0.00000  Uiso   1.00
C11    C     0.19415   0.02384   0.27596   0.00000  Uiso   1.00
C12    C     0.13918   0.30950   0.22404   0.00000  Uiso   1.00
C13    C     0.13918   0.02412   0.22404   0.00000  Uiso   1.00
C14    C     0.19415   0.30922   0.27596   0.00000  Uiso   1.00
C15    C     0.16714   0.16675   0.16358   0.00000  Uiso   1.00
C16    C     0.16619   0.16659   0.33642   0.00000  Uiso   1.00
C17    C     0.20234   0.16991   0.40611   0.00000  Uiso   1.00
C18    C     0.13099   0.16343   0.09389   0.00000  Uiso   1.00
C19    C     0.16475   0.16626   0.38403   0.00000  Uiso   1.00
C20    C     0.16858   0.16707   0.11597   0.00000  Uiso   1.00
C21    C     0.12659   0.16311   0.40664   0.00000  Uiso   1.00
C22    C     0.20674   0.17022   0.09336   0.00000  Uiso   1.00
C23    C     0.12678   0.16005   0.45394   0.00000  Uiso   1.00
C24    C     0.20656   0.17328   0.04606   0.00000  Uiso   1.00
C25    C     0.16572   0.16617   0.47653   0.00000  Uiso   1.00
C26    C     0.16761   0.16717   0.02347   0.00000  Uiso   1.00
C27    C     0.20303   0.17132   0.45218   0.00000  Uiso   1.00
C28    C     0.13030   0.16201   0.04782   0.00000  Uiso   1.00
C29    C     0.09047   0.15156   0.47999   0.00000  Uiso   1.00
C30    C     0.24286   0.18178   0.02001   0.00000  Uiso   1.00
H31    H     0.23105   0.17308   0.38703   0.00000  Uiso   1.00
H32    H     0.10228   0.16025   0.11297   0.00000  Uiso   1.00
H33    H     0.06465   0.14822   0.04589   0.00000  Uiso   1.00
H34    H     0.26868   0.18511   0.45411   0.00000  Uiso   1.00
N35    N     0.16667   0.28573   0.25000   0.00000  Uiso   1.00
N36    N     0.16667   0.04760   0.25000   0.00000  Uiso   1.00
O37    O     0.10559   0.20487   0.24999   0.00000  Uiso   1.00
O38    O     0.22774   0.12846   0.25001   0.00000  Uiso   1.00
O39    O     0.22774   0.20487   0.25001   0.00000  Uiso   1.00
O40    O     0.10559   0.12846   0.25000   0.00000  Uiso   1.00
O41    O     0.16666   0.20489   0.18392   0.00000  Uiso   1.00
O42    O     0.16667   0.12844   0.31608   0.00000  Uiso   1.00
O43    O     0.16667   0.20489   0.31608   0.00000  Uiso   1.00
O44    O     0.16666   0.12844   0.18393   0.00000  Uiso   1.00
Zn45   Zn    0.16667   0.21771   0.25000   0.00000  Uiso   1.00
Zn46   Zn    0.16667   0.11563   0.25000   0.00000  Uiso   1.00
Br47   Br    0.07681   0.17117   0.37081   0.00000  Uiso   1.00
Br48   Br    0.25652   0.16216   0.12919   0.00000  Uiso   1.00
Br49   Br    0.03792   0.12891   0.45863   0.00000  Uiso   1.00
Br50   Br    0.29542   0.20443   0.04137   0.00000  Uiso   1.00
H51    H     0.03772   0.09580   0.23106   0.00000  Uiso   1.00
H52    H     0.29562   0.23753   0.26894   0.00000  Uiso   1.00
H53    H     0.29584   0.09567   0.23166   0.00000  Uiso   1.00
H54    H     0.03749   0.23766   0.26834   0.00000  Uiso   1.00
H55    H     0.21613   0.04188   0.29673   0.00000  Uiso   1.00
H56    H     0.11721   0.29145   0.20327   0.00000  Uiso   1.00
H57    H     0.11721   0.04239   0.20327   0.00000  Uiso   1.00
H58    H     0.21613   0.29095   0.29673   0.00000  Uiso   1.00
C59    C     0.41997   0.16670   0.24968   0.00000  Uiso   1.00
C60    C     0.58003   0.16663   0.25032   0.00000  Uiso   1.00
C61    C     0.42596   0.15415   0.02629   0.00000  Uiso   1.00
C62    C     0.57404   0.17918   0.47371   0.00000  Uiso   1.00
C63    C     0.35472   0.12677   0.23951   0.00000  Uiso   1.00
C64    C     0.64528   0.20657   0.26049   0.00000  Uiso   1.00
C65    C     0.64541   0.12667   0.23991   0.00000  Uiso   1.00
C66    C     0.35460   0.20666   0.26009   0.00000  Uiso   1.00
C67    C     0.62418   0.16659   0.25036   0.00000  Uiso   1.00
C68    C     0.37582   0.16675   0.24964   0.00000  Uiso   1.00
C69    C     0.52748   0.02384   0.27596   0.00000  Uiso   1.00
C70    C     0.47252   0.30950   0.22404   0.00000  Uiso   1.00
C71    C     0.47251   0.02412   0.22404   0.00000  Uiso   1.00
C72    C     0.52749   0.30922   0.27596   0.00000  Uiso   1.00
C73    C     0.50048   0.16675   0.16358   0.00000  Uiso   1.00
C74    C     0.49952   0.16659   0.33642   0.00000  Uiso   1.00
C75    C     0.53568   0.16991   0.40611   0.00000  Uiso   1.00
C76    C     0.46432   0.16343   0.09389   0.00000  Uiso   1.00
C77    C     0.49809   0.16626   0.38403   0.00000  Uiso   1.00
C78    C     0.50191   0.16707   0.11597   0.00000  Uiso   1.00
C79    C     0.45993   0.16311   0.40664   0.00000  Uiso   1.00
C80    C     0.54007   0.17022   0.09336   0.00000  Uiso   1.00
C81    C     0.46011   0.16005   0.45394   0.00000  Uiso   1.00
C82    C     0.53989   0.17328   0.04606   0.00000  Uiso   1.00
C83    C     0.49906   0.16617   0.47653   0.00000  Uiso   1.00
C84    C     0.50094   0.16717   0.02347   0.00000  Uiso   1.00
C85    C     0.53636   0.17132   0.45218   0.00000  Uiso   1.00
C86    C     0.46364   0.16201   0.04782   0.00000  Uiso   1.00
C87    C     0.42381   0.15156   0.47999   0.00000  Uiso   1.00
C88    C     0.57619   0.18178   0.02001   0.00000  Uiso   1.00
H89    H     0.56439   0.17308   0.38703   0.00000  Uiso   1.00
H90    H     0.43561   0.16025   0.11297   0.00000  Uiso   1.00
H91    H     0.39799   0.14822   0.04589   0.00000  Uiso   1.00
H92    H     0.60201   0.18511   0.45411   0.00000  Uiso   1.00
N93    N     0.50000   0.28573   0.25000   0.00000  Uiso   1.00
N94    N     0.50000   0.04760   0.25000   0.00000  Uiso   1.00
O95    O     0.43892   0.20487   0.24999   0.00000  Uiso   1.00
O96    O     0.56108   0.12846   0.25001   0.00000  Uiso   1.00
O97    O     0.56108   0.20487   0.25001   0.00000  Uiso   1.00
O98    O     0.43892   0.12846   0.25000   0.00000  Uiso   1.00
O99    O     0.49999   0.20489   0.18392   0.00000  Uiso   1.00
O100   O     0.50001   0.12844   0.31608   0.00000  Uiso   1.00
O101   O     0.50001   0.20489   0.31608   0.00000  Uiso   1.00
O102   O     0.49999   0.12844   0.18393   0.00000  Uiso   1.00
Zn103  Zn    0.50000   0.21771   0.25000   0.00000  Uiso   1.00
Zn104  Zn    0.50000   0.11563   0.25000   0.00000  Uiso   1.00
Br105  Br    0.41014   0.17117   0.37081   0.00000  Uiso   1.00
Br106  Br    0.58986   0.16216   0.12919   0.00000  Uiso   1.00
Br107  Br    0.37125   0.12891   0.45863   0.00000  Uiso   1.00
Br108  Br    0.62875   0.20443   0.04137   0.00000  Uiso   1.00
H109   H     0.37105   0.09580   0.23106   0.00000  Uiso   1.00
H110   H     0.62895   0.23753   0.26894   0.00000  Uiso   1.00
H111   H     0.62918   0.09567   0.23166   0.00000  Uiso   1.00
H112   H     0.37082   0.23766   0.26834   0.00000  Uiso   1.00
H113   H     0.54946   0.04188   0.29673   0.00000  Uiso   1.00
H114   H     0.45054   0.29145   0.20327   0.00000  Uiso   1.00
H115   H     0.45054   0.04239   0.20327   0.00000  Uiso   1.00
H116   H     0.54946   0.29095   0.29673   0.00000  Uiso   1.00
C117   C     0.75331   0.16670   0.24968   0.00000  Uiso   1.00
C118   C     0.91336   0.16663   0.25032   0.00000  Uiso   1.00
C119   C     0.75929   0.15415   0.02629   0.00000  Uiso   1.00
C120   C     0.90738   0.17918   0.47371   0.00000  Uiso   1.00
C121   C     0.68806   0.12677   0.23951   0.00000  Uiso   1.00
C122   C     0.97861   0.20657   0.26049   0.00000  Uiso   1.00
C123   C     0.97874   0.12667   0.23991   0.00000  Uiso   1.00
C124   C     0.68793   0.20666   0.26009   0.00000  Uiso   1.00
C125   C     0.95751   0.16659   0.25036   0.00000  Uiso   1.00
C126   C     0.70916   0.16675   0.24964   0.00000  Uiso   1.00
C127   C     0.86082   0.02384   0.27596   0.00000  Uiso   1.00
C128   C     0.80585   0.30950   0.22404   0.00000  Uiso   1.00
C129   C     0.80585   0.02412   0.22404   0.00000  Uiso   1.00
C130   C     0.86082   0.30922   0.27596   0.00000  Uiso   1.00
C131   C     0.83381   0.16675   0.16358   0.00000  Uiso   1.00
C132   C     0.83286   0.16659   0.33642   0.00000  Uiso   1.00
C133   C     0.86901   0.16991   0.40611   0.00000  Uiso   1.00
C134   C     0.79766   0.16343   0.09389   0.00000  Uiso   1.00
C135   C     0.83142   0.16626   0.38403   0.00000  Uiso   1.00
C136   C     0.83525   0.16707   0.11597   0.00000  Uiso   1.00
C137   C     0.79326   0.16311   0.40664   0.00000  Uiso   1.00
C138   C     0.87341   0.17022   0.09336   0.00000  Uiso   1.00
C139   C     0.79344   0.16005   0.45394   0.00000  Uiso   1.00
C140   C     0.87323   0.17328   0.04606   0.00000  Uiso   1.00
C141   C     0.83239   0.16617   0.47653   0.00000  Uiso   1.00
C142   C     0.83428   0.16717   0.02347   0.00000  Uiso   1.00
C143   C     0.86970   0.17132   0.45218   0.00000  Uiso   1.00
C144   C     0.79697   0.16201   0.04782   0.00000  Uiso   1.00
C145   C     0.75714   0.15156   0.47999   0.00000  Uiso   1.00
C146   C     0.90953   0.18178   0.02001   0.00000  Uiso   1.00
H147   H     0.89772   0.17308   0.38703   0.00000  Uiso   1.00
H148   H     0.76895   0.16025   0.11297   0.00000  Uiso   1.00
H149   H     0.73132   0.14822   0.04589   0.00000  Uiso   1.00
H150   H     0.93535   0.18511   0.45411   0.00000  Uiso   1.00
N151   N     0.83333   0.28573   0.25000   0.00000  Uiso   1.00
N152   N     0.83333   0.04760   0.25000   0.00000  Uiso   1.00
O153   O     0.77226   0.20487   0.24999   0.00000  Uiso   1.00
O154   O     0.89441   0.12846   0.25001   0.00000  Uiso   1.00
O155   O     0.89441   0.20487   0.25001   0.00000  Uiso   1.00
O156   O     0.77226   0.12846   0.25000   0.00000  Uiso   1.00
O157   O     0.83333   0.20489   0.18392   0.00000  Uiso   1.00
O158   O     0.83334   0.12844   0.31608   0.00000  Uiso   1.00
O159   O     0.83334   0.20489   0.31608   0.00000  Uiso   1.00
O160   O     0.83333   0.12844   0.18393   0.00000  Uiso   1.00
Zn161  Zn    0.83333   0.21771   0.25000   0.00000  Uiso   1.00
Zn162  Zn    0.83333   0.11563   0.25000   0.00000  Uiso   1.00
Br163  Br    0.74348   0.17117   0.37081   0.00000  Uiso   1.00
Br164  Br    0.92319   0.16216   0.12919   0.00000  Uiso   1.00
Br165  Br    0.70458   0.12891   0.45863   0.00000  Uiso   1.00
Br166  Br    0.96208   0.20443   0.04137   0.00000  Uiso   1.00
H167   H     0.70438   0.09580   0.23106   0.00000  Uiso   1.00
H168   H     0.96228   0.23753   0.26894   0.00000  Uiso   1.00
H169   H     0.96251   0.09567   0.23166   0.00000  Uiso   1.00
H170   H     0.70416   0.23766   0.26834   0.00000  Uiso   1.00
H171   H     0.88279   0.04188   0.29673   0.00000  Uiso   1.00
H172   H     0.78387   0.29145   0.20327   0.00000  Uiso   1.00
H173   H     0.78387   0.04239   0.20327   0.00000  Uiso   1.00
H174   H     0.88279   0.29095   0.29673   0.00000  Uiso   1.00
C175   C     0.08664   0.50003   0.24968   0.00000  Uiso   1.00
C176   C     0.24669   0.49997   0.25032   0.00000  Uiso   1.00
C177   C     0.09262   0.48748   0.02629   0.00000  Uiso   1.00
C178   C     0.24071   0.51252   0.47371   0.00000  Uiso   1.00
C179   C     0.02139   0.46010   0.23951   0.00000  Uiso   1.00
C180   C     0.31194   0.53990   0.26049   0.00000  Uiso   1.00
C181   C     0.31207   0.46001   0.23991   0.00000  Uiso   1.00
C182   C     0.02126   0.53999   0.26009   0.00000  Uiso   1.00
C183   C     0.29084   0.49992   0.25036   0.00000  Uiso   1.00
C184   C     0.04249   0.50008   0.24964   0.00000  Uiso   1.00
C185   C     0.19415   0.35717   0.27596   0.00000  Uiso   1.00
C186   C     0.13918   0.64283   0.22404   0.00000  Uiso   1.00
C187   C     0.13918   0.35745   0.22404   0.00000  Uiso   1.00
C188   C     0.19415   0.64255   0.27596   0.00000  Uiso   1.00
C189   C     0.16714   0.50008   0.16358   0.00000  Uiso   1.00
C190   C     0.16619   0.49992   0.33642   0.00000  Uiso   1.00
C191   C     0.20234   0.50324   0.40611   0.00000  Uiso   1.00
C192   C     0.13099   0.49676   0.09389   0.00000  Uiso   1.00
C193   C     0.16475   0.49960   0.38403   0.00000  Uiso   1.00
C194   C     0.16858   0.50040   0.11597   0.00000  Uiso   1.00
C195   C     0.12659   0.49644   0.40664   0.00000  Uiso   1.00
C196   C     0.20674   0.50356   0.09336   0.00000  Uiso   1.00
C197   C     0.12678   0.49338   0.45394   0.00000  Uiso   1.00
C198   C     0.20656   0.50662   0.04606   0.00000  Uiso   1.00
C199   C     0.16572   0.49950   0.47653   0.00000  Uiso   1.00
C200   C     0.16761   0.50050   0.02347   0.00000  Uiso   1.00
C201   C     0.20303   0.50466   0.45218   0.00000  Uiso   1.00
C202   C     0.13030   0.49534   0.04782   0.00000  Uiso   1.00
C203   C     0.09047   0.48489   0.47999   0.00000  Uiso   1.00
C204   C     0.24286   0.51511   0.02001   0.00000  Uiso   1.00
H205   H     0.23105   0.50642   0.38703   0.00000  Uiso   1.00
H206   H     0.10228   0.49358   0.11297   0.00000  Uiso   1.00
H207   H     0.06465   0.48155   0.04589   0.00000  Uiso   1.00
H208   H     0.26868   0.51845   0.45411   0.00000  Uiso   1.00
N209   N     0.16667   0.61907   0.25000   0.00000  Uiso   1.00
N210   N     0.16667   0.38093   0.25000   0.00000  Uiso   1.00
O211   O     0.10559   0.53821   0.24999   0.00000  Uiso   1.00
O212   O     0.22774   0.46179   0.25001   0.00000  Uiso   1.00
O213   O     0.22774   0.53821   0.25001   0.00000  Uiso   1.00
O214   O     0.10559   0.46179   0.25000   0.00000  Uiso   1.00
O215   O     0.16666   0.53823   0.18392   0.00000  Uiso   1.00
O216   O     0.16667   0.46177   0.31608   0.00000  Uiso   1.00
O217   O     0.16667   0.53823   0.31608   0.00000  Uiso   1.00
O218   O     0.16666   0.46177   0.18393   0.00000  Uiso   1.00
Zn219  Zn    0.16667   0.55104   0.25000   0.00000  Uiso   1.00
Zn220  Zn    0.16667   0.44896   0.25000   0.00000  Uiso   1.00
Br221  Br    0.07681   0.50451   0.37081   0.00000  Uiso   1.00
Br222  Br    0.25652   0.49549   0.12919   0.00000  Uiso   1.00
Br223  Br    0.03792   0.46224   0.45863   0.00000  Uiso   1.00
Br224  Br    0.29542   0.53776   0.04137   0.00000  Uiso   1.00
H225   H     0.03772   0.42913   0.23106   0.00000  Uiso   1.00
H226   H     0.29562   0.57087   0.26894   0.00000  Uiso   1.00
H227   H     0.29584   0.42901   0.23166   0.00000  Uiso   1.00
H228   H     0.03749   0.57100   0.26834   0.00000  Uiso   1.00
H229   H     0.21613   0.37522   0.29673   0.00000  Uiso   1.00
H230   H     0.11721   0.62478   0.20327   0.00000  Uiso   1.00
H231   H     0.11721   0.37572   0.20327   0.00000  Uiso   1.00
H232   H     0.21613   0.62428   0.29673   0.00000  Uiso   1.00
C233   C     0.41997   0.50003   0.24968   0.00000  Uiso   1.00
C234   C     0.58003   0.49997   0.25032   0.00000  Uiso   1.00
C235   C     0.42596   0.48748   0.02629   0.00000  Uiso   1.00
C236   C     0.57404   0.51252   0.47371   0.00000  Uiso   1.00
C237   C     0.35472   0.46010   0.23951   0.00000  Uiso   1.00
C238   C     0.64528   0.53990   0.26049   0.00000  Uiso   1.00
C239   C     0.64541   0.46001   0.23991   0.00000  Uiso   1.00
C240   C     0.35460   0.53999   0.26009   0.00000  Uiso   1.00
C241   C     0.62418   0.49992   0.25036   0.00000  Uiso   1.00
C242   C     0.37582   0.50008   0.24964   0.00000  Uiso   1.00
C243   C     0.52748   0.35717   0.27596   0.00000  Uiso   1.00
C244   C     0.47252   0.64283   0.22404   0.00000  Uiso   1.00
C245   C     0.47251   0.35745   0.22404   0.00000  Uiso   1.00
C246   C     0.52749   0.64255   0.27596   0.00000  Uiso   1.00
C247   C     0.50048   0.50008   0.16358   0.00000  Uiso   1.00
C248   C     0.49952   0.49992   0.33642   0.00000  Uiso   1.00
C249   C     0.53568   0.50324   0.40611   0.00000  Uiso   1.00
C250   C     0.46432   0.49676   0.09389   0.00000  Uiso   1.00
C251   C     0.49809   0.49960   0.38403   0.00000  Uiso   1.00
C252   C     0.50191   0.50040   0.11597   0.00000  Uiso   1.00
C253   C     0.45993   0.49644   0.40664   0.00000  Uiso   1.00
C254   C     0.54007   0.50356   0.09336   0.00000  Uiso   1.00
C255   C     0.46011   0.49338   0.45394   0.00000  Uiso   1.00
C256   C     0.53989   0.50662   0.04606   0.00000  Uiso   1.00
C257   C     0.49906   0.49950   0.47653   0.00000  Uiso   1.00
C258   C     0.50094   0.50050   0.02347   0.00000  Uiso   1.00
C259   C     0.53636   0.50466   0.45218   0.00000  Uiso   1.00
C260   C     0.46364   0.49534   0.04782   0.00000  Uiso   1.00
C261   C     0.42381   0.48489   0.47999   0.00000  Uiso   1.00
C262   C     0.57619   0.51511   0.02001   0.00000  Uiso   1.00
H263   H     0.56439   0.50642   0.38703   0.00000  Uiso   1.00
H264   H     0.43561   0.49358   0.11297   0.00000  Uiso   1.00
H265   H     0.39799   0.48155   0.04589   0.00000  Uiso   1.00
H266   H     0.60201   0.51845   0.45411   0.00000  Uiso   1.00
N267   N     0.50000   0.61907   0.25000   0.00000  Uiso   1.00
N268   N     0.50000   0.38093   0.25000   0.00000  Uiso   1.00
O269   O     0.43892   0.53821   0.24999   0.00000  Uiso   1.00
O270   O     0.56108   0.46179   0.25001   0.00000  Uiso   1.00
O271   O     0.56108   0.53821   0.25001   0.00000  Uiso   1.00
O272   O     0.43892   0.46179   0.25000   0.00000  Uiso   1.00
O273   O     0.49999   0.53823   0.18392   0.00000  Uiso   1.00
O274   O     0.50001   0.46177   0.31608   0.00000  Uiso   1.00
O275   O     0.50001   0.53823   0.31608   0.00000  Uiso   1.00
O276   O     0.49999   0.46177   0.18393   0.00000  Uiso   1.00
Zn277  Zn    0.50000   0.55104   0.25000   0.00000  Uiso   1.00
Zn278  Zn    0.50000   0.44896   0.25000   0.00000  Uiso   1.00
Br279  Br    0.41014   0.50451   0.37081   0.00000  Uiso   1.00
Br280  Br    0.58986   0.49549   0.12919   0.00000  Uiso   1.00
Br281  Br    0.37125   0.46224   0.45863   0.00000  Uiso   1.00
Br282  Br    0.62875   0.53776   0.04137   0.00000  Uiso   1.00
H283   H     0.37105   0.42913   0.23106   0.00000  Uiso   1.00
H284   H     0.62895   0.57087   0.26894   0.00000  Uiso   1.00
H285   H     0.62918   0.42901   0.23166   0.00000  Uiso   1.00
H286   H     0.37082   0.57100   0.26834   0.00000  Uiso   1.00
H287   H     0.54946   0.37522   0.29673   0.00000  Uiso   1.00
H288   H     0.45054   0.62478   0.20327   0.00000  Uiso   1.00
H289   H     0.45054   0.37572   0.20327   0.00000  Uiso   1.00
H290   H     0.54946   0.62428   0.29673   0.00000  Uiso   1.00
C291   C     0.75331   0.50003   0.24968   0.00000  Uiso   1.00
C292   C     0.91336   0.49997   0.25032   0.00000  Uiso   1.00
C293   C     0.75929   0.48748   0.02629   0.00000  Uiso   1.00
C294   C     0.90738   0.51252   0.47371   0.00000  Uiso   1.00
C295   C     0.68806   0.46010   0.23951   0.00000  Uiso   1.00
C296   C     0.97861   0.53990   0.26049   0.00000  Uiso   1.00
C297   C     0.97874   0.46001   0.23991   0.00000  Uiso   1.00
C298   C     0.68793   0.53999   0.26009   0.00000  Uiso   1.00
C299   C     0.95751   0.49992   0.25036   0.00000  Uiso   1.00
C300   C     0.70916   0.50008   0.24964   0.00000  Uiso   1.00
C301   C     0.86082   0.35717   0.27596   0.00000  Uiso   1.00
C302   C     0.80585   0.64283   0.22404   0.00000  Uiso   1.00
C303   C     0.80585   0.35745   0.22404   0.00000  Uiso   1.00
C304   C     0.86082   0.64255   0.27596   0.00000  Uiso   1.00
C305   C     0.83381   0.50008   0.16358   0.00000  Uiso   1.00
C306   C     0.83286   0.49992   0.33642   0.00000  Uiso   1.00
C307   C     0.86901   0.50324   0.40611   0.00000  Uiso   1.00
C308   C     0.79766   0.49676   0.09389   0.00000  Uiso   1.00
C309   C     0.83142   0.49960   0.38403   0.00000  Uiso   1.00
C310   C     0.83525   0.50040   0.11597   0.00000  Uiso   1.00
C311   C     0.79326   0.49644   0.40664   0.00000  Uiso   1.00
C312   C     0.87341   0.50356   0.09336   0.00000  Uiso   1.00
C313   C     0.79344   0.49338   0.45394   0.00000  Uiso   1.00
C314   C     0.87323   0.50662   0.04606   0.00000  Uiso   1.00
C315   C     0.83239   0.49950   0.47653   0.00000  Uiso   1.00
C316   C     0.83428   0.50050   0.02347   0.00000  Uiso   1.00
C317   C     0.86970   0.50466   0.45218   0.00000  Uiso   1.00
C318   C     0.79697   0.49534   0.04782   0.00000  Uiso   1.00
C319   C     0.75714   0.48489   0.47999   0.00000  Uiso   1.00
C320   C     0.90953   0.51511   0.02001   0.00000  Uiso   1.00
H321   H     0.89772   0.50642   0.38703   0.00000  Uiso   1.00
H322   H     0.76895   0.49358   0.11297   0.00000  Uiso   1.00
H323   H     0.73132   0.48155   0.04589   0.00000  Uiso   1.00
H324   H     0.93535   0.51845   0.45411   0.00000  Uiso   1.00
N325   N     0.83333   0.61907   0.25000   0.00000  Uiso   1.00
N326   N     0.83333   0.38093   0.25000   0.00000  Uiso   1.00
O327   O     0.77226   0.53821   0.24999   0.00000  Uiso   1.00
O328   O     0.89441   0.46179   0.25001   0.00000  Uiso   1.00
O329   O     0.89441   0.53821   0.25001   0.00000  Uiso   1.00
O330   O     0.77226   0.46179   0.25000   0.00000  Uiso   1.00
O331   O     0.83333   0.53823   0.18392   0.00000  Uiso   1.00
O332   O     0.83334   0.46177   0.31608   0.00000  Uiso   1.00
O333   O     0.83334   0.53823   0.31608   0.00000  Uiso   1.00
O334   O     0.83333   0.46177   0.18393   0.00000  Uiso   1.00
Zn335  Zn    0.83333   0.55104   0.25000   0.00000  Uiso   1.00
Zn336  Zn    0.83333   0.44896   0.25000   0.00000  Uiso   1.00
Br337  Br    0.74348   0.50451   0.37081   0.00000  Uiso   1.00
Br338  Br    0.92319   0.49549   0.12919   0.00000  Uiso   1.00
Br339  Br    0.70458   0.46224   0.45863   0.00000  Uiso   1.00
Br340  Br    0.96208   0.53776   0.04137   0.00000  Uiso   1.00
H341   H     0.70438   0.42913   0.23106   0.00000  Uiso   1.00
H342   H     0.96228   0.57087   0.26894   0.00000  Uiso   1.00
H343   H     0.96251   0.42901   0.23166   0.00000  Uiso   1.00
H344   H     0.70416   0.57100   0.26834   0.00000  Uiso   1.00
H345   H     0.88279   0.37522   0.29673   0.00000  Uiso   1.00
H346   H     0.78387   0.62478   0.20327   0.00000  Uiso   1.00
H347   H     0.78387   0.37572   0.20327   0.00000  Uiso   1.00
H348   H     0.88279   0.62428   0.29673   0.00000  Uiso   1.00
C349   C     0.08664   0.83337   0.24968   0.00000  Uiso   1.00
C350   C     0.24669   0.83330   0.25032   0.00000  Uiso   1.00
C351   C     0.09262   0.82082   0.02629   0.00000  Uiso   1.00
C352   C     0.24071   0.84585   0.47371   0.00000  Uiso   1.00
C353   C     0.02139   0.79343   0.23951   0.00000  Uiso   1.00
C354   C     0.31194   0.87324   0.26049   0.00000  Uiso   1.00
C355   C     0.31207   0.79334   0.23991   0.00000  Uiso   1.00
C356   C     0.02126   0.87333   0.26009   0.00000  Uiso   1.00
C357   C     0.29084   0.83325   0.25036   0.00000  Uiso   1.00
C358   C     0.04249   0.83341   0.24964   0.00000  Uiso   1.00
C359   C     0.19415   0.69050   0.27596   0.00000  Uiso   1.00
C360   C     0.13918   0.97616   0.22404   0.00000  Uiso   1.00
C361   C     0.13918   0.69078   0.22404   0.00000  Uiso   1.00
C362   C     0.19415   0.97588   0.27596   0.00000  Uiso   1.00
C363   C     0.16714   0.83341   0.16358   0.00000  Uiso   1.00
C364   C     0.16619   0.83325   0.33642   0.00000  Uiso   1.00
C365   C     0.20234   0.83657   0.40611   0.00000  Uiso   1.00
C366   C     0.13099   0.83009   0.09389   0.00000  Uiso   1.00
C367   C     0.16475   0.83293   0.38403   0.00000  Uiso   1.00
C368   C     0.16858   0.83374   0.11597   0.00000  Uiso   1.00
C369   C     0.12659   0.82978   0.40664   0.00000  Uiso   1.00
C370   C     0.20674   0.83689   0.09336   0.00000  Uiso   1.00
C371   C     0.12678   0.82672   0.45394   0.00000  Uiso   1.00
C372   C     0.20656   0.83995   0.04606   0.00000  Uiso   1.00
C373   C     0.16572   0.83283   0.47653   0.00000  Uiso   1.00
C374   C     0.16761   0.83383   0.02347   0.00000  Uiso   1.00
C375   C     0.20303   0.83799   0.45218   0.00000  Uiso   1.00
C376   C     0.13030   0.82868   0.04782   0.00000  Uiso   1.00
C377   C     0.09047   0.81822   0.47999   0.00000  Uiso   1.00
C378   C     0.24286   0.84844   0.02001   0.00000  Uiso   1.00
H379   H     0.23105   0.83975   0.38703   0.00000  Uiso   1.00
H380   H     0.10228   0.82692   0.11297   0.00000  Uiso   1.00
H381   H     0.06465   0.81489   0.04589   0.00000  Uiso   1.00
H382   H     0.26868   0.85178   0.45411   0.00000  Uiso   1.00
N383   N     0.16667   0.95240   0.25000   0.00000  Uiso   1.00
N384   N     0.16667   0.71427   0.25000   0.00000  Uiso   1.00
O385   O     0.10559   0.87154   0.24999   0.00000  Uiso   1.00
O386   O     0.22774   0.79513   0.25001   0.00000  Uiso   1.00
O387   O     0.22774   0.87154   0.25001   0.00000  Uiso   1.00
O388   O     0.10559   0.79513   0.25000   0.00000  Uiso   1.00
O389   O     0.16666   0.87156   0.18392   0.00000  Uiso   1.00
O390   O     0.16667   0.79511   0.31608   0.00000  Uiso   1.00
O391   O     0.16667   0.87156   0.31608   0.00000  Uiso   1.00
O392   O     0.16666   0.79511   0.18393   0.00000  Uiso   1.00
Zn393  Zn    0.16667   0.88437   0.25000   0.00000  Uiso   1.00
Zn394  Zn    0.16667   0.78229   0.25000   0.00000  Uiso   1.00
Br395  Br    0.07681   0.83784   0.37081   0.00000  Uiso   1.00
Br396  Br    0.25652   0.82883   0.12919   0.00000  Uiso   1.00
Br397  Br    0.03792   0.79557   0.45863   0.00000  Uiso   1.00
Br398  Br    0.29542   0.87109   0.04137   0.00000  Uiso   1.00
H399   H     0.03772   0.76247   0.23106   0.00000  Uiso   1.00
H400   H     0.29562   0.90420   0.26894   0.00000  Uiso   1.00
H401   H     0.29584   0.76234   0.23166   0.00000  Uiso   1.00
H402   H     0.03749   0.90433   0.26834   0.00000  Uiso   1.00
H403   H     0.21613   0.70855   0.29673   0.00000  Uiso   1.00
H404   H     0.11721   0.95812   0.20327   0.00000  Uiso   1.00
H405   H     0.11721   0.70905   0.20327   0.00000  Uiso   1.00
H406   H     0.21613   0.95762   0.29673   0.00000  Uiso   1.00
C407   C     0.41997   0.83337   0.24968   0.00000  Uiso   1.00
C408   C     0.58003   0.83330   0.25032   0.00000  Uiso   1.00
C409   C     0.42596   0.82082   0.02629   0.00000  Uiso   1.00
C410   C     0.57404   0.84585   0.47371   0.00000  Uiso   1.00
C411   C     0.35472   0.79343   0.23951   0.00000  Uiso   1.00
C412   C     0.64528   0.87324   0.26049   0.00000  Uiso   1.00
C413   C     0.64541   0.79334   0.23991   0.00000  Uiso   1.00
C414   C     0.35460   0.87333   0.26009   0.00000  Uiso   1.00
C415   C     0.62418   0.83325   0.25036   0.00000  Uiso   1.00
C416   C     0.37582   0.83341   0.24964   0.00000  Uiso   1.00
C417   C     0.52748   0.69050   0.27596   0.00000  Uiso   1.00
C418   C     0.47252   0.97616   0.22404   0.00000  Uiso   1.00
C419   C     0.47251   0.69078   0.22404   0.00000  Uiso   1.00
C420   C     0.52749   0.97588   0.27596   0.00000  Uiso   1.00
C421   C     0.50048   0.83341   0.16358   0.00000  Uiso   1.00
C422   C     0.49952   0.83325   0.33642   0.00000  Uiso   1.00
C423   C     0.53568   0.83657   0.40611   0.00000  Uiso   1.00
C424   C     0.46432   0.83009   0.09389   0.00000  Uiso   1.00
C425   C     0.49809   0.83293   0.38403   0.00000  Uiso   1.00
C426   C     0.50191   0.83374   0.11597   0.00000  Uiso   1.00
C427   C     0.45993   0.82978   0.40664   0.00000  Uiso   1.00
C428   C     0.54007   0.83689   0.09336   0.00000  Uiso   1.00
C429   C     0.46011   0.82672   0.45394   0.00000  Uiso   1.00
C430   C     0.53989   0.83995   0.04606   0.00000  Uiso   1.00
C431   C     0.49906   0.83283   0.47653   0.00000  Uiso   1.00
C432   C     0.50094   0.83383   0.02347   0.00000  Uiso   1.00
C433   C     0.53636   0.83799   0.45218   0.00000  Uiso   1.00
C434   C     0.46364   0.82868   0.04782   0.00000  Uiso   1.00
C435   C     0.42381   0.81822   0.47999   0.00000  Uiso   1.00
C436   C     0.57619   0.84844   0.02001   0.00000  Uiso   1.00
H437   H     0.56439   0.83975   0.38703   0.00000  Uiso   1.00
H438   H     0.43561   0.82692   0.11297   0.00000  Uiso   1.00
H439   H     0.39799   0.81489   0.04589   0.00000  Uiso   1.00
H440   H     0.60201   0.85178   0.45411   0.00000  Uiso   1.00
N441   N     0.50000   0.95240   0.25000   0.00000  Uiso   1.00
N442   N     0.50000   0.71427   0.25000   0.00000  Uiso   1.00
O443   O     0.43892   0.87154   0.24999   0.00000  Uiso   1.00
O444   O     0.56108   0.79513   0.25001   0.00000  Uiso   1.00
O445   O     0.56108   0.87154   0.25001   0.00000  Uiso   1.00
O446   O     0.43892   0.79513   0.25000   0.00000  Uiso   1.00
O447   O     0.49999   0.87156   0.18392   0.00000  Uiso   1.00
O448   O     0.50001   0.79511   0.31608   0.00000  Uiso   1.00
O449   O     0.50001   0.87156   0.31608   0.00000  Uiso   1.00
O450   O     0.49999   0.79511   0.18393   0.00000  Uiso   1.00
Zn451  Zn    0.50000   0.88437   0.25000   0.00000  Uiso   1.00
Zn452  Zn    0.50000   0.78229   0.25000   0.00000  Uiso   1.00
Br453  Br    0.41014   0.83784   0.37081   0.00000  Uiso   1.00
Br454  Br    0.58986   0.82883   0.12919   0.00000  Uiso   1.00
Br455  Br    0.37125   0.79557   0.45863   0.00000  Uiso   1.00
Br456  Br    0.62875   0.87109   0.04137   0.00000  Uiso   1.00
H457   H     0.37105   0.76247   0.23106   0.00000  Uiso   1.00
H458   H     0.62895   0.90420   0.26894   0.00000  Uiso   1.00
H459   H     0.62918   0.76234   0.23166   0.00000  Uiso   1.00
H460   H     0.37082   0.90433   0.26834   0.00000  Uiso   1.00
H461   H     0.54946   0.70855   0.29673   0.00000  Uiso   1.00
H462   H     0.45054   0.95812   0.20327   0.00000  Uiso   1.00
H463   H     0.45054   0.70905   0.20327   0.00000  Uiso   1.00
H464   H     0.54946   0.95762   0.29673   0.00000  Uiso   1.00
C465   C     0.75331   0.83337   0.24968   0.00000  Uiso   1.00
C466   C     0.91336   0.83330   0.25032   0.00000  Uiso   1.00
C467   C     0.75929   0.82082   0.02629   0.00000  Uiso   1.00
C468   C     0.90738   0.84585   0.47371   0.00000  Uiso   1.00
C469   C     0.68806   0.79343   0.23951   0.00000  Uiso   1.00
C470   C     0.97861   0.87324   0.26049   0.00000  Uiso   1.00
C471   C     0.97874   0.79334   0.23991   0.00000  Uiso   1.00
C472   C     0.68793   0.87333   0.26009   0.00000  Uiso   1.00
C473   C     0.95751   0.83325   0.25036   0.00000  Uiso   1.00
C474   C     0.70916   0.83341   0.24964   0.00000  Uiso   1.00
C475   C     0.86082   0.69050   0.27596   0.00000  Uiso   1.00
C476   C     0.80585   0.97616   0.22404   0.00000  Uiso   1.00
C477   C     0.80585   0.69078   0.22404   0.00000  Uiso   1.00
C478   C     0.86082   0.97588   0.27596   0.00000  Uiso   1.00
C479   C     0.83381   0.83341   0.16358   0.00000  Uiso   1.00
C480   C     0.83286   0.83325   0.33642   0.00000  Uiso   1.00
C481   C     0.86901   0.83657   0.40611   0.00000  Uiso   1.00
C482   C     0.79766   0.83009   0.09389   0.00000  Uiso   1.00
C483   C     0.83142   0.83293   0.38403   0.00000  Uiso   1.00
C484   C     0.83525   0.83374   0.11597   0.00000  Uiso   1.00
C485   C     0.79326   0.82978   0.40664   0.00000  Uiso   1.00
C486   C     0.87341   0.83689   0.09336   0.00000  Uiso   1.00
C487   C     0.79344   0.82672   0.45394   0.00000  Uiso   1.00
C488   C     0.87323   0.83995   0.04606   0.00000  Uiso   1.00
C489   C     0.83239   0.83283   0.47653   0.00000  Uiso   1.00
C490   C     0.83428   0.83383   0.02347   0.00000  Uiso   1.00
C491   C     0.86970   0.83799   0.45218   0.00000  Uiso   1.00
C492   C     0.79697   0.82868   0.04782   0.00000  Uiso   1.00
C493   C     0.75714   0.81822   0.47999   0.00000  Uiso   1.00
C494   C     0.90953   0.84844   0.02001   0.00000  Uiso   1.00
H495   H     0.89772   0.83975   0.38703   0.00000  Uiso   1.00
H496   H     0.76895   0.82692   0.11297   0.00000  Uiso   1.00
H497   H     0.73132   0.81489   0.04589   0.00000  Uiso   1.00
H498   H     0.93535   0.85178   0.45411   0.00000  Uiso   1.00
N499   N     0.83333   0.95240   0.25000   0.00000  Uiso   1.00
N500   N     0.83333   0.71427   0.25000   0.00000  Uiso   1.00
O501   O     0.77226   0.87154   0.24999   0.00000  Uiso   1.00
O502   O     0.89441   0.79513   0.25001   0.00000  Uiso   1.00
O503   O     0.89441   0.87154   0.25001   0.00000  Uiso   1.00
O504   O     0.77226   0.79513   0.25000   0.00000  Uiso   1.00
O505   O     0.83333   0.87156   0.18392   0.00000  Uiso   1.00
O506   O     0.83334   0.79511   0.31608   0.00000  Uiso   1.00
O507   O     0.83334   0.87156   0.31608   0.00000  Uiso   1.00
O508   O     0.83333   0.79511   0.18393   0.00000  Uiso   1.00
Zn509  Zn    0.83333   0.88437   0.25000   0.00000  Uiso   1.00
Zn510  Zn    0.83333   0.78229   0.25000   0.00000  Uiso   1.00
Br511  Br    0.74348   0.83784   0.37081   0.00000  Uiso   1.00
Br512  Br    0.92319   0.82883   0.12919   0.00000  Uiso   1.00
Br513  Br    0.70458   0.79557   0.45863   0.00000  Uiso   1.00
Br514  Br    0.96208   0.87109   0.04137   0.00000  Uiso   1.00
H515   H     0.70438   0.76247   0.23106   0.00000  Uiso   1.00
H516   H     0.96228   0.90420   0.26894   0.00000  Uiso   1.00
H517   H     0.96251   0.76234   0.23166   0.00000  Uiso   1.00
H518   H     0.70416   0.90433   0.26834   0.00000  Uiso   1.00
H519   H     0.88279   0.70855   0.29673   0.00000  Uiso   1.00
H520   H     0.78387   0.95812   0.20327   0.00000  Uiso   1.00
H521   H     0.78387   0.70905   0.20327   0.00000  Uiso   1.00
H522   H     0.88279   0.95762   0.29673   0.00000  Uiso   1.00
C523   C     0.08664   0.16670   0.74968   0.00000  Uiso   1.00
C524   C     0.24669   0.16663   0.75032   0.00000  Uiso   1.00
C525   C     0.09262   0.15415   0.52629   0.00000  Uiso   1.00
C526   C     0.24071   0.17918   0.97371   0.00000  Uiso   1.00
C527   C     0.02139   0.12677   0.73951   0.00000  Uiso   1.00
C528   C     0.31194   0.20657   0.76049   0.00000  Uiso   1.00
C529   C     0.31207   0.12667   0.73991   0.00000  Uiso   1.00
C530   C     0.02126   0.20666   0.76009   0.00000  Uiso   1.00
C531   C     0.29084   0.16659   0.75036   0.00000  Uiso   1.00
C532   C     0.04249   0.16675   0.74964   0.00000  Uiso   1.00
C533   C     0.19415   0.02384   0.77596   0.00000  Uiso   1.00
C534   C     0.13918   0.30950   0.72404   0.00000  Uiso   1.00
C535   C     0.13918   0.02412   0.72404   0.00000  Uiso   1.00
C536   C     0.19415   0.30922   0.77596   0.00000  Uiso   1.00
C537   C     0.16714   0.16675   0.66358   0.00000  Uiso   1.00
C538   C     0.16619   0.16659   0.83642   0.00000  Uiso   1.00
C539   C     0.20234   0.16991   0.90611   0.00000  Uiso   1.00
C540   C     0.13099   0.16343   0.59389   0.00000  Uiso   1.00
C541   C     0.16475   0.16626   0.88403   0.00000  Uiso   1.00
C542   C     0.16858   0.16707   0.61597   0.00000  Uiso   1.00
C543   C     0.12659   0.16311   0.90664   0.00000  Uiso   1.00
C544   C     0.20674   0.17022   0.59336   0.00000  Uiso   1.00
C545   C     0.12678   0.16005   0.95394   0.00000  Uiso   1.00
C546   C     0.20656   0.17328   0.54606   0.00000  Uiso   1.00
C547   C     0.16572   0.16617   0.97653   0.00000  Uiso   1.00
C548   C     0.16761   0.16717   0.52347   0.00000  Uiso   1.00
C549   C     0.20303   0.17132   0.95218   0.00000  Uiso   1.00
C550   C     0.13030   0.16201   0.54782   0.00000  Uiso   1.00
C551   C     0.09047   0.15156   0.97999   0.00000  Uiso   1.00
C552   C     0.24286   0.18178   0.52001   0.00000  Uiso   1.00
H553   H     0.23105   0.17308   0.88703   0.00000  Uiso   1.00
H554   H     0.10228   0.16025   0.61297   0.00000  Uiso   1.00
H555   H     0.06465   0.14822   0.54589   0.00000  Uiso   1.00
H556   H     0.26868   0.18511   0.95411   0.00000  Uiso   1.00
N557   N     0.16667   0.28573   0.75000   0.00000  Uiso   1.00
N558   N     0.16667   0.04760   0.75000   0.00000  Uiso   1.00
O559   O     0.10559   0.20487   0.74999   0.00000  Uiso   1.00
O560   O     0.22774   0.12846   0.75001   0.00000  Uiso   1.00
O561   O     0.22774   0.20487   0.75001   0.00000  Uiso   1.00
O562   O     0.10559   0.12846   0.75000   0.00000  Uiso   1.00
O563   O     0.16666   0.20489   0.68392   0.00000  Uiso   1.00
O564   O     0.16667   0.12844   0.81608   0.00000  Uiso   1.00
O565   O     0.16667   0.20489   0.81608   0.00000  Uiso   1.00
O566   O     0.16666   0.12844   0.68393   0.00000  Uiso   1.00
Zn567  Zn    0.16667   0.21771   0.75000   0.00000  Uiso   1.00
Zn568  Zn    0.16667   0.11563   0.75000   0.00000  Uiso   1.00
Br569  Br    0.07681   0.17117   0.87081   0.00000  Uiso   1.00
Br570  Br    0.25652   0.16216   0.62919   0.00000  Uiso   1.00
Br571  Br    0.03792   0.12891   0.95863   0.00000  Uiso   1.00
Br572  Br    0.29542   0.20443   0.54137   0.00000  Uiso   1.00
H573   H     0.03772   0.09580   0.73106   0.00000  Uiso   1.00
H574   H     0.29562   0.23753   0.76894   0.00000  Uiso   1.00
H575   H     0.29584   0.09567   0.73166   0.00000  Uiso   1.00
H576   H     0.03749   0.23766   0.76834   0.00000  Uiso   1.00
H577   H     0.21613   0.04188   0.79673   0.00000  Uiso   1.00
H578   H     0.11721   0.29145   0.70327   0.00000  Uiso   1.00
H579   H     0.11721   0.04239   0.70327   0.00000  Uiso   1.00
H580   H     0.21613   0.29095   0.79673   0.00000  Uiso   1.00
C581   C     0.41997   0.16670   0.74968   0.00000  Uiso   1.00
C582   C     0.58003   0.16663   0.75032   0.00000  Uiso   1.00
C583   C     0.42596   0.15415   0.52629   0.00000  Uiso   1.00
C584   C     0.57404   0.17918   0.97371   0.00000  Uiso   1.00
C585   C     0.35472   0.12677   0.73951   0.00000  Uiso   1.00
C586   C     0.64528   0.20657   0.76049   0.00000  Uiso   1.00
C587   C     0.64541   0.12667   0.73991   0.00000  Uiso   1.00
C588   C     0.35460   0.20666   0.76009   0.00000  Uiso   1.00
C589   C     0.62418   0.16659   0.75036   0.00000  Uiso   1.00
C590   C     0.37582   0.16675   0.74964   0.00000  Uiso   1.00
C591   C     0.52748   0.02384   0.77596   0.00000  Uiso   1.00
C592   C     0.47252   0.30950   0.72404   0.00000  Uiso   1.00
C593   C     0.47251   0.02412   0.72404   0.00000  Uiso   1.00
C594   C     0.52749   0.30922   0.77596   0.00000  Uiso   1.00
C595   C     0.50048   0.16675   0.66358   0.00000  Uiso   1.00
C596   C     0.49952   0.16659   0.83642   0.00000  Uiso   1.00
C597   C     0.53568   0.16991   0.90611   0.00000  Uiso   1.00
C598   C     0.46432   0.16343   0.59389   0.00000  Uiso   1.00
C599   C     0.49809   0.16626   0.88403   0.00000  Uiso   1.00
C600   C     0.50191   0.16707   0.61597   0.00000  Uiso   1.00
C601   C     0.45993   0.16311   0.90664   0.00000  Uiso   1.00
C602   C     0.54007   0.17022   0.59336   0.00000  Uiso   1.00
C603   C     0.46011   0.16005   0.95394   0.00000  Uiso   1.00
C604   C     0.53989   0.17328   0.54606   0.00000  Uiso   1.00
C605   C     0.49906   0.16617   0.97653   0.00000  Uiso   1.00
C606   C     0.50094   0.16717   0.52347   0.00000  Uiso   1.00
C607   C     0.53636   0.17132   0.95218   0.00000  Uiso   1.00
C608   C     0.46364   0.16201   0.54782   0.00000  Uiso   1.00
C609   C     0.42381   0.15156   0.97999   0.00000  Uiso   1.00
C610   C     0.57619   0.18178   0.52001   0.00000  Uiso   1.00
H611   H     0.56439   0.17308   0.88703   0.00000  Uiso   1.00
H612   H     0.43561   0.16025   0.61297   0.00000  Uiso   1.00
H613   H     0.39799   0.14822   0.54589   0.00000  Uiso   1.00
H614   H     0.60201   0.18511   0.95411   0.00000  Uiso   1.00
N615   N     0.50000   0.28573   0.75000   0.00000  Uiso   1.00
N616   N     0.50000   0.04760   0.75000   0.00000  Uiso   1.00
O617   O     0.43892   0.20487   0.74999   0.00000  Uiso   1.00
O618   O     0.56108   0.12846   0.75001   0.00000  Uiso   1.00
O619   O     0.56108   0.20487   0.75001   0.00000  Uiso   1.00
O620   O     0.43892   0.12846   0.75000   0.00000  Uiso   1.00
O621   O     0.49999   0.20489   0.68392   0.00000  Uiso   1.00
O622   O     0.50001   0.12844   0.81608   0.00000  Uiso   1.00
O623   O     0.50001   0.20489   0.81608   0.00000  Uiso   1.00
O624   O     0.49999   0.12844   0.68393   0.00000  Uiso   1.00
Zn625  Zn    0.50000   0.21771   0.75000   0.00000  Uiso   1.00
Zn626  Zn    0.50000   0.11563   0.75000   0.00000  Uiso   1.00
Br627  Br    0.41014   0.17117   0.87081   0.00000  Uiso   1.00
Br628  Br    0.58986   0.16216   0.62919   0.00000  Uiso   1.00
Br629  Br    0.37125   0.12891   0.95863   0.00000  Uiso   1.00
Br630  Br    0.62875   0.20443   0.54137   0.00000  Uiso   1.00
H631   H     0.37105   0.09580   0.73106   0.00000  Uiso   1.00
H632   H     0.62895   0.23753   0.76894   0.00000  Uiso   1.00
H633   H     0.62918   0.09567   0.73166   0.00000  Uiso   1.00
H634   H     0.37082   0.23766   0.76834   0.00000  Uiso   1.00
H635   H     0.54946   0.04188   0.79673   0.00000  Uiso   1.00
H636   H     0.45054   0.29145   0.70327   0.00000  Uiso   1.00
H637   H     0.45054   0.04239   0.70327   0.00000  Uiso   1.00
H638   H     0.54946   0.29095   0.79673   0.00000  Uiso   1.00
C639   C     0.75331   0.16670   0.74968   0.00000  Uiso   1.00
C640   C     0.91336   0.16663   0.75032   0.00000  Uiso   1.00
C641   C     0.75929   0.15415   0.52629   0.00000  Uiso   1.00
C642   C     0.90738   0.17918   0.97371   0.00000  Uiso   1.00
C643   C     0.68806   0.12677   0.73951   0.00000  Uiso   1.00
C644   C     0.97861   0.20657   0.76049   0.00000  Uiso   1.00
C645   C     0.97874   0.12667   0.73991   0.00000  Uiso   1.00
C646   C     0.68793   0.20666   0.76009   0.00000  Uiso   1.00
C647   C     0.95751   0.16659   0.75036   0.00000  Uiso   1.00
C648   C     0.70916   0.16675   0.74964   0.00000  Uiso   1.00
C649   C     0.86082   0.02384   0.77596   0.00000  Uiso   1.00
C650   C     0.80585   0.30950   0.72404   0.00000  Uiso   1.00
C651   C     0.80585   0.02412   0.72404   0.00000  Uiso   1.00
C652   C     0.86082   0.30922   0.77596   0.00000  Uiso   1.00
C653   C     0.83381   0.16675   0.66358   0.00000  Uiso   1.00
C654   C     0.83286   0.16659   0.83642   0.00000  Uiso   1.00
C655   C     0.86901   0.16991   0.90611   0.00000  Uiso   1.00
C656   C     0.79766   0.16343   0.59389   0.00000  Uiso   1.00
C657   C     0.83142   0.16626   0.88403   0.00000  Uiso   1.00
C658   C     0.83525   0.16707   0.61597   0.00000  Uiso   1.00
C659   C     0.79326   0.16311   0.90664   0.00000  Uiso   1.00
C660   C     0.87341   0.17022   0.59336   0.00000  Uiso   1.00
C661   C     0.79344   0.16005   0.95394   0.00000  Uiso   1.00
C662   C     0.87323   0.17328   0.54606   0.00000  Uiso   1.00
C663   C     0.83239   0.16617   0.97653   0.00000  Uiso   1.00
C664   C     0.83428   0.16717   0.52347   0.00000  Uiso   1.00
C665   C     0.86970   0.17132   0.95218   0.00000  Uiso   1.00
C666   C     0.79697   0.16201   0.54782   0.00000  Uiso   1.00
C667   C     0.75714   0.15156   0.97999   0.00000  Uiso   1.00
C668   C     0.90953   0.18178   0.52001   0.00000  Uiso   1.00
H669   H     0.89772   0.17308   0.88703   0.00000  Uiso   1.00
H670   H     0.76895   0.16025   0.61297   0.00000  Uiso   1.00
H671   H     0.73132   0.14822   0.54589   0.00000  Uiso   1.00
H672   H     0.93535   0.18511   0.95411   0.00000  Uiso   1.00
N673   N     0.83333   0.28573   0.75000   0.00000  Uiso   1.00
N674   N     0.83333   0.04760   0.75000   0.00000  Uiso   1.00
O675   O     0.77226   0.20487   0.74999   0.00000  Uiso   1.00
O676   O     0.89441   0.12846   0.75001   0.00000  Uiso   1.00
O677   O     0.89441   0.20487   0.75001   0.00000  Uiso   1.00
O678   O     0.77226   0.12846   0.75000   0.00000  Uiso   1.00
O679   O     0.83333   0.20489   0.68392   0.00000  Uiso   1.00
O680   O     0.83334   0.12844   0.81608   0.00000  Uiso   1.00
O681   O     0.83334   0.20489   0.81608   0.00000  Uiso   1.00
O682   O     0.83333   0.12844   0.68393   0.00000  Uiso   1.00
Zn683  Zn    0.83333   0.21771   0.75000   0.00000  Uiso   1.00
Zn684  Zn    0.83333   0.11563   0.75000   0.00000  Uiso   1.00
Br685  Br    0.74348   0.17117   0.87081   0.00000  Uiso   1.00
Br686  Br    0.92319   0.16216   0.62919   0.00000  Uiso   1.00
Br687  Br    0.70458   0.12891   0.95863   0.00000  Uiso   1.00
Br688  Br    0.96208   0.20443   0.54137   0.00000  Uiso   1.00
H689   H     0.70438   0.09580   0.73106   0.00000  Uiso   1.00
H690   H     0.96228   0.23753   0.76894   0.00000  Uiso   1.00
H691   H     0.96251   0.09567   0.73166   0.00000  Uiso   1.00
H692   H     0.70416   0.23766   0.76834   0.00000  Uiso   1.00
H693   H     0.88279   0.04188   0.79673   0.00000  Uiso   1.00
H694   H     0.78387   0.29145   0.70327   0.00000  Uiso   1.00
H695   H     0.78387   0.04239   0.70327   0.00000  Uiso   1.00
H696   H     0.88279   0.29095   0.79673   0.00000  Uiso   1.00
C697   C     0.08664   0.50003   0.74968   0.00000  Uiso   1.00
C698   C     0.24669   0.49997   0.75032   0.00000  Uiso   1.00
C699   C     0.09262   0.48748   0.52629   0.00000  Uiso   1.00
C700   C     0.24071   0.51252   0.97371   0.00000  Uiso   1.00
C701   C     0.02139   0.46010   0.73951   0.00000  Uiso   1.00
C702   C     0.31194   0.53990   0.76049   0.00000  Uiso   1.00
C703   C     0.31207   0.46001   0.73991   0.00000  Uiso   1.00
C704   C     0.02126   0.53999   0.76009   0.00000  Uiso   1.00
C705   C     0.29084   0.49992   0.75036   0.00000  Uiso   1.00
C706   C     0.04249   0.50008   0.74964   0.00000  Uiso   1.00
C707   C     0.19415   0.35717   0.77596   0.00000  Uiso   1.00
C708   C     0.13918   0.64283   0.72404   0.00000  Uiso   1.00
C709   C     0.13918   0.35745   0.72404   0.00000  Uiso   1.00
C710   C     0.19415   0.64255   0.77596   0.00000  Uiso   1.00
C711   C     0.16714   0.50008   0.66358   0.00000  Uiso   1.00
C712   C     0.16619   0.49992   0.83642   0.00000  Uiso   1.00
C713   C     0.20234   0.50324   0.90611   0.00000  Uiso   1.00
C714   C     0.13099   0.49676   0.59389   0.00000  Uiso   1.00
C715   C     0.16475   0.49960   0.88403   0.00000  Uiso   1.00
C716   C     0.16858   0.50040   0.61597   0.00000  Uiso   1.00
C717   C     0.12659   0.49644   0.90664   0.00000  Uiso   1.00
C718   C     0.20674   0.50356   0.59336   0.00000  Uiso   1.00
C719   C     0.12678   0.49338   0.95394   0.00000  Uiso   1.00
C720   C     0.20656   0.50662   0.54606   0.00000  Uiso   1.00
C721   C     0.16572   0.49950   0.97653   0.00000  Uiso   1.00
C722   C     0.16761   0.50050   0.52347   0.00000  Uiso   1.00
C723   C     0.20303   0.50466   0.95218   0.00000  Uiso   1.00
C724   C     0.13030   0.49534   0.54782   0.00000  Uiso   1.00
C725   C     0.09047   0.48489   0.97999   0.00000  Uiso   1.00
C726   C     0.24286   0.51511   0.52001   0.00000  Uiso   1.00
H727   H     0.23105   0.50642   0.88703   0.00000  Uiso   1.00
H728   H     0.10228   0.49358   0.61297   0.00000  Uiso   1.00
H729   H     0.06465   0.48155   0.54589   0.00000  Uiso   1.00
H730   H     0.26868   0.51845   0.95411   0.00000  Uiso   1.00
N731   N     0.16667   0.61907   0.75000   0.00000  Uiso   1.00
N732   N     0.16667   0.38093   0.75000   0.00000  Uiso   1.00
O733   O     0.10559   0.53821   0.74999   0.00000  Uiso   1.00
O734   O     0.22774   0.46179   0.75001   0.00000  Uiso   1.00
O735   O     0.22774   0.53821   0.75001   0.00000  Uiso   1.00
O736   O     0.10559   0.46179   0.75000   0.00000  Uiso   1.00
O737   O     0.16666   0.53823   0.68392   0.00000  Uiso   1.00
O738   O     0.16667   0.46177   0.81608   0.00000  Uiso   1.00
O739   O     0.16667   0.53823   0.81608   0.00000  Uiso   1.00
O740   O     0.16666   0.46177   0.68393   0.00000  Uiso   1.00
Zn741  Zn    0.16667   0.55104   0.75000   0.00000  Uiso   1.00
Zn742  Zn    0.16667   0.44896   0.75000   0.00000  Uiso   1.00
Br743  Br    0.07681   0.50451   0.87081   0.00000  Uiso   1.00
Br744  Br    0.25652   0.49549   0.62919   0.00000  Uiso   1.00
Br745  Br    0.03792   0.46224   0.95863   0.00000  Uiso   1.00
Br746  Br    0.29542   0.53776   0.54137   0.00000  Uiso   1.00
H747   H     0.03772   0.42913   0.73106   0.00000  Uiso   1.00
H748   H     0.29562   0.57087   0.76894   0.00000  Uiso   1.00
H749   H     0.29584   0.42901   0.73166   0.00000  Uiso   1.00
H750   H     0.03749   0.57100   0.76834   0.00000  Uiso   1.00
H751   H     0.21613   0.37522   0.79673   0.00000  Uiso   1.00
H752   H     0.11721   0.62478   0.70327   0.00000  Uiso   1.00
H753   H     0.11721   0.37572   0.70327   0.00000  Uiso   1.00
H754   H     0.21613   0.62428   0.79673   0.00000  Uiso   1.00
C755   C     0.41997   0.50003   0.74968   0.00000  Uiso   1.00
C756   C     0.58003   0.49997   0.75032   0.00000  Uiso   1.00
C757   C     0.42596   0.48748   0.52629   0.00000  Uiso   1.00
C758   C     0.57404   0.51252   0.97371   0.00000  Uiso   1.00
C759   C     0.35472   0.46010   0.73951   0.00000  Uiso   1.00
C760   C     0.64528   0.53990   0.76049   0.00000  Uiso   1.00
C761   C     0.64541   0.46001   0.73991   0.00000  Uiso   1.00
C762   C     0.35460   0.53999   0.76009   0.00000  Uiso   1.00
C763   C     0.62418   0.49992   0.75036   0.00000  Uiso   1.00
C764   C     0.37582   0.50008   0.74964   0.00000  Uiso   1.00
C765   C     0.52748   0.35717   0.77596   0.00000  Uiso   1.00
C766   C     0.47252   0.64283   0.72404   0.00000  Uiso   1.00
C767   C     0.47251   0.35745   0.72404   0.00000  Uiso   1.00
C768   C     0.52749   0.64255   0.77596   0.00000  Uiso   1.00
C769   C     0.50048   0.50008   0.66358   0.00000  Uiso   1.00
C770   C     0.49952   0.49992   0.83642   0.00000  Uiso   1.00
C771   C     0.53568   0.50324   0.90611   0.00000  Uiso   1.00
C772   C     0.46432   0.49676   0.59389   0.00000  Uiso   1.00
C773   C     0.49809   0.49960   0.88403   0.00000  Uiso   1.00
C774   C     0.50191   0.50040   0.61597   0.00000  Uiso   1.00
C775   C     0.45993   0.49644   0.90664   0.00000  Uiso   1.00
C776   C     0.54007   0.50356   0.59336   0.00000  Uiso   1.00
C777   C     0.46011   0.49338   0.95394   0.00000  Uiso   1.00
C778   C     0.53989   0.50662   0.54606   0.00000  Uiso   1.00
C779   C     0.49906   0.49950   0.97653   0.00000  Uiso   1.00
C780   C     0.50094   0.50050   0.52347   0.00000  Uiso   1.00
C781   C     0.53636   0.50466   0.95218   0.00000  Uiso   1.00
C782   C     0.46364   0.49534   0.54782   0.00000  Uiso   1.00
C783   C     0.42381   0.48489   0.97999   0.00000  Uiso   1.00
C784   C     0.57619   0.51511   0.52001   0.00000  Uiso   1.00
H785   H     0.56439   0.50642   0.88703   0.00000  Uiso   1.00
H786   H     0.43561   0.49358   0.61297   0.00000  Uiso   1.00
H787   H     0.39799   0.48155   0.54589   0.00000  Uiso   1.00
H788   H     0.60201   0.51845   0.95411   0.00000  Uiso   1.00
N789   N     0.50000   0.61907   0.75000   0.00000  Uiso   1.00
N790   N     0.50000   0.38093   0.75000   0.00000  Uiso   1.00
O791   O     0.43892   0.53821   0.74999   0.00000  Uiso   1.00
O792   O     0.56108   0.46179   0.75001   0.00000  Uiso   1.00
O793   O     0.56108   0.53821   0.75001   0.00000  Uiso   1.00
O794   O     0.43892   0.46179   0.75000   0.00000  Uiso   1.00
O795   O     0.49999   0.53823   0.68392   0.00000  Uiso   1.00
O796   O     0.50001   0.46177   0.81608   0.00000  Uiso   1.00
O797   O     0.50001   0.53823   0.81608   0.00000  Uiso   1.00
O798   O     0.49999   0.46177   0.68393   0.00000  Uiso   1.00
Zn799  Zn    0.50000   0.55104   0.75000   0.00000  Uiso   1.00
Zn800  Zn    0.50000   0.44896   0.75000   0.00000  Uiso   1.00
Br801  Br    0.41014   0.50451   0.87081   0.00000  Uiso   1.00
Br802  Br    0.58986   0.49549   0.62919   0.00000  Uiso   1.00
Br803  Br    0.37125   0.46224   0.95863   0.00000  Uiso   1.00
Br804  Br    0.62875   0.53776   0.54137   0.00000  Uiso   1.00
H805   H     0.37105   0.42913   0.73106   0.00000  Uiso   1.00
H806   H     0.62895   0.57087   0.76894   0.00000  Uiso   1.00
H807   H     0.62918   0.42901   0.73166   0.00000  Uiso   1.00
H808   H     0.37082   0.57100   0.76834   0.00000  Uiso   1.00
H809   H     0.54946   0.37522   0.79673   0.00000  Uiso   1.00
H810   H     0.45054   0.62478   0.70327   0.00000  Uiso   1.00
H811   H     0.45054   0.37572   0.70327   0.00000  Uiso   1.00
H812   H     0.54946   0.62428   0.79673   0.00000  Uiso   1.00
C813   C     0.75331   0.50003   0.74968   0.00000  Uiso   1.00
C814   C     0.91336   0.49997   0.75032   0.00000  Uiso   1.00
C815   C     0.75929   0.48748   0.52629   0.00000  Uiso   1.00
C816   C     0.90738   0.51252   0.97371   0.00000  Uiso   1.00
C817   C     0.68806   0.46010   0.73951   0.00000  Uiso   1.00
C818   C     0.97861   0.53990   0.76049   0.00000  Uiso   1.00
C819   C     0.97874   0.46001   0.73991   0.00000  Uiso   1.00
C820   C     0.68793   0.53999   0.76009   0.00000  Uiso   1.00
C821   C     0.95751   0.49992   0.75036   0.00000  Uiso   1.00
C822   C     0.70916   0.50008   0.74964   0.00000  Uiso   1.00
C823   C     0.86082   0.35717   0.77596   0.00000  Uiso   1.00
C824   C     0.80585   0.64283   0.72404   0.00000  Uiso   1.00
C825   C     0.80585   0.35745   0.72404   0.00000  Uiso   1.00
C826   C     0.86082   0.64255   0.77596   0.00000  Uiso   1.00
C827   C     0.83381   0.50008   0.66358   0.00000  Uiso   1.00
C828   C     0.83286   0.49992   0.83642   0.00000  Uiso   1.00
C829   C     0.86901   0.50324   0.90611   0.00000  Uiso   1.00
C830   C     0.79766   0.49676   0.59389   0.00000  Uiso   1.00
C831   C     0.83142   0.49960   0.88403   0.00000  Uiso   1.00
C832   C     0.83525   0.50040   0.61597   0.00000  Uiso   1.00
C833   C     0.79326   0.49644   0.90664   0.00000  Uiso   1.00
C834   C     0.87341   0.50356   0.59336   0.00000  Uiso   1.00
C835   C     0.79344   0.49338   0.95394   0.00000  Uiso   1.00
C836   C     0.87323   0.50662   0.54606   0.00000  Uiso   1.00
C837   C     0.83239   0.49950   0.97653   0.00000  Uiso   1.00
C838   C     0.83428   0.50050   0.52347   0.00000  Uiso   1.00
C839   C     0.86970   0.50466   0.95218   0.00000  Uiso   1.00
C840   C     0.79697   0.49534   0.54782   0.00000  Uiso   1.00
C841   C     0.75714   0.48489   0.97999   0.00000  Uiso   1.00
C842   C     0.90953   0.51511   0.52001   0.00000  Uiso   1.00
H843   H     0.89772   0.50642   0.88703   0.00000  Uiso   1.00
H844   H     0.76895   0.49358   0.61297   0.00000  Uiso   1.00
H845   H     0.73132   0.48155   0.54589   0.00000  Uiso   1.00
H846   H     0.93535   0.51845   0.95411   0.00000  Uiso   1.00
N847   N     0.83333   0.61907   0.75000   0.00000  Uiso   1.00
N848   N     0.83333   0.38093   0.75000   0.00000  Uiso   1.00
O849   O     0.77226   0.53821   0.74999   0.00000  Uiso   1.00
O850   O     0.89441   0.46179   0.75001   0.00000  Uiso   1.00
O851   O     0.89441   0.53821   0.75001   0.00000  Uiso   1.00
O852   O     0.77226   0.46179   0.75000   0.00000  Uiso   1.00
O853   O     0.83333   0.53823   0.68392   0.00000  Uiso   1.00
O854   O     0.83334   0.46177   0.81608   0.00000  Uiso   1.00
O855   O     0.83334   0.53823   0.81608   0.00000  Uiso   1.00
O856   O     0.83333   0.46177   0.68393   0.00000  Uiso   1.00
Zn857  Zn    0.83333   0.55104   0.75000   0.00000  Uiso   1.00
Zn858  Zn    0.83333   0.44896   0.75000   0.00000  Uiso   1.00
Br859  Br    0.74348   0.50451   0.87081   0.00000  Uiso   1.00
Br860  Br    0.92319   0.49549   0.62919   0.00000  Uiso   1.00
Br861  Br    0.70458   0.46224   0.95863   0.00000  Uiso   1.00
Br862  Br    0.96208   0.53776   0.54137   0.00000  Uiso   1.00
H863   H     0.70438   0.42913   0.73106   0.00000  Uiso   1.00
H864   H     0.96228   0.57087   0.76894   0.00000  Uiso   1.00
H865   H     0.96251   0.42901   0.73166   0.00000  Uiso   1.00
H866   H     0.70416   0.57100   0.76834   0.00000  Uiso   1.00
H867   H     0.88279   0.37522   0.79673   0.00000  Uiso   1.00
H868   H     0.78387   0.62478   0.70327   0.00000  Uiso   1.00
H869   H     0.78387   0.37572   0.70327   0.00000  Uiso   1.00
H870   H     0.88279   0.62428   0.79673   0.00000  Uiso   1.00
C871   C     0.08664   0.83337   0.74968   0.00000  Uiso   1.00
C872   C     0.24669   0.83330   0.75032   0.00000  Uiso   1.00
C873   C     0.09262   0.82082   0.52629   0.00000  Uiso   1.00
C874   C     0.24071   0.84585   0.97371   0.00000  Uiso   1.00
C875   C     0.02139   0.79343   0.73951   0.00000  Uiso   1.00
C876   C     0.31194   0.87324   0.76049   0.00000  Uiso   1.00
C877   C     0.31207   0.79334   0.73991   0.00000  Uiso   1.00
C878   C     0.02126   0.87333   0.76009   0.00000  Uiso   1.00
C879   C     0.29084   0.83325   0.75036   0.00000  Uiso   1.00
C880   C     0.04249   0.83341   0.74964   0.00000  Uiso   1.00
C881   C     0.19415   0.69050   0.77596   0.00000  Uiso   1.00
C882   C     0.13918   0.97616   0.72404   0.00000  Uiso   1.00
C883   C     0.13918   0.69078   0.72404   0.00000  Uiso   1.00
C884   C     0.19415   0.97588   0.77596   0.00000  Uiso   1.00
C885   C     0.16714   0.83341   0.66358   0.00000  Uiso   1.00
C886   C     0.16619   0.83325   0.83642   0.00000  Uiso   1.00
C887   C     0.20234   0.83657   0.90611   0.00000  Uiso   1.00
C888   C     0.13099   0.83009   0.59389   0.00000  Uiso   1.00
C889   C     0.16475   0.83293   0.88403   0.00000  Uiso   1.00
C890   C     0.16858   0.83374   0.61597   0.00000  Uiso   1.00
C891   C     0.12659   0.82978   0.90664   0.00000  Uiso   1.00
C892   C     0.20674   0.83689   0.59336   0.00000  Uiso   1.00
C893   C     0.12678   0.82672   0.95394   0.00000  Uiso   1.00
C894   C     0.20656   0.83995   0.54606   0.00000  Uiso   1.00
C895   C     0.16572   0.83283   0.97653   0.00000  Uiso   1.00
C896   C     0.16761   0.83383   0.52347   0.00000  Uiso   1.00
C897   C     0.20303   0.83799   0.95218   0.00000  Uiso   1.00
C898   C     0.13030   0.82868   0.54782   0.00000  Uiso   1.00
C899   C     0.09047   0.81822   0.97999   0.00000  Uiso   1.00
C900   C     0.24286   0.84844   0.52001   0.00000  Uiso   1.00
H901   H     0.23105   0.83975   0.88703   0.00000  Uiso   1.00
H902   H     0.10228   0.82692   0.61297   0.00000  Uiso   1.00
H903   H     0.06465   0.81489   0.54589   0.00000  Uiso   1.00
H904   H     0.26868   0.85178   0.95411   0.00000  Uiso   1.00
N905   N     0.16667   0.95240   0.75000   0.00000  Uiso   1.00
N906   N     0.16667   0.71427   0.75000   0.00000  Uiso   1.00
O907   O     0.10559   0.87154   0.74999   0.00000  Uiso   1.00
O908   O     0.22774   0.79513   0.75001   0.00000  Uiso   1.00
O909   O     0.22774   0.87154   0.75001   0.00000  Uiso   1.00
O910   O     0.10559   0.79513   0.75000   0.00000  Uiso   1.00
O911   O     0.16666   0.87156   0.68392   0.00000  Uiso   1.00
O912   O     0.16667   0.79511   0.81608   0.00000  Uiso   1.00
O913   O     0.16667   0.87156   0.81608   0.00000  Uiso   1.00
O914   O     0.16666   0.79511   0.68393   0.00000  Uiso   1.00
Zn915  Zn    0.16667   0.88437   0.75000   0.00000  Uiso   1.00
Zn916  Zn    0.16667   0.78229   0.75000   0.00000  Uiso   1.00
Br917  Br    0.07681   0.83784   0.87081   0.00000  Uiso   1.00
Br918  Br    0.25652   0.82883   0.62919   0.00000  Uiso   1.00
Br919  Br    0.03792   0.79557   0.95863   0.00000  Uiso   1.00
Br920  Br    0.29542   0.87109   0.54137   0.00000  Uiso   1.00
H921   H     0.03772   0.76247   0.73106   0.00000  Uiso   1.00
H922   H     0.29562   0.90420   0.76894   0.00000  Uiso   1.00
H923   H     0.29584   0.76234   0.73166   0.00000  Uiso   1.00
H924   H     0.03749   0.90433   0.76834   0.00000  Uiso   1.00
H925   H     0.21613   0.70855   0.79673   0.00000  Uiso   1.00
H926   H     0.11721   0.95812   0.70327   0.00000  Uiso   1.00
H927   H     0.11721   0.70905   0.70327   0.00000  Uiso   1.00
H928   H     0.21613   0.95762   0.79673   0.00000  Uiso   1.00
C929   C     0.41997   0.83337   0.74968   0.00000  Uiso   1.00
C930   C     0.58003   0.83330   0.75032   0.00000  Uiso   1.00
C931   C     0.42596   0.82082   0.52629   0.00000  Uiso   1.00
C932   C     0.57404   0.84585   0.97371   0.00000  Uiso   1.00
C933   C     0.35472   0.79343   0.73951   0.00000  Uiso   1.00
C934   C     0.64528   0.87324   0.76049   0.00000  Uiso   1.00
C935   C     0.64541   0.79334   0.73991   0.00000  Uiso   1.00
C936   C     0.35460   0.87333   0.76009   0.00000  Uiso   1.00
C937   C     0.62418   0.83325   0.75036   0.00000  Uiso   1.00
C938   C     0.37582   0.83341   0.74964   0.00000  Uiso   1.00
C939   C     0.52748   0.69050   0.77596   0.00000  Uiso   1.00
C940   C     0.47252   0.97616   0.72404   0.00000  Uiso   1.00
C941   C     0.47251   0.69078   0.72404   0.00000  Uiso   1.00
C942   C     0.52749   0.97588   0.77596   0.00000  Uiso   1.00
C943   C     0.50048   0.83341   0.66358   0.00000  Uiso   1.00
C944   C     0.49952   0.83325   0.83642   0.00000  Uiso   1.00
C945   C     0.53568   0.83657   0.90611   0.00000  Uiso   1.00
C946   C     0.46432   0.83009   0.59389   0.00000  Uiso   1.00
C947   C     0.49809   0.83293   0.88403   0.00000  Uiso   1.00
C948   C     0.50191   0.83374   0.61597   0.00000  Uiso   1.00
C949   C     0.45993   0.82978   0.90664   0.00000  Uiso   1.00
C950   C     0.54007   0.83689   0.59336   0.00000  Uiso   1.00
C951   C     0.46011   0.82672   0.95394   0.00000  Uiso   1.00
C952   C     0.53989   0.83995   0.54606   0.00000  Uiso   1.00
C953   C     0.49906   0.83283   0.97653   0.00000  Uiso   1.00
C954   C     0.50094   0.83383   0.52347   0.00000  Uiso   1.00
C955   C     0.53636   0.83799   0.95218   0.00000  Uiso   1.00
C956   C     0.46364   0.82868   0.54782   0.00000  Uiso   1.00
C957   C     0.42381   0.81822   0.97999   0.00000  Uiso   1.00
C958   C     0.57619   0.84844   0.52001   0.00000  Uiso   1.00
H959   H     0.56439   0.83975   0.88703   0.00000  Uiso   1.00
H960   H     0.43561   0.82692   0.61297   0.00000  Uiso   1.00
H961   H     0.39799   0.81489   0.54589   0.00000  Uiso   1.00
H962   H     0.60201   0.85178   0.95411   0.00000  Uiso   1.00
N963   N     0.50000   0.95240   0.75000   0.00000  Uiso   1.00
N964   N     0.50000   0.71427   0.75000   0.00000  Uiso   1.00
O965   O     0.43892   0.87154   0.74999   0.00000  Uiso   1.00
O966   O     0.56108   0.79513   0.75001   0.00000  Uiso   1.00
O967   O     0.56108   0.87154   0.75001   0.00000  Uiso   1.00
O968   O     0.43892   0.79513   0.75000   0.00000  Uiso   1.00
O969   O     0.49999   0.87156   0.68392   0.00000  Uiso   1.00
O970   O     0.50001   0.79511   0.81608   0.00000  Uiso   1.00
O971   O     0.50001   0.87156   0.81608   0.00000  Uiso   1.00
O972   O     0.49999   0.79511   0.68393   0.00000  Uiso   1.00
Zn973  Zn    0.50000   0.88437   0.75000   0.00000  Uiso   1.00
Zn974  Zn    0.50000   0.78229   0.75000   0.00000  Uiso   1.00
Br975  Br    0.41014   0.83784   0.87081   0.00000  Uiso   1.00
Br976  Br    0.58986   0.82883   0.62919   0.00000  Uiso   1.00
Br977  Br    0.37125   0.79557   0.95863   0.00000  Uiso   1.00
Br978  Br    0.62875   0.87109   0.54137   0.00000  Uiso   1.00
H979   H     0.37105   0.76247   0.73106   0.00000  Uiso   1.00
H980   H     0.62895   0.90420   0.76894   0.00000  Uiso   1.00
H981   H     0.62918   0.76234   0.73166   0.00000  Uiso   1.00
H982   H     0.37082   0.90433   0.76834   0.00000  Uiso   1.00
H983   H     0.54946   0.70855   0.79673   0.00000  Uiso   1.00
H984   H     0.45054   0.95812   0.70327   0.00000  Uiso   1.00
H985   H     0.45054   0.70905   0.70327   0.00000  Uiso   1.00
H986   H     0.54946   0.95762   0.79673   0.00000  Uiso   1.00
C987   C     0.75331   0.83337   0.74968   0.00000  Uiso   1.00
C988   C     0.91336   0.83330   0.75032   0.00000  Uiso   1.00
C989   C     0.75929   0.82082   0.52629   0.00000  Uiso   1.00
C990   C     0.90738   0.84585   0.97371   0.00000  Uiso   1.00
C991   C     0.68806   0.79343   0.73951   0.00000  Uiso   1.00
C992   C     0.97861   0.87324   0.76049   0.00000  Uiso   1.00
C993   C     0.97874   0.79334   0.73991   0.00000  Uiso   1.00
C994   C     0.68793   0.87333   0.76009   0.00000  Uiso   1.00
C995   C     0.95751   0.83325   0.75036   0.00000  Uiso   1.00
C996   C     0.70916   0.83341   0.74964   0.00000  Uiso   1.00
C997   C     0.86082   0.69050   0.77596   0.00000  Uiso   1.00
C998   C     0.80585   0.97616   0.72404   0.00000  Uiso   1.00
C999   C     0.80585   0.69078   0.72404   0.00000  Uiso   1.00
C1000  C     0.86082   0.97588   0.77596   0.00000  Uiso   1.00
C1001  C     0.83381   0.83341   0.66358   0.00000  Uiso   1.00
C1002  C     0.83286   0.83325   0.83642   0.00000  Uiso   1.00
C1003  C     0.86901   0.83657   0.90611   0.00000  Uiso   1.00
C1004  C     0.79766   0.83009   0.59389   0.00000  Uiso   1.00
C1005  C     0.83142   0.83293   0.88403   0.00000  Uiso   1.00
C1006  C     0.83525   0.83374   0.61597   0.00000  Uiso   1.00
C1007  C     0.79326   0.82978   0.90664   0.00000  Uiso   1.00
C1008  C     0.87341   0.83689   0.59336   0.00000  Uiso   1.00
C1009  C     0.79344   0.82672   0.95394   0.00000  Uiso   1.00
C1010  C     0.87323   0.83995   0.54606   0.00000  Uiso   1.00
C1011  C     0.83239   0.83283   0.97653   0.00000  Uiso   1.00
C1012  C     0.83428   0.83383   0.52347   0.00000  Uiso   1.00
C1013  C     0.86970   0.83799   0.95218   0.00000  Uiso   1.00
C1014  C     0.79697   0.82868   0.54782   0.00000  Uiso   1.00
C1015  C     0.75714   0.81822   0.97999   0.00000  Uiso   1.00
C1016  C     0.90953   0.84844   0.52001   0.00000  Uiso   1.00
H1017  H     0.89772   0.83975   0.88703   0.00000  Uiso   1.00
H1018  H     0.76895   0.82692   0.61297   0.00000  Uiso   1.00
H1019  H     0.73132   0.81489   0.54589   0.00000  Uiso   1.00
H1020  H     0.93535   0.85178   0.95411   0.00000  Uiso   1.00
N1021  N     0.83333   0.95240   0.75000   0.00000  Uiso   1.00
N1022  N     0.83333   0.71427   0.75000   0.00000  Uiso   1.00
O1023  O     0.77226   0.87154   0.74999   0.00000  Uiso   1.00
O1024  O     0.89441   0.79513   0.75001   0.00000  Uiso   1.00
O1025  O     0.89441   0.87154   0.75001   0.00000  Uiso   1.00
O1026  O     0.77226   0.79513   0.75000   0.00000  Uiso   1.00
O1027  O     0.83333   0.87156   0.68392   0.00000  Uiso   1.00
O1028  O     0.83334   0.79511   0.81608   0.00000  Uiso   1.00
O1029  O     0.83334   0.87156   0.81608   0.00000  Uiso   1.00
O1030  O     0.83333   0.79511   0.68393   0.00000  Uiso   1.00
Zn1031 Zn    0.83333   0.88437   0.75000   0.00000  Uiso   1.00
Zn1032 Zn    0.83333   0.78229   0.75000   0.00000  Uiso   1.00
Br1033 Br    0.74348   0.83784   0.87081   0.00000  Uiso   1.00
Br1034 Br    0.92319   0.82883   0.62919   0.00000  Uiso   1.00
Br1035 Br    0.70458   0.79557   0.95863   0.00000  Uiso   1.00
Br1036 Br    0.96208   0.87109   0.54137   0.00000  Uiso   1.00
H1037  H     0.70438   0.76247   0.73106   0.00000  Uiso   1.00
H1038  H     0.96228   0.90420   0.76894   0.00000  Uiso   1.00
H1039  H     0.96251   0.76234   0.73166   0.00000  Uiso   1.00
H1040  H     0.70416   0.90433   0.76834   0.00000  Uiso   1.00
H1041  H     0.88279   0.70855   0.79673   0.00000  Uiso   1.00
H1042  H     0.78387   0.95812   0.70327   0.00000  Uiso   1.00
H1043  H     0.78387   0.70905   0.70327   0.00000  Uiso   1.00
H1044  H     0.88279   0.95762   0.79673   0.00000  Uiso   1.00
loop_
_geom_bond_atom_site_label_1
_geom_bond_atom_site_label_2
_geom_bond_distance
_geom_bond_site_symmetry_2
_ccdc_geom_bond_type
C1     O37     1.282   .     A
C1     O40     1.282   .     A
C1     C10     1.417   .     S
C2     O38     1.282   .     A
C2     C9      1.417   .     S
C2     O39     1.282   .     A
C3     H33     1.085   .     S
C3     C28     1.391   .     A
C3     C551    1.386   1_554 S
C4     C27     1.391   .     A
C4     H34     1.085   .     S
C4     C552    1.386   .     S
C5     C10     1.397   .     A
C5     H51     1.084   .     S
C5     C123    1.369   1_455 S
C6     H52     1.084   .     S
C6     C9      1.397   .     A
C6     C66     1.369   .     S
C7     C9      1.397   .     A
C7     H53     1.084   .     S
C7     C63     1.369   .     S
C8     C10     1.397   .     A
C8     H54     1.084   .     S
C8     C122    1.369   1_455 S
C11    H55     1.082   .     S
C11    N36     1.366   .     A
C11    C362    1.417   1_545 S
C12    N35     1.366   .     A
C12    H56     1.082   .     S
C12    C187    1.417   .     S
C13    H57     1.082   .     S
C13    N36     1.366   .     A
C13    C360    1.417   1_545 S
C14    H58     1.082   .     S
C14    N35     1.366   .     A
C14    C185    1.417   .     S
C15    O44     1.283   .     A
C15    C20     1.421   .     S
C15    O41     1.282   .     A
C16    O43     1.283   .     A
C16    C19     1.421   .     S
C16    O42     1.282   .     A
C17    H31     1.087   .     S
C17    C19     1.380   .     A
C17    C27     1.376   .     A
C18    C20     1.380   .     A
C18    H32     1.087   .     S
C18    C28     1.376   .     A
C19    C21     1.401   .     A
C20    C22     1.401   .     A
C21    C23     1.414   .     A
C21    Br47    1.938   .     S
C22    Br48    1.938   .     S
C22    C24     1.414   .     A
C23    C25     1.433   .     A
C23    C29     1.423   .     A
C24    C26     1.433   .     A
C24    C30     1.423   .     A
C25    C27     1.408   .     A
C25    C548    1.402   .     S
C26    C28     1.408   .     A
C26    C547    1.402   1_554 S
C29    Br49    1.926   .     S
C29    C525    1.386   .     S
C30    Br50    1.926   .     S
C30    C526    1.386   1_554 S
N35    Zn45    2.010   .     S
N36    Zn46    2.010   .     S
O37    Zn45    1.998   .     S
O38    Zn46    1.998   .     S
O39    Zn45    1.996   .     S
O40    Zn46    1.996   .     S
O41    Zn45    2.009   .     S
O42    Zn46    2.009   .     S
O43    Zn45    2.006   .     S
O44    Zn46    2.006   .     S
C59    O95     1.282   .     A
C59    O98     1.282   .     A
C59    C68     1.417   .     S
C60    O96     1.282   .     A
C60    C67     1.417   .     S
C60    O97     1.282   .     A
C61    H91     1.085   .     S
C61    C86     1.391   .     A
C61    C609    1.386   1_554 S
C62    C85     1.391   .     A
C62    H92     1.085   .     S
C62    C610    1.386   .     S
C63    C68     1.397   .     A
C63    H109    1.084   .     S
C64    H110    1.084   .     S
C64    C67     1.397   .     A
C64    C124    1.369   .     S
C65    C67     1.397   .     A
C65    H111    1.084   .     S
C65    C121    1.369   .     S
C66    C68     1.397   .     A
C66    H112    1.084   .     S
C69    H113    1.082   .     S
C69    N94     1.366   .     A
C69    C420    1.417   1_545 S
C70    N93     1.366   .     A
C70    H114    1.082   .     S
C70    C245    1.417   .     S
C71    H115    1.082   .     S
C71    N94     1.366   .     A
C71    C418    1.417   1_545 S
C72    H116    1.082   .     S
C72    N93     1.366   .     A
C72    C243    1.417   .     S
C73    O102    1.283   .     A
C73    C78     1.421   .     S
C73    O99     1.282   .     A
C74    O101    1.283   .     A
C74    C77     1.421   .     S
C74    O100    1.282   .     A
C75    H89     1.087   .     S
C75    C77     1.380   .     A
C75    C85     1.376   .     A
C76    C78     1.380   .     A
C76    H90     1.087   .     S
C76    C86     1.376   .     A
C77    C79     1.401   .     A
C78    C80     1.401   .     A
C79    C81     1.414   .     A
C79    Br105   1.938   .     S
C80    Br106   1.938   .     S
C80    C82     1.414   .     A
C81    C83     1.433   .     A
C81    C87     1.423   .     A
C82    C84     1.433   .     A
C82    C88     1.423   .     A
C83    C85     1.408   .     A
C83    C606    1.402   .     S
C84    C86     1.408   .     A
C84    C605    1.402   1_554 S
C87    Br107   1.926   .     S
C87    C583    1.386   .     S
C88    Br108   1.926   .     S
C88    C584    1.386   1_554 S
N93    Zn103   2.010   .     S
N94    Zn104   2.010   .     S
O95    Zn103   1.998   .     S
O96    Zn104   1.998   .     S
O97    Zn103   1.996   .     S
O98    Zn104   1.996   .     S
O99    Zn103   2.009   .     S
O100   Zn104   2.009   .     S
O101   Zn103   2.006   .     S
O102   Zn104   2.006   .     S
C117   O153    1.282   .     A
C117   O156    1.282   .     A
C117   C126    1.417   .     S
C118   O154    1.282   .     A
C118   C125    1.417   .     S
C118   O155    1.282   .     A
C119   H149    1.085   .     S
C119   C144    1.391   .     A
C119   C667    1.386   1_554 S
C120   C143    1.391   .     A
C120   H150    1.085   .     S
C120   C668    1.386   .     S
C121   C126    1.397   .     A
C121   H167    1.084   .     S
C122   H168    1.084   .     S
C122   C125    1.397   .     A
C122   C8      1.369   1_655 S
C123   C125    1.397   .     A
C123   H169    1.084   .     S
C123   C5      1.369   1_655 S
C124   C126    1.397   .     A
C124   H170    1.084   .     S
C127   H171    1.082   .     S
C127   N152    1.366   .     A
C127   C478    1.417   1_545 S
C128   N151    1.366   .     A
C128   H172    1.082   .     S
C128   C303    1.417   .     S
C129   H173    1.082   .     S
C129   N152    1.366   .     A
C129   C476    1.417   1_545 S
C130   H174    1.082   .     S
C130   N151    1.366   .     A
C130   C301    1.417   .     S
C131   O160    1.283   .     A
C131   C136    1.421   .     S
C131   O157    1.282   .     A
C132   O159    1.283   .     A
C132   C135    1.421   .     S
C132   O158    1.282   .     A
C133   H147    1.087   .     S
C133   C135    1.380   .     A
C133   C143    1.376   .     A
C134   C136    1.380   .     A
C134   H148    1.087   .     S
C134   C144    1.376   .     A
C135   C137    1.401   .     A
C136   C138    1.401   .     A
C137   C139    1.414   .     A
C137   Br163   1.938   .     S
C138   Br164   1.938   .     S
C138   C140    1.414   .     A
C139   C141    1.433   .     A
C139   C145    1.423   .     A
C140   C142    1.433   .     A
C140   C146    1.423   .     A
C141   C143    1.408   .     A
C141   C664    1.402   .     S
C142   C144    1.408   .     A
C142   C663    1.402   1_554 S
C145   Br165   1.926   .     S
C145   C641    1.386   .     S
C146   Br166   1.926   .     S
C146   C642    1.386   1_554 S
N151   Zn161   2.010   .     S
N152   Zn162   2.010   .     S
O153   Zn161   1.998   .     S
O154   Zn162   1.998   .     S
O155   Zn161   1.996   .     S
O156   Zn162   1.996   .     S
O157   Zn161   2.009   .     S
O158   Zn162   2.009   .     S
O159   Zn161   2.006   .     S
O160   Zn162   2.006   .     S
C175   O211    1.282   .     A
C175   O214    1.282   .     A
C175   C184    1.417   .     S
C176   O212    1.282   .     A
C176   C183    1.417   .     S
C176   O213    1.282   .     A
C177   H207    1.085   .     S
C177   C202    1.391   .     A
C177   C725    1.386   1_554 S
C178   C201    1.391   .     A
C178   H208    1.085   .     S
C178   C726    1.386   .     S
C179   C184    1.397   .     A
C179   H225    1.084   .     S
C179   C297    1.369   1_455 S
C180   H226    1.084   .     S
C180   C183    1.397   .     A
C180   C240    1.369   .     S
C181   C183    1.397   .     A
C181   H227    1.084   .     S
C181   C237    1.369   .     S
C182   C184    1.397   .     A
C182   H228    1.084   .     S
C182   C296    1.369   1_455 S
C185   H229    1.082   .     S
C185   N210    1.366   .     A
C186   N209    1.366   .     A
C186   H230    1.082   .     S
C186   C361    1.417   .     S
C187   H231    1.082   .     S
C187   N210    1.366   .     A
C188   H232    1.082   .     S
C188   N209    1.366   .     A
C188   C359    1.417   .     S
C189   O218    1.283   .     A
C189   C194    1.421   .     S
C189   O215    1.282   .     A
C190   O217    1.283   .     A
C190   C193    1.421   .     S
C190   O216    1.282   .     A
C191   H205    1.087   .     S
C191   C193    1.380   .     A
C191   C201    1.376   .     A
C192   C194    1.380   .     A
C192   H206    1.087   .     S
C192   C202    1.376   .     A
C193   C195    1.401   .     A
C194   C196    1.401   .     A
C195   C197    1.414   .     A
C195   Br221   1.938   .     S
C196   Br222   1.938   .     S
C196   C198    1.414   .     A
C197   C199    1.433   .     A
C197   C203    1.423   .     A
C198   C200    1.433   .     A
C198   C204    1.423   .     A
C199   C201    1.408   .     A
C199   C722    1.402   .     S
C200   C202    1.408   .     A
C200   C721    1.402   1_554 S
C203   Br223   1.926   .     S
C203   C699    1.386   .     S
C204   Br224   1.926   .     S
C204   C700    1.386   1_554 S
N209   Zn219   2.010   .     S
N210   Zn220   2.010   .     S
O211   Zn219   1.998   .     S
O212   Zn220   1.998   .     S
O213   Zn219   1.996   .     S
O214   Zn220   1.996   .     S
O215   Zn219   2.009   .     S
O216   Zn220   2.009   .     S
O217   Zn219   2.006   .     S
O218   Zn220   2.006   .     S
C233   O269    1.282   .     A
C233   O272    1.282   .     A
C233   C242    1.417   .     S
C234   O270    1.282   .     A
C234   C241    1.417   .     S
C234   O271    1.282   .     A
C235   H265    1.085   .     S
C235   C260    1.391   .     A
C235   C783    1.386   1_554 S
C236   C259    1.391   .     A
C236   H266    1.085   .     S
C236   C784    1.386   .     S
C237   C242    1.397   .     A
C237   H283    1.084   .     S
C238   H284    1.084   .     S
C238   C241    1.397   .     A
C238   C298    1.369   .     S
C239   C241    1.397   .     A
C239   H285    1.084   .     S
C239   C295    1.369   .     S
C240   C242    1.397   .     A
C240   H286    1.084   .     S
C243   H287    1.082   .     S
C243   N268    1.366   .     A
C244   N267    1.366   .     A
C244   H288    1.082   .     S
C244   C419    1.417   .     S
C245   H289    1.082   .     S
C245   N268    1.366   .     A
C246   H290    1.082   .     S
C246   N267    1.366   .     A
C246   C417    1.417   .     S
C247   O276    1.283   .     A
C247   C252    1.421   .     S
C247   O273    1.282   .     A
C248   O275    1.283   .     A
C248   C251    1.421   .     S
C248   O274    1.282   .     A
C249   H263    1.087   .     S
C249   C251    1.380   .     A
C249   C259    1.376   .     A
C250   C252    1.380   .     A
C250   H264    1.087   .     S
C250   C260    1.376   .     A
C251   C253    1.401   .     A
C252   C254    1.401   .     A
C253   C255    1.414   .     A
C253   Br279   1.938   .     S
C254   Br280   1.938   .     S
C254   C256    1.414   .     A
C255   C257    1.433   .     A
C255   C261    1.423   .     A
C256   C258    1.433   .     A
C256   C262    1.423   .     A
C257   C259    1.408   .     A
C257   C780    1.402   .     S
C258   C260    1.408   .     A
C258   C779    1.402   1_554 S
C261   Br281   1.926   .     S
C261   C757    1.386   .     S
C262   Br282   1.926   .     S
C262   C758    1.386   1_554 S
N267   Zn277   2.010   .     S
N268   Zn278   2.010   .     S
O269   Zn277   1.998   .     S
O270   Zn278   1.998   .     S
O271   Zn277   1.996   .     S
O272   Zn278   1.996   .     S
O273   Zn277   2.009   .     S
O274   Zn278   2.009   .     S
O275   Zn277   2.006   .     S
O276   Zn278   2.006   .     S
C291   O327    1.282   .     A
C291   O330    1.282   .     A
C291   C300    1.417   .     S
C292   O328    1.282   .     A
C292   C299    1.417   .     S
C292   O329    1.282   .     A
C293   H323    1.085   .     S
C293   C318    1.391   .     A
C293   C841    1.386   1_554 S
C294   C317    1.391   .     A
C294   H324    1.085   .     S
C294   C842    1.386   .     S
C295   C300    1.397   .     A
C295   H341    1.084   .     S
C296   H342    1.084   .     S
C296   C299    1.397   .     A
C296   C182    1.369   1_655 S
C297   C299    1.397   .     A
C297   H343    1.084   .     S
C297   C179    1.369   1_655 S
C298   C300    1.397   .     A
C298   H344    1.084   .     S
C301   H345    1.082   .     S
C301   N326    1.366   .     A
C302   N325    1.366   .     A
C302   H346    1.082   .     S
C302   C477    1.417   .     S
C303   H347    1.082   .     S
C303   N326    1.366   .     A
C304   H348    1.082   .     S
C304   N325    1.366   .     A
C304   C475    1.417   .     S
C305   O334    1.283   .     A
C305   C310    1.421   .     S
C305   O331    1.282   .     A
C306   O333    1.283   .     A
C306   C309    1.421   .     S
C306   O332    1.282   .     A
C307   H321    1.087   .     S
C307   C309    1.380   .     A
C307   C317    1.376   .     A
C308   C310    1.380   .     A
C308   H322    1.087   .     S
C308   C318    1.376   .     A
C309   C311    1.401   .     A
C310   C312    1.401   .     A
C311   C313    1.414   .     A
C311   Br337   1.938   .     S
C312   Br338   1.938   .     S
C312   C314    1.414   .     A
C313   C315    1.433   .     A
C313   C319    1.423   .     A
C314   C316    1.433   .     A
C314   C320    1.423   .     A
C315   C317    1.408   .     A
C315   C838    1.402   .     S
C316   C318    1.408   .     A
C316   C837    1.402   1_554 S
C319   Br339   1.926   .     S
C319   C815    1.386   .     S
C320   Br340   1.926   .     S
C320   C816    1.386   1_554 S
N325   Zn335   2.010   .     S
N326   Zn336   2.010   .     S
O327   Zn335   1.998   .     S
O328   Zn336   1.998   .     S
O329   Zn335   1.996   .     S
O330   Zn336   1.996   .     S
O331   Zn335   2.009   .     S
O332   Zn336   2.009   .     S
O333   Zn335   2.006   .     S
O334   Zn336   2.006   .     S
C349   O385    1.282   .     A
C349   O388    1.282   .     A
C349   C358    1.417   .     S
C350   O386    1.282   .     A
C350   C357    1.417   .     S
C350   O387    1.282   .     A
C351   H381    1.085   .     S
C351   C376    1.391   .     A
C351   C899    1.386   1_554 S
C352   C375    1.391   .     A
C352   H382    1.085   .     S
C352   C900    1.386   .     S
C353   C358    1.397   .     A
C353   H399    1.084   .     S
C353   C471    1.369   1_455 S
C354   H400    1.084   .     S
C354   C357    1.397   .     A
C354   C414    1.369   .     S
C355   C357    1.397   .     A
C355   H401    1.084   .     S
C355   C411    1.369   .     S
C356   C358    1.397   .     A
C356   H402    1.084   .     S
C356   C470    1.369   1_455 S
C359   H403    1.082   .     S
C359   N384    1.366   .     A
C360   N383    1.366   .     A
C360   H404    1.082   .     S
C360   C13     1.417   1_565 S
C361   H405    1.082   .     S
C361   N384    1.366   .     A
C362   H406    1.082   .     S
C362   N383    1.366   .     A
C362   C11     1.417   1_565 S
C363   O392    1.283   .     A
C363   C368    1.421   .     S
C363   O389    1.282   .     A
C364   O391    1.283   .     A
C364   C367    1.421   .     S
C364   O390    1.282   .     A
C365   H379    1.087   .     S
C365   C367    1.380   .     A
C365   C375    1.376   .     A
C366   C368    1.380   .     A
C366   H380    1.087   .     S
C366   C376    1.376   .     A
C367   C369    1.401   .     A
C368   C370    1.401   .     A
C369   C371    1.414   .     A
C369   Br395   1.938   .     S
C370   Br396   1.938   .     S
C370   C372    1.414   .     A
C371   C373    1.433   .     A
C371   C377    1.423   .     A
C372   C374    1.433   .     A
C372   C378    1.423   .     A
C373   C375    1.408   .     A
C373   C896    1.402   .     S
C374   C376    1.408   .     A
C374   C895    1.402   1_554 S
C377   Br397   1.926   .     S
C377   C873    1.386   .     S
C378   Br398   1.926   .     S
C378   C874    1.386   1_554 S
N383   Zn393   2.010   .     S
N384   Zn394   2.010   .     S
O385   Zn393   1.998   .     S
O386   Zn394   1.998   .     S
O387   Zn393   1.996   .     S
O388   Zn394   1.996   .     S
O389   Zn393   2.009   .     S
O390   Zn394   2.009   .     S
O391   Zn393   2.006   .     S
O392   Zn394   2.006   .     S
C407   O443    1.282   .     A
C407   O446    1.282   .     A
C407   C416    1.417   .     S
C408   O444    1.282   .     A
C408   C415    1.417   .     S
C408   O445    1.282   .     A
C409   H439    1.085   .     S
C409   C434    1.391   .     A
C409   C957    1.386   1_554 S
C410   C433    1.391   .     A
C410   H440    1.085   .     S
C410   C958    1.386   .     S
C411   C416    1.397   .     A
C411   H457    1.084   .     S
C412   H458    1.084   .     S
C412   C415    1.397   .     A
C412   C472    1.369   .     S
C413   C415    1.397   .     A
C413   H459    1.084   .     S
C413   C469    1.369   .     S
C414   C416    1.397   .     A
C414   H460    1.084   .     S
C417   H461    1.082   .     S
C417   N442    1.366   .     A
C418   N441    1.366   .     A
C418   H462    1.082   .     S
C418   C71     1.417   1_565 S
C419   H463    1.082   .     S
C419   N442    1.366   .     A
C420   H464    1.082   .     S
C420   N441    1.366   .     A
C420   C69     1.417   1_565 S
C421   O450    1.283   .     A
C421   C426    1.421   .     S
C421   O447    1.282   .     A
C422   O449    1.283   .     A
C422   C425    1.421   .     S
C422   O448    1.282   .     A
C423   H437    1.087   .     S
C423   C425    1.380   .     A
C423   C433    1.376   .     A
C424   C426    1.380   .     A
C424   H438    1.087   .     S
C424   C434    1.376   .     A
C425   C427    1.401   .     A
C426   C428    1.401   .     A
C427   C429    1.414   .     A
C427   Br453   1.938   .     S
C428   Br454   1.938   .     S
C428   C430    1.414   .     A
C429   C431    1.433   .     A
C429   C435    1.423   .     A
C430   C432    1.433   .     A
C430   C436    1.423   .     A
C431   C433    1.408   .     A
C431   C954    1.402   .     S
C432   C434    1.408   .     A
C432   C953    1.402   1_554 S
C435   Br455   1.926   .     S
C435   C931    1.386   .     S
C436   Br456   1.926   .     S
C436   C932    1.386   1_554 S
N441   Zn451   2.010   .     S
N442   Zn452   2.010   .     S
O443   Zn451   1.998   .     S
O444   Zn452   1.998   .     S
O445   Zn451   1.996   .     S
O446   Zn452   1.996   .     S
O447   Zn451   2.009   .     S
O448   Zn452   2.009   .     S
O449   Zn451   2.006   .     S
O450   Zn452   2.006   .     S
C465   O501    1.282   .     A
C465   O504    1.282   .     A
C465   C474    1.417   .     S
C466   O502    1.282   .     A
C466   C473    1.417   .     S
C466   O503    1.282   .     A
C467   H497    1.085   .     S
C467   C492    1.391   .     A
C467   C1015   1.386   1_554 S
C468   C491    1.391   .     A
C468   H498    1.085   .     S
C468   C1016   1.386   .     S
C469   C474    1.397   .     A
C469   H515    1.084   .     S
C470   H516    1.084   .     S
C470   C473    1.397   .     A
C470   C356    1.369   1_655 S
C471   C473    1.397   .     A
C471   H517    1.084   .     S
C471   C353    1.369   1_655 S
C472   C474    1.397   .     A
C472   H518    1.084   .     S
C475   H519    1.082   .     S
C475   N500    1.366   .     A
C476   N499    1.366   .     A
C476   H520    1.082   .     S
C476   C129    1.417   1_565 S
C477   H521    1.082   .     S
C477   N500    1.366   .     A
C478   H522    1.082   .     S
C478   N499    1.366   .     A
C478   C127    1.417   1_565 S
C479   O508    1.283   .     A
C479   C484    1.421   .     S
C479   O505    1.282   .     A
C480   O507    1.283   .     A
C480   C483    1.421   .     S
C480   O506    1.282   .     A
C481   H495    1.087   .     S
C481   C483    1.380   .     A
C481   C491    1.376   .     A
C482   C484    1.380   .     A
C482   H496    1.087   .     S
C482   C492    1.376   .     A
C483   C485    1.401   .     A
C484   C486    1.401   .     A
C485   C487    1.414   .     A
C485   Br511   1.938   .     S
C486   Br512   1.938   .     S
C486   C488    1.414   .     A
C487   C489    1.433   .     A
C487   C493    1.423   .     A
C488   C490    1.433   .     A
C488   C494    1.423   .     A
C489   C491    1.408   .     A
C489   C1012   1.402   .     S
C490   C492    1.408   .     A
C490   C1011   1.402   1_554 S
C493   Br513   1.926   .     S
C493   C989    1.386   .     S
C494   Br514   1.926   .     S
C494   C990    1.386   1_554 S
N499   Zn509   2.010   .     S
N500   Zn510   2.010   .     S
O501   Zn509   1.998   .     S
O502   Zn510   1.998   .     S
O503   Zn509   1.996   .     S
O504   Zn510   1.996   .     S
O505   Zn509   2.009   .     S
O506   Zn510   2.009   .     S
O507   Zn509   2.006   .     S
O508   Zn510   2.006   .     S
C523   O559    1.282   .     A
C523   O562    1.282   .     A
C523   C532    1.417   .     S
C524   O560    1.282   .     A
C524   C531    1.417   .     S
C524   O561    1.282   .     A
C525   H555    1.085   .     S
C525   C550    1.391   .     A
C526   C549    1.391   .     A
C526   H556    1.085   .     S
C526   C30     1.386   1_556 S
C527   C532    1.397   .     A
C527   H573    1.084   .     S
C527   C645    1.369   1_455 S
C528   H574    1.084   .     S
C528   C531    1.397   .     A
C528   C588    1.369   .     S
C529   C531    1.397   .     A
C529   H575    1.084   .     S
C529   C585    1.369   .     S
C530   C532    1.397   .     A
C530   H576    1.084   .     S
C530   C644    1.369   1_455 S
C533   H577    1.082   .     S
C533   N558    1.366   .     A
C533   C884    1.417   1_545 S
C534   N557    1.366   .     A
C534   H578    1.082   .     S
C534   C709    1.417   .     S
C535   H579    1.082   .     S
C535   N558    1.366   .     A
C535   C882    1.417   1_545 S
C536   H580    1.082   .     S
C536   N557    1.366   .     A
C536   C707    1.417   .     S
C537   O566    1.283   .     A
C537   C542    1.421   .     S
C537   O563    1.282   .     A
C538   O565    1.283   .     A
C538   C541    1.421   .     S
C538   O564    1.282   .     A
C539   H553    1.087   .     S
C539   C541    1.380   .     A
C539   C549    1.376   .     A
C540   C542    1.380   .     A
C540   H554    1.087   .     S
C540   C550    1.376   .     A
C541   C543    1.401   .     A
C542   C544    1.401   .     A
C543   C545    1.414   .     A
C543   Br569   1.938   .     S
C544   Br570   1.938   .     S
C544   C546    1.414   .     A
C545   C547    1.433   .     A
C545   C551    1.423   .     A
C546   C548    1.433   .     A
C546   C552    1.423   .     A
C547   C549    1.408   .     A
C547   C26     1.402   1_556 S
C548   C550    1.408   .     A
C551   Br571   1.926   .     S
C551   C3      1.386   1_556 S
C552   Br572   1.926   .     S
N557   Zn567   2.010   .     S
N558   Zn568   2.010   .     S
O559   Zn567   1.998   .     S
O560   Zn568   1.998   .     S
O561   Zn567   1.996   .     S
O562   Zn568   1.996   .     S
O563   Zn567   2.009   .     S
O564   Zn568   2.009   .     S
O565   Zn567   2.006   .     S
O566   Zn568   2.006   .     S
C581   O617    1.282   .     A
C581   O620    1.282   .     A
C581   C590    1.417   .     S
C582   O618    1.282   .     A
C582   C589    1.417   .     S
C582   O619    1.282   .     A
C583   H613    1.085   .     S
C583   C608    1.391   .     A
C584   C607    1.391   .     A
C584   H614    1.085   .     S
C584   C88     1.386   1_556 S
C585   C590    1.397   .     A
C585   H631    1.084   .     S
C586   H632    1.084   .     S
C586   C589    1.397   .     A
C586   C646    1.369   .     S
C587   C589    1.397   .     A
C587   H633    1.084   .     S
C587   C643    1.369   .     S
C588   C590    1.397   .     A
C588   H634    1.084   .     S
C591   H635    1.082   .     S
C591   N616    1.366   .     A
C591   C942    1.417   1_545 S
C592   N615    1.366   .     A
C592   H636    1.082   .     S
C592   C767    1.417   .     S
C593   H637    1.082   .     S
C593   N616    1.366   .     A
C593   C940    1.417   1_545 S
C594   H638    1.082   .     S
C594   N615    1.366   .     A
C594   C765    1.417   .     S
C595   O624    1.283   .     A
C595   C600    1.421   .     S
C595   O621    1.282   .     A
C596   O623    1.283   .     A
C596   C599    1.421   .     S
C596   O622    1.282   .     A
C597   H611    1.087   .     S
C597   C599    1.380   .     A
C597   C607    1.376   .     A
C598   C600    1.380   .     A
C598   H612    1.087   .     S
C598   C608    1.376   .     A
C599   C601    1.401   .     A
C600   C602    1.401   .     A
C601   C603    1.414   .     A
C601   Br627   1.938   .     S
C602   Br628   1.938   .     S
C602   C604    1.414   .     A
C603   C605    1.433   .     A
C603   C609    1.423   .     A
C604   C606    1.433   .     A
C604   C610    1.423   .     A
C605   C607    1.408   .     A
C605   C84     1.402   1_556 S
C606   C608    1.408   .     A
C609   Br629   1.926   .     S
C609   C61     1.386   1_556 S
C610   Br630   1.926   .     S
N615   Zn625   2.010   .     S
N616   Zn626   2.010   .     S
O617   Zn625   1.998   .     S
O618   Zn626   1.998   .     S
O619   Zn625   1.996   .     S
O620   Zn626   1.996   .     S
O621   Zn625   2.009   .     S
O622   Zn626   2.009   .     S
O623   Zn625   2.006   .     S
O624   Zn626   2.006   .     S
C639   O675    1.282   .     A
C639   O678    1.282   .     A
C639   C648    1.417   .     S
C640   O676    1.282   .     A
C640   C647    1.417   .     S
C640   O677    1.282   .     A
C641   H671    1.085   .     S
C641   C666    1.391   .     A
C642   C665    1.391   .     A
C642   H672    1.085   .     S
C642   C146    1.386   1_556 S
C643   C648    1.397   .     A
C643   H689    1.084   .     S
C644   H690    1.084   .     S
C644   C647    1.397   .     A
C644   C530    1.369   1_655 S
C645   C647    1.397   .     A
C645   H691    1.084   .     S
C645   C527    1.369   1_655 S
C646   C648    1.397   .     A
C646   H692    1.084   .     S
C649   H693    1.082   .     S
C649   N674    1.366   .     A
C649   C1000   1.417   1_545 S
C650   N673    1.366   .     A
C650   H694    1.082   .     S
C650   C825    1.417   .     S
C651   H695    1.082   .     S
C651   N674    1.366   .     A
C651   C998    1.417   1_545 S
C652   H696    1.082   .     S
C652   N673    1.366   .     A
C652   C823    1.417   .     S
C653   O682    1.283   .     A
C653   C658    1.421   .     S
C653   O679    1.282   .     A
C654   O681    1.283   .     A
C654   C657    1.421   .     S
C654   O680    1.282   .     A
C655   H669    1.087   .     S
C655   C657    1.380   .     A
C655   C665    1.376   .     A
C656   C658    1.380   .     A
C656   H670    1.087   .     S
C656   C666    1.376   .     A
C657   C659    1.401   .     A
C658   C660    1.401   .     A
C659   C661    1.414   .     A
C659   Br685   1.938   .     S
C660   Br686   1.938   .     S
C660   C662    1.414   .     A
C661   C663    1.433   .     A
C661   C667    1.423   .     A
C662   C664    1.433   .     A
C662   C668    1.423   .     A
C663   C665    1.408   .     A
C663   C142    1.402   1_556 S
C664   C666    1.408   .     A
C667   Br687   1.926   .     S
C667   C119    1.386   1_556 S
C668   Br688   1.926   .     S
N673   Zn683   2.010   .     S
N674   Zn684   2.010   .     S
O675   Zn683   1.998   .     S
O676   Zn684   1.998   .     S
O677   Zn683   1.996   .     S
O678   Zn684   1.996   .     S
O679   Zn683   2.009   .     S
O680   Zn684   2.009   .     S
O681   Zn683   2.006   .     S
O682   Zn684   2.006   .     S
C697   O733    1.282   .     A
C697   O736    1.282   .     A
C697   C706    1.417   .     S
C698   O734    1.282   .     A
C698   C705    1.417   .     S
C698   O735    1.282   .     A
C699   H729    1.085   .     S
C699   C724    1.391   .     A
C700   C723    1.391   .     A
C700   H730    1.085   .     S
C700   C204    1.386   1_556 S
C701   C706    1.397   .     A
C701   H747    1.084   .     S
C701   C819    1.369   1_455 S
C702   H748    1.084   .     S
C702   C705    1.397   .     A
C702   C762    1.369   .     S
C703   C705    1.397   .     A
C703   H749    1.084   .     S
C703   C759    1.369   .     S
C704   C706    1.397   .     A
C704   H750    1.084   .     S
C704   C818    1.369   1_455 S
C707   H751    1.082   .     S
C707   N732    1.366   .     A
C708   N731    1.366   .     A
C708   H752    1.082   .     S
C708   C883    1.417   .     S
C709   H753    1.082   .     S
C709   N732    1.366   .     A
C710   H754    1.082   .     S
C710   N731    1.366   .     A
C710   C881    1.417   .     S
C711   O740    1.283   .     A
C711   C716    1.421   .     S
C711   O737    1.282   .     A
C712   O739    1.283   .     A
C712   C715    1.421   .     S
C712   O738    1.282   .     A
C713   H727    1.087   .     S
C713   C715    1.380   .     A
C713   C723    1.376   .     A
C714   C716    1.380   .     A
C714   H728    1.087   .     S
C714   C724    1.376   .     A
C715   C717    1.401   .     A
C716   C718    1.401   .     A
C717   C719    1.414   .     A
C717   Br743   1.938   .     S
C718   Br744   1.938   .     S
C718   C720    1.414   .     A
C719   C721    1.433   .     A
C719   C725    1.423   .     A
C720   C722    1.433   .     A
C720   C726    1.423   .     A
C721   C723    1.408   .     A
C721   C200    1.402   1_556 S
C722   C724    1.408   .     A
C725   Br745   1.926   .     S
C725   C177    1.386   1_556 S
C726   Br746   1.926   .     S
N731   Zn741   2.010   .     S
N732   Zn742   2.010   .     S
O733   Zn741   1.998   .     S
O734   Zn742   1.998   .     S
O735   Zn741   1.996   .     S
O736   Zn742   1.996   .     S
O737   Zn741   2.009   .     S
O738   Zn742   2.009   .     S
O739   Zn741   2.006   .     S
O740   Zn742   2.006   .     S
C755   O791    1.282   .     A
C755   O794    1.282   .     A
C755   C764    1.417   .     S
C756   O792    1.282   .     A
C756   C763    1.417   .     S
C756   O793    1.282   .     A
C757   H787    1.085   .     S
C757   C782    1.391   .     A
C758   C781    1.391   .     A
C758   H788    1.085   .     S
C758   C262    1.386   1_556 S
C759   C764    1.397   .     A
C759   H805    1.084   .     S
C760   H806    1.084   .     S
C760   C763    1.397   .     A
C760   C820    1.369   .     S
C761   C763    1.397   .     A
C761   H807    1.084   .     S
C761   C817    1.369   .     S
C762   C764    1.397   .     A
C762   H808    1.084   .     S
C765   H809    1.082   .     S
C765   N790    1.366   .     A
C766   N789    1.366   .     A
C766   H810    1.082   .     S
C766   C941    1.417   .     S
C767   H811    1.082   .     S
C767   N790    1.366   .     A
C768   H812    1.082   .     S
C768   N789    1.366   .     A
C768   C939    1.417   .     S
C769   O798    1.283   .     A
C769   C774    1.421   .     S
C769   O795    1.282   .     A
C770   O797    1.283   .     A
C770   C773    1.421   .     S
C770   O796    1.282   .     A
C771   H785    1.087   .     S
C771   C773    1.380   .     A
C771   C781    1.376   .     A
C772   C774    1.380   .     A
C772   H786    1.087   .     S
C772   C782    1.376   .     A
C773   C775    1.401   .     A
C774   C776    1.401   .     A
C775   C777    1.414   .     A
C775   Br801   1.938   .     S
C776   Br802   1.938   .     S
C776   C778    1.414   .     A
C777   C779    1.433   .     A
C777   C783    1.423   .     A
C778   C780    1.433   .     A
C778   C784    1.423   .     A
C779   C781    1.408   .     A
C779   C258    1.402   1_556 S
C780   C782    1.408   .     A
C783   Br803   1.926   .     S
C783   C235    1.386   1_556 S
C784   Br804   1.926   .     S
N789   Zn799   2.010   .     S
N790   Zn800   2.010   .     S
O791   Zn799   1.998   .     S
O792   Zn800   1.998   .     S
O793   Zn799   1.996   .     S
O794   Zn800   1.996   .     S
O795   Zn799   2.009   .     S
O796   Zn800   2.009   .     S
O797   Zn799   2.006   .     S
O798   Zn800   2.006   .     S
C813   O849    1.282   .     A
C813   O852    1.282   .     A
C813   C822    1.417   .     S
C814   O850    1.282   .     A
C814   C821    1.417   .     S
C814   O851    1.282   .     A
C815   H845    1.085   .     S
C815   C840    1.391   .     A
C816   C839    1.391   .     A
C816   H846    1.085   .     S
C816   C320    1.386   1_556 S
C817   C822    1.397   .     A
C817   H863    1.084   .     S
C818   H864    1.084   .     S
C818   C821    1.397   .     A
C818   C704    1.369   1_655 S
C819   C821    1.397   .     A
C819   H865    1.084   .     S
C819   C701    1.369   1_655 S
C820   C822    1.397   .     A
C820   H866    1.084   .     S
C823   H867    1.082   .     S
C823   N848    1.366   .     A
C824   N847    1.366   .     A
C824   H868    1.082   .     S
C824   C999    1.417   .     S
C825   H869    1.082   .     S
C825   N848    1.366   .     A
C826   H870    1.082   .     S
C826   N847    1.366   .     A
C826   C997    1.417   .     S
C827   O856    1.283   .     A
C827   C832    1.421   .     S
C827   O853    1.282   .     A
C828   O855    1.283   .     A
C828   C831    1.421   .     S
C828   O854    1.282   .     A
C829   H843    1.087   .     S
C829   C831    1.380   .     A
C829   C839    1.376   .     A
C830   C832    1.380   .     A
C830   H844    1.087   .     S
C830   C840    1.376   .     A
C831   C833    1.401   .     A
C832   C834    1.401   .     A
C833   C835    1.414   .     A
C833   Br859   1.938   .     S
C834   Br860   1.938   .     S
C834   C836    1.414   .     A
C835   C837    1.433   .     A
C835   C841    1.423   .     A
C836   C838    1.433   .     A
C836   C842    1.423   .     A
C837   C839    1.408   .     A
C837   C316    1.402   1_556 S
C838   C840    1.408   .     A
C841   Br861   1.926   .     S
C841   C293    1.386   1_556 S
C842   Br862   1.926   .     S
N847   Zn857   2.010   .     S
N848   Zn858   2.010   .     S
O849   Zn857   1.998   .     S
O850   Zn858   1.998   .     S
O851   Zn857   1.996   .     S
O852   Zn858   1.996   .     S
O853   Zn857   2.009   .     S
O854   Zn858   2.009   .     S
O855   Zn857   2.006   .     S
O856   Zn858   2.006   .     S
C871   O907    1.282   .     A
C871   O910    1.282   .     A
C871   C880    1.417   .     S
C872   O908    1.282   .     A
C872   C879    1.417   .     S
C872   O909    1.282   .     A
C873   H903    1.085   .     S
C873   C898    1.391   .     A
C874   C897    1.391   .     A
C874   H904    1.085   .     S
C874   C378    1.386   1_556 S
C875   C880    1.397   .     A
C875   H921    1.084   .     S
C875   C993    1.369   1_455 S
C876   H922    1.084   .     S
C876   C879    1.397   .     A
C876   C936    1.369   .     S
C877   C879    1.397   .     A
C877   H923    1.084   .     S
C877   C933    1.369   .     S
C878   C880    1.397   .     A
C878   H924    1.084   .     S
C878   C992    1.369   1_455 S
C881   H925    1.082   .     S
C881   N906    1.366   .     A
C882   N905    1.366   .     A
C882   H926    1.082   .     S
C882   C535    1.417   1_565 S
C883   H927    1.082   .     S
C883   N906    1.366   .     A
C884   H928    1.082   .     S
C884   N905    1.366   .     A
C884   C533    1.417   1_565 S
C885   O914    1.283   .     A
C885   C890    1.421   .     S
C885   O911    1.282   .     A
C886   O913    1.283   .     A
C886   C889    1.421   .     S
C886   O912    1.282   .     A
C887   H901    1.087   .     S
C887   C889    1.380   .     A
C887   C897    1.376   .     A
C888   C890    1.380   .     A
C888   H902    1.087   .     S
C888   C898    1.376   .     A
C889   C891    1.401   .     A
C890   C892    1.401   .     A
C891   C893    1.414   .     A
C891   Br917   1.938   .     S
C892   Br918   1.938   .     S
C892   C894    1.414   .     A
C893   C895    1.433   .     A
C893   C899    1.423   .     A
C894   C896    1.433   .     A
C894   C900    1.423   .     A
C895   C897    1.408   .     A
C895   C374    1.402   1_556 S
C896   C898    1.408   .     A
C899   Br919   1.926   .     S
C899   C351    1.386   1_556 S
C900   Br920   1.926   .     S
N905   Zn915   2.010   .     S
N906   Zn916   2.010   .     S
O907   Zn915   1.998   .     S
O908   Zn916   1.998   .     S
O909   Zn915   1.996   .     S
O910   Zn916   1.996   .     S
O911   Zn915   2.009   .     S
O912   Zn916   2.009   .     S
O913   Zn915   2.006   .     S
O914   Zn916   2.006   .     S
C929   O965    1.282   .     A
C929   O968    1.282   .     A
C929   C938    1.417   .     S
C930   O966    1.282   .     A
C930   C937    1.417   .     S
C930   O967    1.282   .     A
C931   H961    1.085   .     S
C931   C956    1.391   .     A
C932   C955    1.391   .     A
C932   H962    1.085   .     S
C932   C436    1.386   1_556 S
C933   C938    1.397   .     A
C933   H979    1.084   .     S
C934   H980    1.084   .     S
C934   C937    1.397   .     A
C934   C994    1.369   .     S
C935   C937    1.397   .     A
C935   H981    1.084   .     S
C935   C991    1.369   .     S
C936   C938    1.397   .     A
C936   H982    1.084   .     S
C939   H983    1.082   .     S
C939   N964    1.366   .     A
C940   N963    1.366   .     A
C940   H984    1.082   .     S
C940   C593    1.417   1_565 S
C941   H985    1.082   .     S
C941   N964    1.366   .     A
C942   H986    1.082   .     S
C942   N963    1.366   .     A
C942   C591    1.417   1_565 S
C943   O972    1.283   .     A
C943   C948    1.421   .     S
C943   O969    1.282   .     A
C944   O971    1.283   .     A
C944   C947    1.421   .     S
C944   O970    1.282   .     A
C945   H959    1.087   .     S
C945   C947    1.380   .     A
C945   C955    1.376   .     A
C946   C948    1.380   .     A
C946   H960    1.087   .     S
C946   C956    1.376   .     A
C947   C949    1.401   .     A
C948   C950    1.401   .     A
C949   C951    1.414   .     A
C949   Br975   1.938   .     S
C950   Br976   1.938   .     S
C950   C952    1.414   .     A
C951   C953    1.433   .     A
C951   C957    1.423   .     A
C952   C954    1.433   .     A
C952   C958    1.423   .     A
C953   C955    1.408   .     A
C953   C432    1.402   1_556 S
C954   C956    1.408   .     A
C957   Br977   1.926   .     S
C957   C409    1.386   1_556 S
C958   Br978   1.926   .     S
N963   Zn973   2.010   .     S
N964   Zn974   2.010   .     S
O965   Zn973   1.998   .     S
O966   Zn974   1.998   .     S
O967   Zn973   1.996   .     S
O968   Zn974   1.996   .     S
O969   Zn973   2.009   .     S
O970   Zn974   2.009   .     S
O971   Zn973   2.006   .     S
O972   Zn974   2.006   .     S
C987   O1023   1.282   .     A
C987   O1026   1.282   .     A
C987   C996    1.417   .     S
C988   O1024   1.282   .     A
C988   C995    1.417   .     S
C988   O1025   1.282   .     A
C989   H1019   1.085   .     S
C989   C1014   1.391   .     A
C990   C1013   1.391   .     A
C990   H1020   1.085   .     S
C990   C494    1.386   1_556 S
C991   C996    1.397   .     A
C991   H1037   1.084   .     S
C992   H1038   1.084   .     S
C992   C995    1.397   .     A
C992   C878    1.369   1_655 S
C993   C995    1.397   .     A
C993   H1039   1.084   .     S
C993   C875    1.369   1_655 S
C994   C996    1.397   .     A
C994   H1040   1.084   .     S
C997   H1041   1.082   .     S
C997   N1022   1.366   .     A
C998   N1021   1.366   .     A
C998   H1042   1.082   .     S
C998   C651    1.417   1_565 S
C999   H1043   1.082   .     S
C999   N1022   1.366   .     A
C1000  H1044   1.082   .     S
C1000  N1021   1.366   .     A
C1000  C649    1.417   1_565 S
C1001  O1030   1.283   .     A
C1001  C1006   1.421   .     S
C1001  O1027   1.282   .     A
C1002  O1029   1.283   .     A
C1002  C1005   1.421   .     S
C1002  O1028   1.282   .     A
C1003  H1017   1.087   .     S
C1003  C1005   1.380   .     A
C1003  C1013   1.376   .     A
C1004  C1006   1.380   .     A
C1004  H1018   1.087   .     S
C1004  C1014   1.376   .     A
C1005  C1007   1.401   .     A
C1006  C1008   1.401   .     A
C1007  C1009   1.414   .     A
C1007  Br1033  1.938   .     S
C1008  Br1034  1.938   .     S
C1008  C1010   1.414   .     A
C1009  C1011   1.433   .     A
C1009  C1015   1.423   .     A
C1010  C1012   1.433   .     A
C1010  C1016   1.423   .     A
C1011  C1013   1.408   .     A
C1011  C490    1.402   1_556 S
C1012  C1014   1.408   .     A
C1015  Br1035  1.926   .     S
C1015  C467    1.386   1_556 S
C1016  Br1036  1.926   .     S
N1021  Zn1031  2.010   .     S
N1022  Zn1032  2.010   .     S
O1023  Zn1031  1.998   .     S
O1024  Zn1032  1.998   .     S
O1025  Zn1031  1.996   .     S
O1026  Zn1032  1.996   .     S
O1027  Zn1031  2.009   .     S
O1028  Zn1032  2.009   .     S
O1029  Zn1031  2.006   .     S
O1030  Zn1032  2.006   .     S
