data_str_m3_o1_o10_pcu_sym.198
_audit_creation_date              2020-01-03
_audit_creation_method            'Materials Studio'
_symmetry_space_group_name_H-M    'P1'
_symmetry_Int_Tables_number       1
_symmetry_cell_setting            triclinic
loop_
_symmetry_equiv_pos_as_xyz
  x,y,z
_cell_length_a                    25.7056
_cell_length_b                    32.1095
_cell_length_c                    29.5297
_cell_angle_alpha                 89.8922
_cell_angle_beta                  98.5391
_cell_angle_gamma                 90.4100
loop_
_atom_site_label
_atom_site_type_symbol
_atom_site_fract_x
_atom_site_fract_y
_atom_site_fract_z
_atom_site_U_iso_or_equiv
_atom_site_adp_type
_atom_site_occupancy
C1     C     0.16660   0.08663   0.16667   0.00000  Uiso   1.00
C2     C     0.16680   0.24670   0.16667   0.00000  Uiso   1.00
C3     C     0.06703   0.16693   0.15470   0.00000  Uiso   1.00
C4     C     0.26628   0.16759   0.17859   0.00000  Uiso   1.00
C5     C     0.01198   0.16655   0.14822   0.00000  Uiso   1.00
C6     C     0.32125   0.17033   0.18480   0.00000  Uiso   1.00
C7     C     0.15415   0.02131   0.12517   0.00000  Uiso   1.00
C8     C     0.17949   0.31201   0.20818   0.00000  Uiso   1.00
C9     C     0.15433   0.31200   0.12514   0.00000  Uiso   1.00
C10    C     0.17930   0.02134   0.20820   0.00000  Uiso   1.00
C11    C     0.16693   0.29084   0.16665   0.00000  Uiso   1.00
C12    C     0.16663   0.04249   0.16670   0.00000  Uiso   1.00
C13    C     0.19886   0.19383   0.02869   0.00000  Uiso   1.00
C14    C     0.13467   0.13970   0.30504   0.00000  Uiso   1.00
C15    C     0.19854   0.19333   0.31324   0.00000  Uiso   1.00
C16    C     0.13544   0.13965   0.02011   0.00000  Uiso   1.00
H17    H     0.32476   0.16205   0.11360   0.00000  Uiso   1.00
H18    H     0.00844   0.17555   0.21927   0.00000  Uiso   1.00
H19    H     0.14389   0.03758   0.09292   0.00000  Uiso   1.00
H20    H     0.18975   0.29574   0.24042   0.00000  Uiso   1.00
H21    H     0.14421   0.29571   0.09288   0.00000  Uiso   1.00
H22    H     0.18941   0.03763   0.24046   0.00000  Uiso   1.00
H23    H     0.22385   0.21332   0.29664   0.00000  Uiso   1.00
H24    H     0.11170   0.11770   0.03597   0.00000  Uiso   1.00
N25    N     0.16665   0.16666   0.28573   0.00000  Uiso   1.00
N26    N     0.16668   0.16668   0.04760   0.00000  Uiso   1.00
O27    O     0.16666   0.10558   0.20487   0.00000  Uiso   1.00
O28    O     0.16667   0.22775   0.12846   0.00000  Uiso   1.00
O29    O     0.16666   0.10559   0.12843   0.00000  Uiso   1.00
O30    O     0.16667   0.22774   0.20490   0.00000  Uiso   1.00
O31    O     0.09058   0.16666   0.19595   0.00000  Uiso   1.00
O32    O     0.24275   0.16667   0.13739   0.00000  Uiso   1.00
O33    O     0.09058   0.16667   0.11950   0.00000  Uiso   1.00
O34    O     0.24275   0.16666   0.21383   0.00000  Uiso   1.00
Zn35   Zn    0.16667   0.16666   0.21771   0.00000  Uiso   1.00
Zn36   Zn    0.16667   0.16667   0.11563   0.00000  Uiso   1.00
O37    O     0.23154   0.21916   0.05935   0.00000  Uiso   1.00
C38    C     0.25972   0.25063   0.03959   0.00000  Uiso   1.00
H39    H     0.26800   0.27587   0.06540   0.00000  Uiso   1.00
H40    H     0.23626   0.26589   0.00949   0.00000  Uiso   1.00
C41    C     0.31289   0.23417   0.02979   0.00000  Uiso   1.00
H42    H     0.00339   0.22429   0.06250   0.00000  Uiso   1.00
H43    H     0.30717   0.20657   0.00697   0.00000  Uiso   1.00
C44    C     0.01004   0.26747   0.00755   0.00000  Uiso   1.00
H45    H     0.32059   0.27763   0.30782   0.00000  Uiso   1.00
H46    H     0.04814   0.25454   0.00087   0.00000  Uiso   1.00
H47    H     0.01816   0.29476   0.03064   0.00000  Uiso   1.00
O48    O     0.10656   0.10997   0.27714   0.00000  Uiso   1.00
C49    C     0.05337   0.10683   0.28434   0.00000  Uiso   1.00
H50    H     0.02856   0.10936   0.25039   0.00000  Uiso   1.00
H51    H     0.04043   0.13216   0.30592   0.00000  Uiso   1.00
C52    C     0.04266   0.06394   0.30391   0.00000  Uiso   1.00
H53    H     0.05238   0.03936   0.28011   0.00000  Uiso   1.00
H54    H     0.06785   0.05925   0.00409   0.00000  Uiso   1.00
C55    C     0.31835   0.05928   0.31024   0.00000  Uiso   1.00
H56    H     0.30799   0.08306   0.00130   0.00000  Uiso   1.00
H57    H     0.31152   0.02791   0.32414   0.00000  Uiso   1.00
H58    H     0.29236   0.06293   0.27690   0.00000  Uiso   1.00
C59    C     0.49993   0.08663   0.16667   0.00000  Uiso   1.00
C60    C     0.50014   0.24670   0.16667   0.00000  Uiso   1.00
C61    C     0.40037   0.16693   0.15470   0.00000  Uiso   1.00
C62    C     0.59962   0.16759   0.17859   0.00000  Uiso   1.00
C63    C     0.34532   0.16655   0.14822   0.00000  Uiso   1.00
C64    C     0.65458   0.17033   0.18480   0.00000  Uiso   1.00
C65    C     0.48748   0.02131   0.12517   0.00000  Uiso   1.00
C66    C     0.51282   0.31201   0.20818   0.00000  Uiso   1.00
C67    C     0.48767   0.31200   0.12514   0.00000  Uiso   1.00
C68    C     0.51263   0.02134   0.20820   0.00000  Uiso   1.00
C69    C     0.50027   0.29084   0.16665   0.00000  Uiso   1.00
C70    C     0.49997   0.04249   0.16670   0.00000  Uiso   1.00
C71    C     0.53219   0.19383   0.02869   0.00000  Uiso   1.00
C72    C     0.46800   0.13970   0.30504   0.00000  Uiso   1.00
C73    C     0.53188   0.19333   0.31324   0.00000  Uiso   1.00
C74    C     0.46878   0.13965   0.02011   0.00000  Uiso   1.00
H75    H     0.65810   0.16205   0.11360   0.00000  Uiso   1.00
H76    H     0.34177   0.17555   0.21927   0.00000  Uiso   1.00
H77    H     0.47722   0.03758   0.09292   0.00000  Uiso   1.00
H78    H     0.52308   0.29574   0.24042   0.00000  Uiso   1.00
H79    H     0.47755   0.29571   0.09288   0.00000  Uiso   1.00
H80    H     0.52274   0.03763   0.24046   0.00000  Uiso   1.00
H81    H     0.55718   0.21332   0.29664   0.00000  Uiso   1.00
H82    H     0.44503   0.11770   0.03597   0.00000  Uiso   1.00
N83    N     0.49999   0.16666   0.28573   0.00000  Uiso   1.00
N84    N     0.50001   0.16668   0.04760   0.00000  Uiso   1.00
O85    O     0.50000   0.10558   0.20487   0.00000  Uiso   1.00
O86    O     0.50000   0.22775   0.12846   0.00000  Uiso   1.00
O87    O     0.50000   0.10559   0.12843   0.00000  Uiso   1.00
O88    O     0.50000   0.22774   0.20490   0.00000  Uiso   1.00
O89    O     0.42392   0.16666   0.19595   0.00000  Uiso   1.00
O90    O     0.57608   0.16667   0.13739   0.00000  Uiso   1.00
O91    O     0.42392   0.16667   0.11950   0.00000  Uiso   1.00
O92    O     0.57608   0.16666   0.21383   0.00000  Uiso   1.00
Zn93   Zn    0.50000   0.16666   0.21771   0.00000  Uiso   1.00
Zn94   Zn    0.50000   0.16667   0.11563   0.00000  Uiso   1.00
O95    O     0.56488   0.21916   0.05935   0.00000  Uiso   1.00
C96    C     0.59306   0.25063   0.03959   0.00000  Uiso   1.00
H97    H     0.60133   0.27587   0.06540   0.00000  Uiso   1.00
H98    H     0.56960   0.26589   0.00949   0.00000  Uiso   1.00
C99    C     0.64622   0.23417   0.02979   0.00000  Uiso   1.00
H100   H     0.33672   0.22429   0.06250   0.00000  Uiso   1.00
H101   H     0.64050   0.20657   0.00697   0.00000  Uiso   1.00
C102   C     0.34337   0.26747   0.00755   0.00000  Uiso   1.00
H103   H     0.65392   0.27763   0.30782   0.00000  Uiso   1.00
H104   H     0.38147   0.25454   0.00087   0.00000  Uiso   1.00
H105   H     0.35149   0.29476   0.03064   0.00000  Uiso   1.00
O106   O     0.43989   0.10997   0.27714   0.00000  Uiso   1.00
C107   C     0.38671   0.10683   0.28434   0.00000  Uiso   1.00
H108   H     0.36189   0.10936   0.25039   0.00000  Uiso   1.00
H109   H     0.37376   0.13216   0.30592   0.00000  Uiso   1.00
C110   C     0.37600   0.06394   0.30391   0.00000  Uiso   1.00
H111   H     0.38571   0.03936   0.28011   0.00000  Uiso   1.00
H112   H     0.40118   0.05925   0.00409   0.00000  Uiso   1.00
C113   C     0.65168   0.05928   0.31024   0.00000  Uiso   1.00
H114   H     0.64132   0.08306   0.00130   0.00000  Uiso   1.00
H115   H     0.64485   0.02791   0.32414   0.00000  Uiso   1.00
H116   H     0.62569   0.06293   0.27690   0.00000  Uiso   1.00
C117   C     0.83327   0.08663   0.16667   0.00000  Uiso   1.00
C118   C     0.83347   0.24670   0.16667   0.00000  Uiso   1.00
C119   C     0.73370   0.16693   0.15470   0.00000  Uiso   1.00
C120   C     0.93295   0.16759   0.17859   0.00000  Uiso   1.00
C121   C     0.67865   0.16655   0.14822   0.00000  Uiso   1.00
C122   C     0.98792   0.17033   0.18480   0.00000  Uiso   1.00
C123   C     0.82081   0.02131   0.12517   0.00000  Uiso   1.00
C124   C     0.84616   0.31201   0.20818   0.00000  Uiso   1.00
C125   C     0.82100   0.31200   0.12514   0.00000  Uiso   1.00
C126   C     0.84597   0.02134   0.20820   0.00000  Uiso   1.00
C127   C     0.83360   0.29084   0.16665   0.00000  Uiso   1.00
C128   C     0.83330   0.04249   0.16670   0.00000  Uiso   1.00
C129   C     0.86552   0.19383   0.02869   0.00000  Uiso   1.00
C130   C     0.80134   0.13970   0.30504   0.00000  Uiso   1.00
C131   C     0.86521   0.19333   0.31324   0.00000  Uiso   1.00
C132   C     0.80211   0.13965   0.02011   0.00000  Uiso   1.00
H133   H     0.99143   0.16205   0.11360   0.00000  Uiso   1.00
H134   H     0.67511   0.17555   0.21927   0.00000  Uiso   1.00
H135   H     0.81056   0.03758   0.09292   0.00000  Uiso   1.00
H136   H     0.85642   0.29574   0.24042   0.00000  Uiso   1.00
H137   H     0.81088   0.29571   0.09288   0.00000  Uiso   1.00
H138   H     0.85607   0.03763   0.24046   0.00000  Uiso   1.00
H139   H     0.89052   0.21332   0.29664   0.00000  Uiso   1.00
H140   H     0.77837   0.11770   0.03597   0.00000  Uiso   1.00
N141   N     0.83332   0.16666   0.28573   0.00000  Uiso   1.00
N142   N     0.83335   0.16668   0.04760   0.00000  Uiso   1.00
O143   O     0.83333   0.10558   0.20487   0.00000  Uiso   1.00
O144   O     0.83334   0.22775   0.12846   0.00000  Uiso   1.00
O145   O     0.83333   0.10559   0.12843   0.00000  Uiso   1.00
O146   O     0.83334   0.22774   0.20490   0.00000  Uiso   1.00
O147   O     0.75725   0.16666   0.19595   0.00000  Uiso   1.00
O148   O     0.90942   0.16667   0.13739   0.00000  Uiso   1.00
O149   O     0.75725   0.16667   0.11950   0.00000  Uiso   1.00
O150   O     0.90942   0.16666   0.21383   0.00000  Uiso   1.00
Zn151  Zn    0.83333   0.16666   0.21771   0.00000  Uiso   1.00
Zn152  Zn    0.83333   0.16667   0.11563   0.00000  Uiso   1.00
O153   O     0.89821   0.21916   0.05935   0.00000  Uiso   1.00
C154   C     0.92639   0.25063   0.03959   0.00000  Uiso   1.00
H155   H     0.93466   0.27587   0.06540   0.00000  Uiso   1.00
H156   H     0.90293   0.26589   0.00949   0.00000  Uiso   1.00
C157   C     0.97956   0.23417   0.02979   0.00000  Uiso   1.00
H158   H     0.67006   0.22429   0.06250   0.00000  Uiso   1.00
H159   H     0.97384   0.20657   0.00697   0.00000  Uiso   1.00
C160   C     0.67670   0.26747   0.00755   0.00000  Uiso   1.00
H161   H     0.98725   0.27763   0.30782   0.00000  Uiso   1.00
H162   H     0.71480   0.25454   0.00087   0.00000  Uiso   1.00
H163   H     0.68483   0.29476   0.03064   0.00000  Uiso   1.00
O164   O     0.77323   0.10997   0.27714   0.00000  Uiso   1.00
C165   C     0.72004   0.10683   0.28434   0.00000  Uiso   1.00
H166   H     0.69523   0.10936   0.25039   0.00000  Uiso   1.00
H167   H     0.70710   0.13216   0.30592   0.00000  Uiso   1.00
C168   C     0.70933   0.06394   0.30391   0.00000  Uiso   1.00
H169   H     0.71905   0.03936   0.28011   0.00000  Uiso   1.00
H170   H     0.73451   0.05925   0.00409   0.00000  Uiso   1.00
C171   C     0.98501   0.05928   0.31024   0.00000  Uiso   1.00
H172   H     0.97466   0.08306   0.00130   0.00000  Uiso   1.00
H173   H     0.97819   0.02791   0.32414   0.00000  Uiso   1.00
H174   H     0.95902   0.06293   0.27690   0.00000  Uiso   1.00
C175   C     0.16660   0.41997   0.16667   0.00000  Uiso   1.00
C176   C     0.16680   0.58003   0.16667   0.00000  Uiso   1.00
C177   C     0.06703   0.50027   0.15470   0.00000  Uiso   1.00
C178   C     0.26628   0.50092   0.17859   0.00000  Uiso   1.00
C179   C     0.01198   0.49989   0.14822   0.00000  Uiso   1.00
C180   C     0.32125   0.50367   0.18480   0.00000  Uiso   1.00
C181   C     0.15415   0.35465   0.12517   0.00000  Uiso   1.00
C182   C     0.17949   0.64535   0.20818   0.00000  Uiso   1.00
C183   C     0.15433   0.64533   0.12514   0.00000  Uiso   1.00
C184   C     0.17930   0.35467   0.20820   0.00000  Uiso   1.00
C185   C     0.16693   0.62418   0.16665   0.00000  Uiso   1.00
C186   C     0.16663   0.37582   0.16670   0.00000  Uiso   1.00
C187   C     0.19886   0.52716   0.02869   0.00000  Uiso   1.00
C188   C     0.13467   0.47303   0.30504   0.00000  Uiso   1.00
C189   C     0.19854   0.52666   0.31324   0.00000  Uiso   1.00
C190   C     0.13544   0.47298   0.02011   0.00000  Uiso   1.00
H191   H     0.32476   0.49538   0.11360   0.00000  Uiso   1.00
H192   H     0.00844   0.50889   0.21927   0.00000  Uiso   1.00
H193   H     0.14389   0.37092   0.09292   0.00000  Uiso   1.00
H194   H     0.18975   0.62907   0.24042   0.00000  Uiso   1.00
H195   H     0.14421   0.62904   0.09288   0.00000  Uiso   1.00
H196   H     0.18941   0.37096   0.24046   0.00000  Uiso   1.00
H197   H     0.22385   0.54665   0.29664   0.00000  Uiso   1.00
H198   H     0.11170   0.45104   0.03597   0.00000  Uiso   1.00
N199   N     0.16665   0.49999   0.28573   0.00000  Uiso   1.00
N200   N     0.16668   0.50001   0.04760   0.00000  Uiso   1.00
O201   O     0.16666   0.43892   0.20487   0.00000  Uiso   1.00
O202   O     0.16667   0.56108   0.12846   0.00000  Uiso   1.00
O203   O     0.16666   0.43893   0.12843   0.00000  Uiso   1.00
O204   O     0.16667   0.56107   0.20490   0.00000  Uiso   1.00
O205   O     0.09058   0.50000   0.19595   0.00000  Uiso   1.00
O206   O     0.24275   0.50000   0.13739   0.00000  Uiso   1.00
O207   O     0.09058   0.50000   0.11950   0.00000  Uiso   1.00
O208   O     0.24275   0.50000   0.21383   0.00000  Uiso   1.00
Zn209  Zn    0.16667   0.49999   0.21771   0.00000  Uiso   1.00
Zn210  Zn    0.16667   0.50001   0.11563   0.00000  Uiso   1.00
O211   O     0.23154   0.55250   0.05935   0.00000  Uiso   1.00
C212   C     0.25972   0.58397   0.03959   0.00000  Uiso   1.00
H213   H     0.26800   0.60920   0.06540   0.00000  Uiso   1.00
H214   H     0.23626   0.59923   0.00949   0.00000  Uiso   1.00
C215   C     0.31289   0.56750   0.02979   0.00000  Uiso   1.00
H216   H     0.00339   0.55763   0.06250   0.00000  Uiso   1.00
H217   H     0.30717   0.53990   0.00697   0.00000  Uiso   1.00
C218   C     0.01004   0.60080   0.00755   0.00000  Uiso   1.00
H219   H     0.32059   0.61096   0.30782   0.00000  Uiso   1.00
H220   H     0.04814   0.58788   0.00087   0.00000  Uiso   1.00
H221   H     0.01816   0.62809   0.03064   0.00000  Uiso   1.00
O222   O     0.10656   0.44331   0.27714   0.00000  Uiso   1.00
C223   C     0.05337   0.44016   0.28434   0.00000  Uiso   1.00
H224   H     0.02856   0.44269   0.25039   0.00000  Uiso   1.00
H225   H     0.04043   0.46550   0.30592   0.00000  Uiso   1.00
C226   C     0.04266   0.39727   0.30391   0.00000  Uiso   1.00
H227   H     0.05238   0.37270   0.28011   0.00000  Uiso   1.00
H228   H     0.06785   0.39258   0.00409   0.00000  Uiso   1.00
C229   C     0.31835   0.39262   0.31024   0.00000  Uiso   1.00
H230   H     0.30799   0.41639   0.00130   0.00000  Uiso   1.00
H231   H     0.31152   0.36124   0.32414   0.00000  Uiso   1.00
H232   H     0.29236   0.39626   0.27690   0.00000  Uiso   1.00
C233   C     0.49993   0.41997   0.16667   0.00000  Uiso   1.00
C234   C     0.50014   0.58003   0.16667   0.00000  Uiso   1.00
C235   C     0.40037   0.50027   0.15470   0.00000  Uiso   1.00
C236   C     0.59962   0.50092   0.17859   0.00000  Uiso   1.00
C237   C     0.34532   0.49989   0.14822   0.00000  Uiso   1.00
C238   C     0.65458   0.50367   0.18480   0.00000  Uiso   1.00
C239   C     0.48748   0.35465   0.12517   0.00000  Uiso   1.00
C240   C     0.51282   0.64535   0.20818   0.00000  Uiso   1.00
C241   C     0.48767   0.64533   0.12514   0.00000  Uiso   1.00
C242   C     0.51263   0.35467   0.20820   0.00000  Uiso   1.00
C243   C     0.50027   0.62418   0.16665   0.00000  Uiso   1.00
C244   C     0.49997   0.37582   0.16670   0.00000  Uiso   1.00
C245   C     0.53219   0.52716   0.02869   0.00000  Uiso   1.00
C246   C     0.46800   0.47303   0.30504   0.00000  Uiso   1.00
C247   C     0.53188   0.52666   0.31324   0.00000  Uiso   1.00
C248   C     0.46878   0.47298   0.02011   0.00000  Uiso   1.00
H249   H     0.65810   0.49538   0.11360   0.00000  Uiso   1.00
H250   H     0.34177   0.50889   0.21927   0.00000  Uiso   1.00
H251   H     0.47722   0.37092   0.09292   0.00000  Uiso   1.00
H252   H     0.52308   0.62907   0.24042   0.00000  Uiso   1.00
H253   H     0.47755   0.62904   0.09288   0.00000  Uiso   1.00
H254   H     0.52274   0.37096   0.24046   0.00000  Uiso   1.00
H255   H     0.55718   0.54665   0.29664   0.00000  Uiso   1.00
H256   H     0.44503   0.45104   0.03597   0.00000  Uiso   1.00
N257   N     0.49999   0.49999   0.28573   0.00000  Uiso   1.00
N258   N     0.50001   0.50001   0.04760   0.00000  Uiso   1.00
O259   O     0.50000   0.43892   0.20487   0.00000  Uiso   1.00
O260   O     0.50000   0.56108   0.12846   0.00000  Uiso   1.00
O261   O     0.50000   0.43893   0.12843   0.00000  Uiso   1.00
O262   O     0.50000   0.56107   0.20490   0.00000  Uiso   1.00
O263   O     0.42392   0.50000   0.19595   0.00000  Uiso   1.00
O264   O     0.57608   0.50000   0.13739   0.00000  Uiso   1.00
O265   O     0.42392   0.50000   0.11950   0.00000  Uiso   1.00
O266   O     0.57608   0.50000   0.21383   0.00000  Uiso   1.00
Zn267  Zn    0.50000   0.49999   0.21771   0.00000  Uiso   1.00
Zn268  Zn    0.50000   0.50001   0.11563   0.00000  Uiso   1.00
O269   O     0.56488   0.55250   0.05935   0.00000  Uiso   1.00
C270   C     0.59306   0.58397   0.03959   0.00000  Uiso   1.00
H271   H     0.60133   0.60920   0.06540   0.00000  Uiso   1.00
H272   H     0.56960   0.59923   0.00949   0.00000  Uiso   1.00
C273   C     0.64622   0.56750   0.02979   0.00000  Uiso   1.00
H274   H     0.33672   0.55763   0.06250   0.00000  Uiso   1.00
H275   H     0.64050   0.53990   0.00697   0.00000  Uiso   1.00
C276   C     0.34337   0.60080   0.00755   0.00000  Uiso   1.00
H277   H     0.65392   0.61096   0.30782   0.00000  Uiso   1.00
H278   H     0.38147   0.58788   0.00087   0.00000  Uiso   1.00
H279   H     0.35149   0.62809   0.03064   0.00000  Uiso   1.00
O280   O     0.43989   0.44331   0.27714   0.00000  Uiso   1.00
C281   C     0.38671   0.44016   0.28434   0.00000  Uiso   1.00
H282   H     0.36189   0.44269   0.25039   0.00000  Uiso   1.00
H283   H     0.37376   0.46550   0.30592   0.00000  Uiso   1.00
C284   C     0.37600   0.39727   0.30391   0.00000  Uiso   1.00
H285   H     0.38571   0.37270   0.28011   0.00000  Uiso   1.00
H286   H     0.40118   0.39258   0.00409   0.00000  Uiso   1.00
C287   C     0.65168   0.39262   0.31024   0.00000  Uiso   1.00
H288   H     0.64132   0.41639   0.00130   0.00000  Uiso   1.00
H289   H     0.64485   0.36124   0.32414   0.00000  Uiso   1.00
H290   H     0.62569   0.39626   0.27690   0.00000  Uiso   1.00
C291   C     0.83327   0.41997   0.16667   0.00000  Uiso   1.00
C292   C     0.83347   0.58003   0.16667   0.00000  Uiso   1.00
C293   C     0.73370   0.50027   0.15470   0.00000  Uiso   1.00
C294   C     0.93295   0.50092   0.17859   0.00000  Uiso   1.00
C295   C     0.67865   0.49989   0.14822   0.00000  Uiso   1.00
C296   C     0.98792   0.50367   0.18480   0.00000  Uiso   1.00
C297   C     0.82081   0.35465   0.12517   0.00000  Uiso   1.00
C298   C     0.84616   0.64535   0.20818   0.00000  Uiso   1.00
C299   C     0.82100   0.64533   0.12514   0.00000  Uiso   1.00
C300   C     0.84597   0.35467   0.20820   0.00000  Uiso   1.00
C301   C     0.83360   0.62418   0.16665   0.00000  Uiso   1.00
C302   C     0.83330   0.37582   0.16670   0.00000  Uiso   1.00
C303   C     0.86552   0.52716   0.02869   0.00000  Uiso   1.00
C304   C     0.80134   0.47303   0.30504   0.00000  Uiso   1.00
C305   C     0.86521   0.52666   0.31324   0.00000  Uiso   1.00
C306   C     0.80211   0.47298   0.02011   0.00000  Uiso   1.00
H307   H     0.99143   0.49538   0.11360   0.00000  Uiso   1.00
H308   H     0.67511   0.50889   0.21927   0.00000  Uiso   1.00
H309   H     0.81056   0.37092   0.09292   0.00000  Uiso   1.00
H310   H     0.85642   0.62907   0.24042   0.00000  Uiso   1.00
H311   H     0.81088   0.62904   0.09288   0.00000  Uiso   1.00
H312   H     0.85607   0.37096   0.24046   0.00000  Uiso   1.00
H313   H     0.89052   0.54665   0.29664   0.00000  Uiso   1.00
H314   H     0.77837   0.45104   0.03597   0.00000  Uiso   1.00
N315   N     0.83332   0.49999   0.28573   0.00000  Uiso   1.00
N316   N     0.83335   0.50001   0.04760   0.00000  Uiso   1.00
O317   O     0.83333   0.43892   0.20487   0.00000  Uiso   1.00
O318   O     0.83334   0.56108   0.12846   0.00000  Uiso   1.00
O319   O     0.83333   0.43893   0.12843   0.00000  Uiso   1.00
O320   O     0.83334   0.56107   0.20490   0.00000  Uiso   1.00
O321   O     0.75725   0.50000   0.19595   0.00000  Uiso   1.00
O322   O     0.90942   0.50000   0.13739   0.00000  Uiso   1.00
O323   O     0.75725   0.50000   0.11950   0.00000  Uiso   1.00
O324   O     0.90942   0.50000   0.21383   0.00000  Uiso   1.00
Zn325  Zn    0.83333   0.49999   0.21771   0.00000  Uiso   1.00
Zn326  Zn    0.83333   0.50001   0.11563   0.00000  Uiso   1.00
O327   O     0.89821   0.55250   0.05935   0.00000  Uiso   1.00
C328   C     0.92639   0.58397   0.03959   0.00000  Uiso   1.00
H329   H     0.93466   0.60920   0.06540   0.00000  Uiso   1.00
H330   H     0.90293   0.59923   0.00949   0.00000  Uiso   1.00
C331   C     0.97956   0.56750   0.02979   0.00000  Uiso   1.00
H332   H     0.67006   0.55763   0.06250   0.00000  Uiso   1.00
H333   H     0.97384   0.53990   0.00697   0.00000  Uiso   1.00
C334   C     0.67670   0.60080   0.00755   0.00000  Uiso   1.00
H335   H     0.98725   0.61096   0.30782   0.00000  Uiso   1.00
H336   H     0.71480   0.58788   0.00087   0.00000  Uiso   1.00
H337   H     0.68483   0.62809   0.03064   0.00000  Uiso   1.00
O338   O     0.77323   0.44331   0.27714   0.00000  Uiso   1.00
C339   C     0.72004   0.44016   0.28434   0.00000  Uiso   1.00
H340   H     0.69523   0.44269   0.25039   0.00000  Uiso   1.00
H341   H     0.70710   0.46550   0.30592   0.00000  Uiso   1.00
C342   C     0.70933   0.39727   0.30391   0.00000  Uiso   1.00
H343   H     0.71905   0.37270   0.28011   0.00000  Uiso   1.00
H344   H     0.73451   0.39258   0.00409   0.00000  Uiso   1.00
C345   C     0.98501   0.39262   0.31024   0.00000  Uiso   1.00
H346   H     0.97466   0.41639   0.00130   0.00000  Uiso   1.00
H347   H     0.97819   0.36124   0.32414   0.00000  Uiso   1.00
H348   H     0.95902   0.39626   0.27690   0.00000  Uiso   1.00
C349   C     0.16660   0.75330   0.16667   0.00000  Uiso   1.00
C350   C     0.16680   0.91337   0.16667   0.00000  Uiso   1.00
C351   C     0.06703   0.83360   0.15470   0.00000  Uiso   1.00
C352   C     0.26628   0.83425   0.17859   0.00000  Uiso   1.00
C353   C     0.01198   0.83322   0.14822   0.00000  Uiso   1.00
C354   C     0.32125   0.83700   0.18480   0.00000  Uiso   1.00
C355   C     0.15415   0.68798   0.12517   0.00000  Uiso   1.00
C356   C     0.17949   0.97868   0.20818   0.00000  Uiso   1.00
C357   C     0.15433   0.97866   0.12514   0.00000  Uiso   1.00
C358   C     0.17930   0.68800   0.20820   0.00000  Uiso   1.00
C359   C     0.16693   0.95751   0.16665   0.00000  Uiso   1.00
C360   C     0.16663   0.70915   0.16670   0.00000  Uiso   1.00
C361   C     0.19886   0.86049   0.02869   0.00000  Uiso   1.00
C362   C     0.13467   0.80637   0.30504   0.00000  Uiso   1.00
C363   C     0.19854   0.86000   0.31324   0.00000  Uiso   1.00
C364   C     0.13544   0.80631   0.02011   0.00000  Uiso   1.00
H365   H     0.32476   0.82872   0.11360   0.00000  Uiso   1.00
H366   H     0.00844   0.84222   0.21927   0.00000  Uiso   1.00
H367   H     0.14389   0.70425   0.09292   0.00000  Uiso   1.00
H368   H     0.18975   0.96241   0.24042   0.00000  Uiso   1.00
H369   H     0.14421   0.96238   0.09288   0.00000  Uiso   1.00
H370   H     0.18941   0.70429   0.24046   0.00000  Uiso   1.00
H371   H     0.22385   0.87998   0.29664   0.00000  Uiso   1.00
H372   H     0.11170   0.78437   0.03597   0.00000  Uiso   1.00
N373   N     0.16665   0.83332   0.28573   0.00000  Uiso   1.00
N374   N     0.16668   0.83334   0.04760   0.00000  Uiso   1.00
O375   O     0.16666   0.77225   0.20487   0.00000  Uiso   1.00
O376   O     0.16667   0.89442   0.12846   0.00000  Uiso   1.00
O377   O     0.16666   0.77226   0.12843   0.00000  Uiso   1.00
O378   O     0.16667   0.89441   0.20490   0.00000  Uiso   1.00
O379   O     0.09058   0.83333   0.19595   0.00000  Uiso   1.00
O380   O     0.24275   0.83334   0.13739   0.00000  Uiso   1.00
O381   O     0.09058   0.83334   0.11950   0.00000  Uiso   1.00
O382   O     0.24275   0.83333   0.21383   0.00000  Uiso   1.00
Zn383  Zn    0.16667   0.83333   0.21771   0.00000  Uiso   1.00
Zn384  Zn    0.16667   0.83334   0.11563   0.00000  Uiso   1.00
O385   O     0.23154   0.88583   0.05935   0.00000  Uiso   1.00
C386   C     0.25972   0.91730   0.03959   0.00000  Uiso   1.00
H387   H     0.26800   0.94254   0.06540   0.00000  Uiso   1.00
H388   H     0.23626   0.93256   0.00949   0.00000  Uiso   1.00
C389   C     0.31289   0.90084   0.02979   0.00000  Uiso   1.00
H390   H     0.00339   0.89096   0.06250   0.00000  Uiso   1.00
H391   H     0.30717   0.87324   0.00697   0.00000  Uiso   1.00
C392   C     0.01004   0.93413   0.00755   0.00000  Uiso   1.00
H393   H     0.32059   0.94429   0.30782   0.00000  Uiso   1.00
H394   H     0.04814   0.92121   0.00087   0.00000  Uiso   1.00
H395   H     0.01816   0.96143   0.03064   0.00000  Uiso   1.00
O396   O     0.10656   0.77664   0.27714   0.00000  Uiso   1.00
C397   C     0.05337   0.77350   0.28434   0.00000  Uiso   1.00
H398   H     0.02856   0.77602   0.25039   0.00000  Uiso   1.00
H399   H     0.04043   0.79883   0.30592   0.00000  Uiso   1.00
C400   C     0.04266   0.73061   0.30391   0.00000  Uiso   1.00
H401   H     0.05238   0.70603   0.28011   0.00000  Uiso   1.00
H402   H     0.06785   0.72592   0.00409   0.00000  Uiso   1.00
C403   C     0.31835   0.72595   0.31024   0.00000  Uiso   1.00
H404   H     0.30799   0.74972   0.00130   0.00000  Uiso   1.00
H405   H     0.31152   0.69457   0.32414   0.00000  Uiso   1.00
H406   H     0.29236   0.72960   0.27690   0.00000  Uiso   1.00
C407   C     0.49993   0.75330   0.16667   0.00000  Uiso   1.00
C408   C     0.50014   0.91337   0.16667   0.00000  Uiso   1.00
C409   C     0.40037   0.83360   0.15470   0.00000  Uiso   1.00
C410   C     0.59962   0.83425   0.17859   0.00000  Uiso   1.00
C411   C     0.34532   0.83322   0.14822   0.00000  Uiso   1.00
C412   C     0.65458   0.83700   0.18480   0.00000  Uiso   1.00
C413   C     0.48748   0.68798   0.12517   0.00000  Uiso   1.00
C414   C     0.51282   0.97868   0.20818   0.00000  Uiso   1.00
C415   C     0.48767   0.97866   0.12514   0.00000  Uiso   1.00
C416   C     0.51263   0.68800   0.20820   0.00000  Uiso   1.00
C417   C     0.50027   0.95751   0.16665   0.00000  Uiso   1.00
C418   C     0.49997   0.70915   0.16670   0.00000  Uiso   1.00
C419   C     0.53219   0.86049   0.02869   0.00000  Uiso   1.00
C420   C     0.46800   0.80637   0.30504   0.00000  Uiso   1.00
C421   C     0.53188   0.86000   0.31324   0.00000  Uiso   1.00
C422   C     0.46878   0.80631   0.02011   0.00000  Uiso   1.00
H423   H     0.65810   0.82872   0.11360   0.00000  Uiso   1.00
H424   H     0.34177   0.84222   0.21927   0.00000  Uiso   1.00
H425   H     0.47722   0.70425   0.09292   0.00000  Uiso   1.00
H426   H     0.52308   0.96241   0.24042   0.00000  Uiso   1.00
H427   H     0.47755   0.96238   0.09288   0.00000  Uiso   1.00
H428   H     0.52274   0.70429   0.24046   0.00000  Uiso   1.00
H429   H     0.55718   0.87998   0.29664   0.00000  Uiso   1.00
H430   H     0.44503   0.78437   0.03597   0.00000  Uiso   1.00
N431   N     0.49999   0.83332   0.28573   0.00000  Uiso   1.00
N432   N     0.50001   0.83334   0.04760   0.00000  Uiso   1.00
O433   O     0.50000   0.77225   0.20487   0.00000  Uiso   1.00
O434   O     0.50000   0.89442   0.12846   0.00000  Uiso   1.00
O435   O     0.50000   0.77226   0.12843   0.00000  Uiso   1.00
O436   O     0.50000   0.89441   0.20490   0.00000  Uiso   1.00
O437   O     0.42392   0.83333   0.19595   0.00000  Uiso   1.00
O438   O     0.57608   0.83334   0.13739   0.00000  Uiso   1.00
O439   O     0.42392   0.83334   0.11950   0.00000  Uiso   1.00
O440   O     0.57608   0.83333   0.21383   0.00000  Uiso   1.00
Zn441  Zn    0.50000   0.83333   0.21771   0.00000  Uiso   1.00
Zn442  Zn    0.50000   0.83334   0.11563   0.00000  Uiso   1.00
O443   O     0.56488   0.88583   0.05935   0.00000  Uiso   1.00
C444   C     0.59306   0.91730   0.03959   0.00000  Uiso   1.00
H445   H     0.60133   0.94254   0.06540   0.00000  Uiso   1.00
H446   H     0.56960   0.93256   0.00949   0.00000  Uiso   1.00
C447   C     0.64622   0.90084   0.02979   0.00000  Uiso   1.00
H448   H     0.33672   0.89096   0.06250   0.00000  Uiso   1.00
H449   H     0.64050   0.87324   0.00697   0.00000  Uiso   1.00
C450   C     0.34337   0.93413   0.00755   0.00000  Uiso   1.00
H451   H     0.65392   0.94429   0.30782   0.00000  Uiso   1.00
H452   H     0.38147   0.92121   0.00087   0.00000  Uiso   1.00
H453   H     0.35149   0.96143   0.03064   0.00000  Uiso   1.00
O454   O     0.43989   0.77664   0.27714   0.00000  Uiso   1.00
C455   C     0.38671   0.77350   0.28434   0.00000  Uiso   1.00
H456   H     0.36189   0.77602   0.25039   0.00000  Uiso   1.00
H457   H     0.37376   0.79883   0.30592   0.00000  Uiso   1.00
C458   C     0.37600   0.73061   0.30391   0.00000  Uiso   1.00
H459   H     0.38571   0.70603   0.28011   0.00000  Uiso   1.00
H460   H     0.40118   0.72592   0.00409   0.00000  Uiso   1.00
C461   C     0.65168   0.72595   0.31024   0.00000  Uiso   1.00
H462   H     0.64132   0.74972   0.00130   0.00000  Uiso   1.00
H463   H     0.64485   0.69457   0.32414   0.00000  Uiso   1.00
H464   H     0.62569   0.72960   0.27690   0.00000  Uiso   1.00
C465   C     0.83327   0.75330   0.16667   0.00000  Uiso   1.00
C466   C     0.83347   0.91337   0.16667   0.00000  Uiso   1.00
C467   C     0.73370   0.83360   0.15470   0.00000  Uiso   1.00
C468   C     0.93295   0.83425   0.17859   0.00000  Uiso   1.00
C469   C     0.67865   0.83322   0.14822   0.00000  Uiso   1.00
C470   C     0.98792   0.83700   0.18480   0.00000  Uiso   1.00
C471   C     0.82081   0.68798   0.12517   0.00000  Uiso   1.00
C472   C     0.84616   0.97868   0.20818   0.00000  Uiso   1.00
C473   C     0.82100   0.97866   0.12514   0.00000  Uiso   1.00
C474   C     0.84597   0.68800   0.20820   0.00000  Uiso   1.00
C475   C     0.83360   0.95751   0.16665   0.00000  Uiso   1.00
C476   C     0.83330   0.70915   0.16670   0.00000  Uiso   1.00
C477   C     0.86552   0.86049   0.02869   0.00000  Uiso   1.00
C478   C     0.80134   0.80637   0.30504   0.00000  Uiso   1.00
C479   C     0.86521   0.86000   0.31324   0.00000  Uiso   1.00
C480   C     0.80211   0.80631   0.02011   0.00000  Uiso   1.00
H481   H     0.99143   0.82872   0.11360   0.00000  Uiso   1.00
H482   H     0.67511   0.84222   0.21927   0.00000  Uiso   1.00
H483   H     0.81056   0.70425   0.09292   0.00000  Uiso   1.00
H484   H     0.85642   0.96241   0.24042   0.00000  Uiso   1.00
H485   H     0.81088   0.96238   0.09288   0.00000  Uiso   1.00
H486   H     0.85607   0.70429   0.24046   0.00000  Uiso   1.00
H487   H     0.89052   0.87998   0.29664   0.00000  Uiso   1.00
H488   H     0.77837   0.78437   0.03597   0.00000  Uiso   1.00
N489   N     0.83332   0.83332   0.28573   0.00000  Uiso   1.00
N490   N     0.83335   0.83334   0.04760   0.00000  Uiso   1.00
O491   O     0.83333   0.77225   0.20487   0.00000  Uiso   1.00
O492   O     0.83334   0.89442   0.12846   0.00000  Uiso   1.00
O493   O     0.83333   0.77226   0.12843   0.00000  Uiso   1.00
O494   O     0.83334   0.89441   0.20490   0.00000  Uiso   1.00
O495   O     0.75725   0.83333   0.19595   0.00000  Uiso   1.00
O496   O     0.90942   0.83334   0.13739   0.00000  Uiso   1.00
O497   O     0.75725   0.83334   0.11950   0.00000  Uiso   1.00
O498   O     0.90942   0.83333   0.21383   0.00000  Uiso   1.00
Zn499  Zn    0.83333   0.83333   0.21771   0.00000  Uiso   1.00
Zn500  Zn    0.83333   0.83334   0.11563   0.00000  Uiso   1.00
O501   O     0.89821   0.88583   0.05935   0.00000  Uiso   1.00
C502   C     0.92639   0.91730   0.03959   0.00000  Uiso   1.00
H503   H     0.93466   0.94254   0.06540   0.00000  Uiso   1.00
H504   H     0.90293   0.93256   0.00949   0.00000  Uiso   1.00
C505   C     0.97956   0.90084   0.02979   0.00000  Uiso   1.00
H506   H     0.67006   0.89096   0.06250   0.00000  Uiso   1.00
H507   H     0.97384   0.87324   0.00697   0.00000  Uiso   1.00
C508   C     0.67670   0.93413   0.00755   0.00000  Uiso   1.00
H509   H     0.98725   0.94429   0.30782   0.00000  Uiso   1.00
H510   H     0.71480   0.92121   0.00087   0.00000  Uiso   1.00
H511   H     0.68483   0.96143   0.03064   0.00000  Uiso   1.00
O512   O     0.77323   0.77664   0.27714   0.00000  Uiso   1.00
C513   C     0.72004   0.77350   0.28434   0.00000  Uiso   1.00
H514   H     0.69523   0.77602   0.25039   0.00000  Uiso   1.00
H515   H     0.70710   0.79883   0.30592   0.00000  Uiso   1.00
C516   C     0.70933   0.73061   0.30391   0.00000  Uiso   1.00
H517   H     0.71905   0.70603   0.28011   0.00000  Uiso   1.00
H518   H     0.73451   0.72592   0.00409   0.00000  Uiso   1.00
C519   C     0.98501   0.72595   0.31024   0.00000  Uiso   1.00
H520   H     0.97466   0.74972   0.00130   0.00000  Uiso   1.00
H521   H     0.97819   0.69457   0.32414   0.00000  Uiso   1.00
H522   H     0.95902   0.72960   0.27690   0.00000  Uiso   1.00
C523   C     0.16660   0.08663   0.50001   0.00000  Uiso   1.00
C524   C     0.16680   0.24670   0.50000   0.00000  Uiso   1.00
C525   C     0.06703   0.16693   0.48803   0.00000  Uiso   1.00
C526   C     0.26628   0.16759   0.51192   0.00000  Uiso   1.00
C527   C     0.01198   0.16655   0.48155   0.00000  Uiso   1.00
C528   C     0.32125   0.17033   0.51813   0.00000  Uiso   1.00
C529   C     0.15415   0.02131   0.45850   0.00000  Uiso   1.00
C530   C     0.17949   0.31201   0.54151   0.00000  Uiso   1.00
C531   C     0.15433   0.31200   0.45847   0.00000  Uiso   1.00
C532   C     0.17930   0.02134   0.54154   0.00000  Uiso   1.00
C533   C     0.16693   0.29084   0.49998   0.00000  Uiso   1.00
C534   C     0.16663   0.04249   0.50003   0.00000  Uiso   1.00
C535   C     0.19886   0.19383   0.36202   0.00000  Uiso   1.00
C536   C     0.13467   0.13970   0.63837   0.00000  Uiso   1.00
C537   C     0.19854   0.19333   0.64657   0.00000  Uiso   1.00
C538   C     0.13544   0.13965   0.35345   0.00000  Uiso   1.00
H539   H     0.32476   0.16205   0.44694   0.00000  Uiso   1.00
H540   H     0.00844   0.17555   0.55260   0.00000  Uiso   1.00
H541   H     0.14389   0.03758   0.42625   0.00000  Uiso   1.00
H542   H     0.18975   0.29574   0.57376   0.00000  Uiso   1.00
H543   H     0.14421   0.29571   0.42621   0.00000  Uiso   1.00
H544   H     0.18941   0.03763   0.57379   0.00000  Uiso   1.00
H545   H     0.22385   0.21332   0.62997   0.00000  Uiso   1.00
H546   H     0.11170   0.11770   0.36930   0.00000  Uiso   1.00
N547   N     0.16665   0.16666   0.61907   0.00000  Uiso   1.00
N548   N     0.16668   0.16668   0.38093   0.00000  Uiso   1.00
O549   O     0.16666   0.10558   0.53821   0.00000  Uiso   1.00
O550   O     0.16667   0.22775   0.46179   0.00000  Uiso   1.00
O551   O     0.16666   0.10559   0.46176   0.00000  Uiso   1.00
O552   O     0.16667   0.22774   0.53824   0.00000  Uiso   1.00
O553   O     0.09058   0.16666   0.52928   0.00000  Uiso   1.00
O554   O     0.24275   0.16667   0.47072   0.00000  Uiso   1.00
O555   O     0.09058   0.16667   0.45284   0.00000  Uiso   1.00
O556   O     0.24275   0.16666   0.54716   0.00000  Uiso   1.00
Zn557  Zn    0.16667   0.16666   0.55104   0.00000  Uiso   1.00
Zn558  Zn    0.16667   0.16667   0.44896   0.00000  Uiso   1.00
O559   O     0.23154   0.21916   0.39268   0.00000  Uiso   1.00
C560   C     0.25972   0.25063   0.37292   0.00000  Uiso   1.00
H561   H     0.26800   0.27587   0.39873   0.00000  Uiso   1.00
H562   H     0.23626   0.26589   0.34283   0.00000  Uiso   1.00
C563   C     0.31289   0.23417   0.36312   0.00000  Uiso   1.00
H564   H     0.00339   0.22429   0.39583   0.00000  Uiso   1.00
H565   H     0.30717   0.20657   0.34030   0.00000  Uiso   1.00
C566   C     0.01004   0.26747   0.34088   0.00000  Uiso   1.00
H567   H     0.32059   0.27763   0.64115   0.00000  Uiso   1.00
H568   H     0.04814   0.25454   0.33420   0.00000  Uiso   1.00
H569   H     0.01816   0.29476   0.36397   0.00000  Uiso   1.00
O570   O     0.10656   0.10997   0.61047   0.00000  Uiso   1.00
C571   C     0.05337   0.10683   0.61767   0.00000  Uiso   1.00
H572   H     0.02856   0.10936   0.58372   0.00000  Uiso   1.00
H573   H     0.04043   0.13216   0.63925   0.00000  Uiso   1.00
C574   C     0.04266   0.06394   0.63725   0.00000  Uiso   1.00
H575   H     0.05238   0.03936   0.61344   0.00000  Uiso   1.00
H576   H     0.06785   0.05925   0.33743   0.00000  Uiso   1.00
C577   C     0.31835   0.05928   0.64358   0.00000  Uiso   1.00
H578   H     0.30799   0.08306   0.33464   0.00000  Uiso   1.00
H579   H     0.31152   0.02791   0.65748   0.00000  Uiso   1.00
H580   H     0.29236   0.06293   0.61023   0.00000  Uiso   1.00
C581   C     0.49993   0.08663   0.50001   0.00000  Uiso   1.00
C582   C     0.50014   0.24670   0.50000   0.00000  Uiso   1.00
C583   C     0.40037   0.16693   0.48803   0.00000  Uiso   1.00
C584   C     0.59962   0.16759   0.51192   0.00000  Uiso   1.00
C585   C     0.34532   0.16655   0.48155   0.00000  Uiso   1.00
C586   C     0.65458   0.17033   0.51813   0.00000  Uiso   1.00
C587   C     0.48748   0.02131   0.45850   0.00000  Uiso   1.00
C588   C     0.51282   0.31201   0.54151   0.00000  Uiso   1.00
C589   C     0.48767   0.31200   0.45847   0.00000  Uiso   1.00
C590   C     0.51263   0.02134   0.54154   0.00000  Uiso   1.00
C591   C     0.50027   0.29084   0.49998   0.00000  Uiso   1.00
C592   C     0.49997   0.04249   0.50003   0.00000  Uiso   1.00
C593   C     0.53219   0.19383   0.36202   0.00000  Uiso   1.00
C594   C     0.46800   0.13970   0.63837   0.00000  Uiso   1.00
C595   C     0.53188   0.19333   0.64657   0.00000  Uiso   1.00
C596   C     0.46878   0.13965   0.35345   0.00000  Uiso   1.00
H597   H     0.65810   0.16205   0.44694   0.00000  Uiso   1.00
H598   H     0.34177   0.17555   0.55260   0.00000  Uiso   1.00
H599   H     0.47722   0.03758   0.42625   0.00000  Uiso   1.00
H600   H     0.52308   0.29574   0.57376   0.00000  Uiso   1.00
H601   H     0.47755   0.29571   0.42621   0.00000  Uiso   1.00
H602   H     0.52274   0.03763   0.57379   0.00000  Uiso   1.00
H603   H     0.55718   0.21332   0.62997   0.00000  Uiso   1.00
H604   H     0.44503   0.11770   0.36930   0.00000  Uiso   1.00
N605   N     0.49999   0.16666   0.61907   0.00000  Uiso   1.00
N606   N     0.50001   0.16668   0.38093   0.00000  Uiso   1.00
O607   O     0.50000   0.10558   0.53821   0.00000  Uiso   1.00
O608   O     0.50000   0.22775   0.46179   0.00000  Uiso   1.00
O609   O     0.50000   0.10559   0.46176   0.00000  Uiso   1.00
O610   O     0.50000   0.22774   0.53824   0.00000  Uiso   1.00
O611   O     0.42392   0.16666   0.52928   0.00000  Uiso   1.00
O612   O     0.57608   0.16667   0.47072   0.00000  Uiso   1.00
O613   O     0.42392   0.16667   0.45284   0.00000  Uiso   1.00
O614   O     0.57608   0.16666   0.54716   0.00000  Uiso   1.00
Zn615  Zn    0.50000   0.16666   0.55104   0.00000  Uiso   1.00
Zn616  Zn    0.50000   0.16667   0.44896   0.00000  Uiso   1.00
O617   O     0.56488   0.21916   0.39268   0.00000  Uiso   1.00
C618   C     0.59306   0.25063   0.37292   0.00000  Uiso   1.00
H619   H     0.60133   0.27587   0.39873   0.00000  Uiso   1.00
H620   H     0.56960   0.26589   0.34283   0.00000  Uiso   1.00
C621   C     0.64622   0.23417   0.36312   0.00000  Uiso   1.00
H622   H     0.33672   0.22429   0.39583   0.00000  Uiso   1.00
H623   H     0.64050   0.20657   0.34030   0.00000  Uiso   1.00
C624   C     0.34337   0.26747   0.34088   0.00000  Uiso   1.00
H625   H     0.65392   0.27763   0.64115   0.00000  Uiso   1.00
H626   H     0.38147   0.25454   0.33420   0.00000  Uiso   1.00
H627   H     0.35149   0.29476   0.36397   0.00000  Uiso   1.00
O628   O     0.43989   0.10997   0.61047   0.00000  Uiso   1.00
C629   C     0.38671   0.10683   0.61767   0.00000  Uiso   1.00
H630   H     0.36189   0.10936   0.58372   0.00000  Uiso   1.00
H631   H     0.37376   0.13216   0.63925   0.00000  Uiso   1.00
C632   C     0.37600   0.06394   0.63725   0.00000  Uiso   1.00
H633   H     0.38571   0.03936   0.61344   0.00000  Uiso   1.00
H634   H     0.40118   0.05925   0.33743   0.00000  Uiso   1.00
C635   C     0.65168   0.05928   0.64358   0.00000  Uiso   1.00
H636   H     0.64132   0.08306   0.33464   0.00000  Uiso   1.00
H637   H     0.64485   0.02791   0.65748   0.00000  Uiso   1.00
H638   H     0.62569   0.06293   0.61023   0.00000  Uiso   1.00
C639   C     0.83327   0.08663   0.50001   0.00000  Uiso   1.00
C640   C     0.83347   0.24670   0.50000   0.00000  Uiso   1.00
C641   C     0.73370   0.16693   0.48803   0.00000  Uiso   1.00
C642   C     0.93295   0.16759   0.51192   0.00000  Uiso   1.00
C643   C     0.67865   0.16655   0.48155   0.00000  Uiso   1.00
C644   C     0.98792   0.17033   0.51813   0.00000  Uiso   1.00
C645   C     0.82081   0.02131   0.45850   0.00000  Uiso   1.00
C646   C     0.84616   0.31201   0.54151   0.00000  Uiso   1.00
C647   C     0.82100   0.31200   0.45847   0.00000  Uiso   1.00
C648   C     0.84597   0.02134   0.54154   0.00000  Uiso   1.00
C649   C     0.83360   0.29084   0.49998   0.00000  Uiso   1.00
C650   C     0.83330   0.04249   0.50003   0.00000  Uiso   1.00
C651   C     0.86552   0.19383   0.36202   0.00000  Uiso   1.00
C652   C     0.80134   0.13970   0.63837   0.00000  Uiso   1.00
C653   C     0.86521   0.19333   0.64657   0.00000  Uiso   1.00
C654   C     0.80211   0.13965   0.35345   0.00000  Uiso   1.00
H655   H     0.99143   0.16205   0.44694   0.00000  Uiso   1.00
H656   H     0.67511   0.17555   0.55260   0.00000  Uiso   1.00
H657   H     0.81056   0.03758   0.42625   0.00000  Uiso   1.00
H658   H     0.85642   0.29574   0.57376   0.00000  Uiso   1.00
H659   H     0.81088   0.29571   0.42621   0.00000  Uiso   1.00
H660   H     0.85607   0.03763   0.57379   0.00000  Uiso   1.00
H661   H     0.89052   0.21332   0.62997   0.00000  Uiso   1.00
H662   H     0.77837   0.11770   0.36930   0.00000  Uiso   1.00
N663   N     0.83332   0.16666   0.61907   0.00000  Uiso   1.00
N664   N     0.83335   0.16668   0.38093   0.00000  Uiso   1.00
O665   O     0.83333   0.10558   0.53821   0.00000  Uiso   1.00
O666   O     0.83334   0.22775   0.46179   0.00000  Uiso   1.00
O667   O     0.83333   0.10559   0.46176   0.00000  Uiso   1.00
O668   O     0.83334   0.22774   0.53824   0.00000  Uiso   1.00
O669   O     0.75725   0.16666   0.52928   0.00000  Uiso   1.00
O670   O     0.90942   0.16667   0.47072   0.00000  Uiso   1.00
O671   O     0.75725   0.16667   0.45284   0.00000  Uiso   1.00
O672   O     0.90942   0.16666   0.54716   0.00000  Uiso   1.00
Zn673  Zn    0.83333   0.16666   0.55104   0.00000  Uiso   1.00
Zn674  Zn    0.83333   0.16667   0.44896   0.00000  Uiso   1.00
O675   O     0.89821   0.21916   0.39268   0.00000  Uiso   1.00
C676   C     0.92639   0.25063   0.37292   0.00000  Uiso   1.00
H677   H     0.93466   0.27587   0.39873   0.00000  Uiso   1.00
H678   H     0.90293   0.26589   0.34283   0.00000  Uiso   1.00
C679   C     0.97956   0.23417   0.36312   0.00000  Uiso   1.00
H680   H     0.67006   0.22429   0.39583   0.00000  Uiso   1.00
H681   H     0.97384   0.20657   0.34030   0.00000  Uiso   1.00
C682   C     0.67670   0.26747   0.34088   0.00000  Uiso   1.00
H683   H     0.98725   0.27763   0.64115   0.00000  Uiso   1.00
H684   H     0.71480   0.25454   0.33420   0.00000  Uiso   1.00
H685   H     0.68483   0.29476   0.36397   0.00000  Uiso   1.00
O686   O     0.77323   0.10997   0.61047   0.00000  Uiso   1.00
C687   C     0.72004   0.10683   0.61767   0.00000  Uiso   1.00
H688   H     0.69523   0.10936   0.58372   0.00000  Uiso   1.00
H689   H     0.70710   0.13216   0.63925   0.00000  Uiso   1.00
C690   C     0.70933   0.06394   0.63725   0.00000  Uiso   1.00
H691   H     0.71905   0.03936   0.61344   0.00000  Uiso   1.00
H692   H     0.73451   0.05925   0.33743   0.00000  Uiso   1.00
C693   C     0.98501   0.05928   0.64358   0.00000  Uiso   1.00
H694   H     0.97466   0.08306   0.33464   0.00000  Uiso   1.00
H695   H     0.97819   0.02791   0.65748   0.00000  Uiso   1.00
H696   H     0.95902   0.06293   0.61023   0.00000  Uiso   1.00
C697   C     0.16660   0.41997   0.50001   0.00000  Uiso   1.00
C698   C     0.16680   0.58003   0.50000   0.00000  Uiso   1.00
C699   C     0.06703   0.50027   0.48803   0.00000  Uiso   1.00
C700   C     0.26628   0.50092   0.51192   0.00000  Uiso   1.00
C701   C     0.01198   0.49989   0.48155   0.00000  Uiso   1.00
C702   C     0.32125   0.50367   0.51813   0.00000  Uiso   1.00
C703   C     0.15415   0.35465   0.45850   0.00000  Uiso   1.00
C704   C     0.17949   0.64535   0.54151   0.00000  Uiso   1.00
C705   C     0.15433   0.64533   0.45847   0.00000  Uiso   1.00
C706   C     0.17930   0.35467   0.54154   0.00000  Uiso   1.00
C707   C     0.16693   0.62418   0.49998   0.00000  Uiso   1.00
C708   C     0.16663   0.37582   0.50003   0.00000  Uiso   1.00
C709   C     0.19886   0.52716   0.36202   0.00000  Uiso   1.00
C710   C     0.13467   0.47303   0.63837   0.00000  Uiso   1.00
C711   C     0.19854   0.52666   0.64657   0.00000  Uiso   1.00
C712   C     0.13544   0.47298   0.35345   0.00000  Uiso   1.00
H713   H     0.32476   0.49538   0.44694   0.00000  Uiso   1.00
H714   H     0.00844   0.50889   0.55260   0.00000  Uiso   1.00
H715   H     0.14389   0.37092   0.42625   0.00000  Uiso   1.00
H716   H     0.18975   0.62907   0.57376   0.00000  Uiso   1.00
H717   H     0.14421   0.62904   0.42621   0.00000  Uiso   1.00
H718   H     0.18941   0.37096   0.57379   0.00000  Uiso   1.00
H719   H     0.22385   0.54665   0.62997   0.00000  Uiso   1.00
H720   H     0.11170   0.45104   0.36930   0.00000  Uiso   1.00
N721   N     0.16665   0.49999   0.61907   0.00000  Uiso   1.00
N722   N     0.16668   0.50001   0.38093   0.00000  Uiso   1.00
O723   O     0.16666   0.43892   0.53821   0.00000  Uiso   1.00
O724   O     0.16667   0.56108   0.46179   0.00000  Uiso   1.00
O725   O     0.16666   0.43893   0.46176   0.00000  Uiso   1.00
O726   O     0.16667   0.56107   0.53824   0.00000  Uiso   1.00
O727   O     0.09058   0.50000   0.52928   0.00000  Uiso   1.00
O728   O     0.24275   0.50000   0.47072   0.00000  Uiso   1.00
O729   O     0.09058   0.50000   0.45284   0.00000  Uiso   1.00
O730   O     0.24275   0.50000   0.54716   0.00000  Uiso   1.00
Zn731  Zn    0.16667   0.49999   0.55104   0.00000  Uiso   1.00
Zn732  Zn    0.16667   0.50001   0.44896   0.00000  Uiso   1.00
O733   O     0.23154   0.55250   0.39268   0.00000  Uiso   1.00
C734   C     0.25972   0.58397   0.37292   0.00000  Uiso   1.00
H735   H     0.26800   0.60920   0.39873   0.00000  Uiso   1.00
H736   H     0.23626   0.59923   0.34283   0.00000  Uiso   1.00
C737   C     0.31289   0.56750   0.36312   0.00000  Uiso   1.00
H738   H     0.00339   0.55763   0.39583   0.00000  Uiso   1.00
H739   H     0.30717   0.53990   0.34030   0.00000  Uiso   1.00
C740   C     0.01004   0.60080   0.34088   0.00000  Uiso   1.00
H741   H     0.32059   0.61096   0.64115   0.00000  Uiso   1.00
H742   H     0.04814   0.58788   0.33420   0.00000  Uiso   1.00
H743   H     0.01816   0.62809   0.36397   0.00000  Uiso   1.00
O744   O     0.10656   0.44331   0.61047   0.00000  Uiso   1.00
C745   C     0.05337   0.44016   0.61767   0.00000  Uiso   1.00
H746   H     0.02856   0.44269   0.58372   0.00000  Uiso   1.00
H747   H     0.04043   0.46550   0.63925   0.00000  Uiso   1.00
C748   C     0.04266   0.39727   0.63725   0.00000  Uiso   1.00
H749   H     0.05238   0.37270   0.61344   0.00000  Uiso   1.00
H750   H     0.06785   0.39258   0.33743   0.00000  Uiso   1.00
C751   C     0.31835   0.39262   0.64358   0.00000  Uiso   1.00
H752   H     0.30799   0.41639   0.33464   0.00000  Uiso   1.00
H753   H     0.31152   0.36124   0.65748   0.00000  Uiso   1.00
H754   H     0.29236   0.39626   0.61023   0.00000  Uiso   1.00
C755   C     0.49993   0.41997   0.50001   0.00000  Uiso   1.00
C756   C     0.50014   0.58003   0.50000   0.00000  Uiso   1.00
C757   C     0.40037   0.50027   0.48803   0.00000  Uiso   1.00
C758   C     0.59962   0.50092   0.51192   0.00000  Uiso   1.00
C759   C     0.34532   0.49989   0.48155   0.00000  Uiso   1.00
C760   C     0.65458   0.50367   0.51813   0.00000  Uiso   1.00
C761   C     0.48748   0.35465   0.45850   0.00000  Uiso   1.00
C762   C     0.51282   0.64535   0.54151   0.00000  Uiso   1.00
C763   C     0.48767   0.64533   0.45847   0.00000  Uiso   1.00
C764   C     0.51263   0.35467   0.54154   0.00000  Uiso   1.00
C765   C     0.50027   0.62418   0.49998   0.00000  Uiso   1.00
C766   C     0.49997   0.37582   0.50003   0.00000  Uiso   1.00
C767   C     0.53219   0.52716   0.36202   0.00000  Uiso   1.00
C768   C     0.46800   0.47303   0.63837   0.00000  Uiso   1.00
C769   C     0.53188   0.52666   0.64657   0.00000  Uiso   1.00
C770   C     0.46878   0.47298   0.35345   0.00000  Uiso   1.00
H771   H     0.65810   0.49538   0.44694   0.00000  Uiso   1.00
H772   H     0.34177   0.50889   0.55260   0.00000  Uiso   1.00
H773   H     0.47722   0.37092   0.42625   0.00000  Uiso   1.00
H774   H     0.52308   0.62907   0.57376   0.00000  Uiso   1.00
H775   H     0.47755   0.62904   0.42621   0.00000  Uiso   1.00
H776   H     0.52274   0.37096   0.57379   0.00000  Uiso   1.00
H777   H     0.55718   0.54665   0.62997   0.00000  Uiso   1.00
H778   H     0.44503   0.45104   0.36930   0.00000  Uiso   1.00
N779   N     0.49999   0.49999   0.61907   0.00000  Uiso   1.00
N780   N     0.50001   0.50001   0.38093   0.00000  Uiso   1.00
O781   O     0.50000   0.43892   0.53821   0.00000  Uiso   1.00
O782   O     0.50000   0.56108   0.46179   0.00000  Uiso   1.00
O783   O     0.50000   0.43893   0.46176   0.00000  Uiso   1.00
O784   O     0.50000   0.56107   0.53824   0.00000  Uiso   1.00
O785   O     0.42392   0.50000   0.52928   0.00000  Uiso   1.00
O786   O     0.57608   0.50000   0.47072   0.00000  Uiso   1.00
O787   O     0.42392   0.50000   0.45284   0.00000  Uiso   1.00
O788   O     0.57608   0.50000   0.54716   0.00000  Uiso   1.00
Zn789  Zn    0.50000   0.49999   0.55104   0.00000  Uiso   1.00
Zn790  Zn    0.50000   0.50001   0.44896   0.00000  Uiso   1.00
O791   O     0.56488   0.55250   0.39268   0.00000  Uiso   1.00
C792   C     0.59306   0.58397   0.37292   0.00000  Uiso   1.00
H793   H     0.60133   0.60920   0.39873   0.00000  Uiso   1.00
H794   H     0.56960   0.59923   0.34283   0.00000  Uiso   1.00
C795   C     0.64622   0.56750   0.36312   0.00000  Uiso   1.00
H796   H     0.33672   0.55763   0.39583   0.00000  Uiso   1.00
H797   H     0.64050   0.53990   0.34030   0.00000  Uiso   1.00
C798   C     0.34337   0.60080   0.34088   0.00000  Uiso   1.00
H799   H     0.65392   0.61096   0.64115   0.00000  Uiso   1.00
H800   H     0.38147   0.58788   0.33420   0.00000  Uiso   1.00
H801   H     0.35149   0.62809   0.36397   0.00000  Uiso   1.00
O802   O     0.43989   0.44331   0.61047   0.00000  Uiso   1.00
C803   C     0.38671   0.44016   0.61767   0.00000  Uiso   1.00
H804   H     0.36189   0.44269   0.58372   0.00000  Uiso   1.00
H805   H     0.37376   0.46550   0.63925   0.00000  Uiso   1.00
C806   C     0.37600   0.39727   0.63725   0.00000  Uiso   1.00
H807   H     0.38571   0.37270   0.61344   0.00000  Uiso   1.00
H808   H     0.40118   0.39258   0.33743   0.00000  Uiso   1.00
C809   C     0.65168   0.39262   0.64358   0.00000  Uiso   1.00
H810   H     0.64132   0.41639   0.33464   0.00000  Uiso   1.00
H811   H     0.64485   0.36124   0.65748   0.00000  Uiso   1.00
H812   H     0.62569   0.39626   0.61023   0.00000  Uiso   1.00
C813   C     0.83327   0.41997   0.50001   0.00000  Uiso   1.00
C814   C     0.83347   0.58003   0.50000   0.00000  Uiso   1.00
C815   C     0.73370   0.50027   0.48803   0.00000  Uiso   1.00
C816   C     0.93295   0.50092   0.51192   0.00000  Uiso   1.00
C817   C     0.67865   0.49989   0.48155   0.00000  Uiso   1.00
C818   C     0.98792   0.50367   0.51813   0.00000  Uiso   1.00
C819   C     0.82081   0.35465   0.45850   0.00000  Uiso   1.00
C820   C     0.84616   0.64535   0.54151   0.00000  Uiso   1.00
C821   C     0.82100   0.64533   0.45847   0.00000  Uiso   1.00
C822   C     0.84597   0.35467   0.54154   0.00000  Uiso   1.00
C823   C     0.83360   0.62418   0.49998   0.00000  Uiso   1.00
C824   C     0.83330   0.37582   0.50003   0.00000  Uiso   1.00
C825   C     0.86552   0.52716   0.36202   0.00000  Uiso   1.00
C826   C     0.80134   0.47303   0.63837   0.00000  Uiso   1.00
C827   C     0.86521   0.52666   0.64657   0.00000  Uiso   1.00
C828   C     0.80211   0.47298   0.35345   0.00000  Uiso   1.00
H829   H     0.99143   0.49538   0.44694   0.00000  Uiso   1.00
H830   H     0.67511   0.50889   0.55260   0.00000  Uiso   1.00
H831   H     0.81056   0.37092   0.42625   0.00000  Uiso   1.00
H832   H     0.85642   0.62907   0.57376   0.00000  Uiso   1.00
H833   H     0.81088   0.62904   0.42621   0.00000  Uiso   1.00
H834   H     0.85607   0.37096   0.57379   0.00000  Uiso   1.00
H835   H     0.89052   0.54665   0.62997   0.00000  Uiso   1.00
H836   H     0.77837   0.45104   0.36930   0.00000  Uiso   1.00
N837   N     0.83332   0.49999   0.61907   0.00000  Uiso   1.00
N838   N     0.83335   0.50001   0.38093   0.00000  Uiso   1.00
O839   O     0.83333   0.43892   0.53821   0.00000  Uiso   1.00
O840   O     0.83334   0.56108   0.46179   0.00000  Uiso   1.00
O841   O     0.83333   0.43893   0.46176   0.00000  Uiso   1.00
O842   O     0.83334   0.56107   0.53824   0.00000  Uiso   1.00
O843   O     0.75725   0.50000   0.52928   0.00000  Uiso   1.00
O844   O     0.90942   0.50000   0.47072   0.00000  Uiso   1.00
O845   O     0.75725   0.50000   0.45284   0.00000  Uiso   1.00
O846   O     0.90942   0.50000   0.54716   0.00000  Uiso   1.00
Zn847  Zn    0.83333   0.49999   0.55104   0.00000  Uiso   1.00
Zn848  Zn    0.83333   0.50001   0.44896   0.00000  Uiso   1.00
O849   O     0.89821   0.55250   0.39268   0.00000  Uiso   1.00
C850   C     0.92639   0.58397   0.37292   0.00000  Uiso   1.00
H851   H     0.93466   0.60920   0.39873   0.00000  Uiso   1.00
H852   H     0.90293   0.59923   0.34283   0.00000  Uiso   1.00
C853   C     0.97956   0.56750   0.36312   0.00000  Uiso   1.00
H854   H     0.67006   0.55763   0.39583   0.00000  Uiso   1.00
H855   H     0.97384   0.53990   0.34030   0.00000  Uiso   1.00
C856   C     0.67670   0.60080   0.34088   0.00000  Uiso   1.00
H857   H     0.98725   0.61096   0.64115   0.00000  Uiso   1.00
H858   H     0.71480   0.58788   0.33420   0.00000  Uiso   1.00
H859   H     0.68483   0.62809   0.36397   0.00000  Uiso   1.00
O860   O     0.77323   0.44331   0.61047   0.00000  Uiso   1.00
C861   C     0.72004   0.44016   0.61767   0.00000  Uiso   1.00
H862   H     0.69523   0.44269   0.58372   0.00000  Uiso   1.00
H863   H     0.70710   0.46550   0.63925   0.00000  Uiso   1.00
C864   C     0.70933   0.39727   0.63725   0.00000  Uiso   1.00
H865   H     0.71905   0.37270   0.61344   0.00000  Uiso   1.00
H866   H     0.73451   0.39258   0.33743   0.00000  Uiso   1.00
C867   C     0.98501   0.39262   0.64358   0.00000  Uiso   1.00
H868   H     0.97466   0.41639   0.33464   0.00000  Uiso   1.00
H869   H     0.97819   0.36124   0.65748   0.00000  Uiso   1.00
H870   H     0.95902   0.39626   0.61023   0.00000  Uiso   1.00
C871   C     0.16660   0.75330   0.50001   0.00000  Uiso   1.00
C872   C     0.16680   0.91337   0.50000   0.00000  Uiso   1.00
C873   C     0.06703   0.83360   0.48803   0.00000  Uiso   1.00
C874   C     0.26628   0.83425   0.51192   0.00000  Uiso   1.00
C875   C     0.01198   0.83322   0.48155   0.00000  Uiso   1.00
C876   C     0.32125   0.83700   0.51813   0.00000  Uiso   1.00
C877   C     0.15415   0.68798   0.45850   0.00000  Uiso   1.00
C878   C     0.17949   0.97868   0.54151   0.00000  Uiso   1.00
C879   C     0.15433   0.97866   0.45847   0.00000  Uiso   1.00
C880   C     0.17930   0.68800   0.54154   0.00000  Uiso   1.00
C881   C     0.16693   0.95751   0.49998   0.00000  Uiso   1.00
C882   C     0.16663   0.70915   0.50003   0.00000  Uiso   1.00
C883   C     0.19886   0.86049   0.36202   0.00000  Uiso   1.00
C884   C     0.13467   0.80637   0.63837   0.00000  Uiso   1.00
C885   C     0.19854   0.86000   0.64657   0.00000  Uiso   1.00
C886   C     0.13544   0.80631   0.35345   0.00000  Uiso   1.00
H887   H     0.32476   0.82872   0.44694   0.00000  Uiso   1.00
H888   H     0.00844   0.84222   0.55260   0.00000  Uiso   1.00
H889   H     0.14389   0.70425   0.42625   0.00000  Uiso   1.00
H890   H     0.18975   0.96241   0.57376   0.00000  Uiso   1.00
H891   H     0.14421   0.96238   0.42621   0.00000  Uiso   1.00
H892   H     0.18941   0.70429   0.57379   0.00000  Uiso   1.00
H893   H     0.22385   0.87998   0.62997   0.00000  Uiso   1.00
H894   H     0.11170   0.78437   0.36930   0.00000  Uiso   1.00
N895   N     0.16665   0.83332   0.61907   0.00000  Uiso   1.00
N896   N     0.16668   0.83334   0.38093   0.00000  Uiso   1.00
O897   O     0.16666   0.77225   0.53821   0.00000  Uiso   1.00
O898   O     0.16667   0.89442   0.46179   0.00000  Uiso   1.00
O899   O     0.16666   0.77226   0.46176   0.00000  Uiso   1.00
O900   O     0.16667   0.89441   0.53824   0.00000  Uiso   1.00
O901   O     0.09058   0.83333   0.52928   0.00000  Uiso   1.00
O902   O     0.24275   0.83334   0.47072   0.00000  Uiso   1.00
O903   O     0.09058   0.83334   0.45284   0.00000  Uiso   1.00
O904   O     0.24275   0.83333   0.54716   0.00000  Uiso   1.00
Zn905  Zn    0.16667   0.83333   0.55104   0.00000  Uiso   1.00
Zn906  Zn    0.16667   0.83334   0.44896   0.00000  Uiso   1.00
O907   O     0.23154   0.88583   0.39268   0.00000  Uiso   1.00
C908   C     0.25972   0.91730   0.37292   0.00000  Uiso   1.00
H909   H     0.26800   0.94254   0.39873   0.00000  Uiso   1.00
H910   H     0.23626   0.93256   0.34283   0.00000  Uiso   1.00
C911   C     0.31289   0.90084   0.36312   0.00000  Uiso   1.00
H912   H     0.00339   0.89096   0.39583   0.00000  Uiso   1.00
H913   H     0.30717   0.87324   0.34030   0.00000  Uiso   1.00
C914   C     0.01004   0.93413   0.34088   0.00000  Uiso   1.00
H915   H     0.32059   0.94429   0.64115   0.00000  Uiso   1.00
H916   H     0.04814   0.92121   0.33420   0.00000  Uiso   1.00
H917   H     0.01816   0.96143   0.36397   0.00000  Uiso   1.00
O918   O     0.10656   0.77664   0.61047   0.00000  Uiso   1.00
C919   C     0.05337   0.77350   0.61767   0.00000  Uiso   1.00
H920   H     0.02856   0.77602   0.58372   0.00000  Uiso   1.00
H921   H     0.04043   0.79883   0.63925   0.00000  Uiso   1.00
C922   C     0.04266   0.73061   0.63725   0.00000  Uiso   1.00
H923   H     0.05238   0.70603   0.61344   0.00000  Uiso   1.00
H924   H     0.06785   0.72592   0.33743   0.00000  Uiso   1.00
C925   C     0.31835   0.72595   0.64358   0.00000  Uiso   1.00
H926   H     0.30799   0.74972   0.33464   0.00000  Uiso   1.00
H927   H     0.31152   0.69457   0.65748   0.00000  Uiso   1.00
H928   H     0.29236   0.72960   0.61023   0.00000  Uiso   1.00
C929   C     0.49993   0.75330   0.50001   0.00000  Uiso   1.00
C930   C     0.50014   0.91337   0.50000   0.00000  Uiso   1.00
C931   C     0.40037   0.83360   0.48803   0.00000  Uiso   1.00
C932   C     0.59962   0.83425   0.51192   0.00000  Uiso   1.00
C933   C     0.34532   0.83322   0.48155   0.00000  Uiso   1.00
C934   C     0.65458   0.83700   0.51813   0.00000  Uiso   1.00
C935   C     0.48748   0.68798   0.45850   0.00000  Uiso   1.00
C936   C     0.51282   0.97868   0.54151   0.00000  Uiso   1.00
C937   C     0.48767   0.97866   0.45847   0.00000  Uiso   1.00
C938   C     0.51263   0.68800   0.54154   0.00000  Uiso   1.00
C939   C     0.50027   0.95751   0.49998   0.00000  Uiso   1.00
C940   C     0.49997   0.70915   0.50003   0.00000  Uiso   1.00
C941   C     0.53219   0.86049   0.36202   0.00000  Uiso   1.00
C942   C     0.46800   0.80637   0.63837   0.00000  Uiso   1.00
C943   C     0.53188   0.86000   0.64657   0.00000  Uiso   1.00
C944   C     0.46878   0.80631   0.35345   0.00000  Uiso   1.00
H945   H     0.65810   0.82872   0.44694   0.00000  Uiso   1.00
H946   H     0.34177   0.84222   0.55260   0.00000  Uiso   1.00
H947   H     0.47722   0.70425   0.42625   0.00000  Uiso   1.00
H948   H     0.52308   0.96241   0.57376   0.00000  Uiso   1.00
H949   H     0.47755   0.96238   0.42621   0.00000  Uiso   1.00
H950   H     0.52274   0.70429   0.57379   0.00000  Uiso   1.00
H951   H     0.55718   0.87998   0.62997   0.00000  Uiso   1.00
H952   H     0.44503   0.78437   0.36930   0.00000  Uiso   1.00
N953   N     0.49999   0.83332   0.61907   0.00000  Uiso   1.00
N954   N     0.50001   0.83334   0.38093   0.00000  Uiso   1.00
O955   O     0.50000   0.77225   0.53821   0.00000  Uiso   1.00
O956   O     0.50000   0.89442   0.46179   0.00000  Uiso   1.00
O957   O     0.50000   0.77226   0.46176   0.00000  Uiso   1.00
O958   O     0.50000   0.89441   0.53824   0.00000  Uiso   1.00
O959   O     0.42392   0.83333   0.52928   0.00000  Uiso   1.00
O960   O     0.57608   0.83334   0.47072   0.00000  Uiso   1.00
O961   O     0.42392   0.83334   0.45284   0.00000  Uiso   1.00
O962   O     0.57608   0.83333   0.54716   0.00000  Uiso   1.00
Zn963  Zn    0.50000   0.83333   0.55104   0.00000  Uiso   1.00
Zn964  Zn    0.50000   0.83334   0.44896   0.00000  Uiso   1.00
O965   O     0.56488   0.88583   0.39268   0.00000  Uiso   1.00
C966   C     0.59306   0.91730   0.37292   0.00000  Uiso   1.00
H967   H     0.60133   0.94254   0.39873   0.00000  Uiso   1.00
H968   H     0.56960   0.93256   0.34283   0.00000  Uiso   1.00
C969   C     0.64622   0.90084   0.36312   0.00000  Uiso   1.00
H970   H     0.33672   0.89096   0.39583   0.00000  Uiso   1.00
H971   H     0.64050   0.87324   0.34030   0.00000  Uiso   1.00
C972   C     0.34337   0.93413   0.34088   0.00000  Uiso   1.00
H973   H     0.65392   0.94429   0.64115   0.00000  Uiso   1.00
H974   H     0.38147   0.92121   0.33420   0.00000  Uiso   1.00
H975   H     0.35149   0.96143   0.36397   0.00000  Uiso   1.00
O976   O     0.43989   0.77664   0.61047   0.00000  Uiso   1.00
C977   C     0.38671   0.77350   0.61767   0.00000  Uiso   1.00
H978   H     0.36189   0.77602   0.58372   0.00000  Uiso   1.00
H979   H     0.37376   0.79883   0.63925   0.00000  Uiso   1.00
C980   C     0.37600   0.73061   0.63725   0.00000  Uiso   1.00
H981   H     0.38571   0.70603   0.61344   0.00000  Uiso   1.00
H982   H     0.40118   0.72592   0.33743   0.00000  Uiso   1.00
C983   C     0.65168   0.72595   0.64358   0.00000  Uiso   1.00
H984   H     0.64132   0.74972   0.33464   0.00000  Uiso   1.00
H985   H     0.64485   0.69457   0.65748   0.00000  Uiso   1.00
H986   H     0.62569   0.72960   0.61023   0.00000  Uiso   1.00
C987   C     0.83327   0.75330   0.50001   0.00000  Uiso   1.00
C988   C     0.83347   0.91337   0.50000   0.00000  Uiso   1.00
C989   C     0.73370   0.83360   0.48803   0.00000  Uiso   1.00
C990   C     0.93295   0.83425   0.51192   0.00000  Uiso   1.00
C991   C     0.67865   0.83322   0.48155   0.00000  Uiso   1.00
C992   C     0.98792   0.83700   0.51813   0.00000  Uiso   1.00
C993   C     0.82081   0.68798   0.45850   0.00000  Uiso   1.00
C994   C     0.84616   0.97868   0.54151   0.00000  Uiso   1.00
C995   C     0.82100   0.97866   0.45847   0.00000  Uiso   1.00
C996   C     0.84597   0.68800   0.54154   0.00000  Uiso   1.00
C997   C     0.83360   0.95751   0.49998   0.00000  Uiso   1.00
C998   C     0.83330   0.70915   0.50003   0.00000  Uiso   1.00
C999   C     0.86552   0.86049   0.36202   0.00000  Uiso   1.00
C1000  C     0.80134   0.80637   0.63837   0.00000  Uiso   1.00
C1001  C     0.86521   0.86000   0.64657   0.00000  Uiso   1.00
C1002  C     0.80211   0.80631   0.35345   0.00000  Uiso   1.00
H1003  H     0.99143   0.82872   0.44694   0.00000  Uiso   1.00
H1004  H     0.67511   0.84222   0.55260   0.00000  Uiso   1.00
H1005  H     0.81056   0.70425   0.42625   0.00000  Uiso   1.00
H1006  H     0.85642   0.96241   0.57376   0.00000  Uiso   1.00
H1007  H     0.81088   0.96238   0.42621   0.00000  Uiso   1.00
H1008  H     0.85607   0.70429   0.57379   0.00000  Uiso   1.00
H1009  H     0.89052   0.87998   0.62997   0.00000  Uiso   1.00
H1010  H     0.77837   0.78437   0.36930   0.00000  Uiso   1.00
N1011  N     0.83332   0.83332   0.61907   0.00000  Uiso   1.00
N1012  N     0.83335   0.83334   0.38093   0.00000  Uiso   1.00
O1013  O     0.83333   0.77225   0.53821   0.00000  Uiso   1.00
O1014  O     0.83334   0.89442   0.46179   0.00000  Uiso   1.00
O1015  O     0.83333   0.77226   0.46176   0.00000  Uiso   1.00
O1016  O     0.83334   0.89441   0.53824   0.00000  Uiso   1.00
O1017  O     0.75725   0.83333   0.52928   0.00000  Uiso   1.00
O1018  O     0.90942   0.83334   0.47072   0.00000  Uiso   1.00
O1019  O     0.75725   0.83334   0.45284   0.00000  Uiso   1.00
O1020  O     0.90942   0.83333   0.54716   0.00000  Uiso   1.00
Zn1021 Zn    0.83333   0.83333   0.55104   0.00000  Uiso   1.00
Zn1022 Zn    0.83333   0.83334   0.44896   0.00000  Uiso   1.00
O1023  O     0.89821   0.88583   0.39268   0.00000  Uiso   1.00
C1024  C     0.92639   0.91730   0.37292   0.00000  Uiso   1.00
H1025  H     0.93466   0.94254   0.39873   0.00000  Uiso   1.00
H1026  H     0.90293   0.93256   0.34283   0.00000  Uiso   1.00
C1027  C     0.97956   0.90084   0.36312   0.00000  Uiso   1.00
H1028  H     0.67006   0.89096   0.39583   0.00000  Uiso   1.00
H1029  H     0.97384   0.87324   0.34030   0.00000  Uiso   1.00
C1030  C     0.67670   0.93413   0.34088   0.00000  Uiso   1.00
H1031  H     0.98725   0.94429   0.64115   0.00000  Uiso   1.00
H1032  H     0.71480   0.92121   0.33420   0.00000  Uiso   1.00
H1033  H     0.68483   0.96143   0.36397   0.00000  Uiso   1.00
O1034  O     0.77323   0.77664   0.61047   0.00000  Uiso   1.00
C1035  C     0.72004   0.77350   0.61767   0.00000  Uiso   1.00
H1036  H     0.69523   0.77602   0.58372   0.00000  Uiso   1.00
H1037  H     0.70710   0.79883   0.63925   0.00000  Uiso   1.00
C1038  C     0.70933   0.73061   0.63725   0.00000  Uiso   1.00
H1039  H     0.71905   0.70603   0.61344   0.00000  Uiso   1.00
H1040  H     0.73451   0.72592   0.33743   0.00000  Uiso   1.00
C1041  C     0.98501   0.72595   0.64358   0.00000  Uiso   1.00
H1042  H     0.97466   0.74972   0.33464   0.00000  Uiso   1.00
H1043  H     0.97819   0.69457   0.65748   0.00000  Uiso   1.00
H1044  H     0.95902   0.72960   0.61023   0.00000  Uiso   1.00
C1045  C     0.16660   0.08663   0.83334   0.00000  Uiso   1.00
C1046  C     0.16680   0.24670   0.83334   0.00000  Uiso   1.00
C1047  C     0.06703   0.16693   0.82137   0.00000  Uiso   1.00
C1048  C     0.26628   0.16759   0.84525   0.00000  Uiso   1.00
C1049  C     0.01198   0.16655   0.81488   0.00000  Uiso   1.00
C1050  C     0.32125   0.17033   0.85146   0.00000  Uiso   1.00
C1051  C     0.15415   0.02131   0.79183   0.00000  Uiso   1.00
C1052  C     0.17949   0.31201   0.87484   0.00000  Uiso   1.00
C1053  C     0.15433   0.31200   0.79181   0.00000  Uiso   1.00
C1054  C     0.17930   0.02134   0.87487   0.00000  Uiso   1.00
C1055  C     0.16693   0.29084   0.83332   0.00000  Uiso   1.00
C1056  C     0.16663   0.04249   0.83336   0.00000  Uiso   1.00
C1057  C     0.19886   0.19383   0.69535   0.00000  Uiso   1.00
C1058  C     0.13467   0.13970   0.97170   0.00000  Uiso   1.00
C1059  C     0.19854   0.19333   0.97991   0.00000  Uiso   1.00
C1060  C     0.13544   0.13965   0.68678   0.00000  Uiso   1.00
H1061  H     0.32476   0.16205   0.78027   0.00000  Uiso   1.00
H1062  H     0.00844   0.17555   0.88593   0.00000  Uiso   1.00
H1063  H     0.14389   0.03758   0.75958   0.00000  Uiso   1.00
H1064  H     0.18975   0.29574   0.90709   0.00000  Uiso   1.00
H1065  H     0.14421   0.29571   0.75955   0.00000  Uiso   1.00
H1066  H     0.18941   0.03763   0.90712   0.00000  Uiso   1.00
H1067  H     0.22385   0.21332   0.96331   0.00000  Uiso   1.00
H1068  H     0.11170   0.11770   0.70264   0.00000  Uiso   1.00
N1069  N     0.16665   0.16666   0.95240   0.00000  Uiso   1.00
N1070  N     0.16668   0.16668   0.71427   0.00000  Uiso   1.00
O1071  O     0.16666   0.10558   0.87154   0.00000  Uiso   1.00
O1072  O     0.16667   0.22775   0.79513   0.00000  Uiso   1.00
O1073  O     0.16666   0.10559   0.79510   0.00000  Uiso   1.00
O1074  O     0.16667   0.22774   0.87157   0.00000  Uiso   1.00
O1075  O     0.09058   0.16666   0.86261   0.00000  Uiso   1.00
O1076  O     0.24275   0.16667   0.80405   0.00000  Uiso   1.00
O1077  O     0.09058   0.16667   0.78617   0.00000  Uiso   1.00
O1078  O     0.24275   0.16666   0.88050   0.00000  Uiso   1.00
Zn1079 Zn    0.16667   0.16666   0.88437   0.00000  Uiso   1.00
Zn1080 Zn    0.16667   0.16667   0.78229   0.00000  Uiso   1.00
O1081  O     0.23154   0.21916   0.72601   0.00000  Uiso   1.00
C1082  C     0.25972   0.25063   0.70625   0.00000  Uiso   1.00
H1083  H     0.26800   0.27587   0.73206   0.00000  Uiso   1.00
H1084  H     0.23626   0.26589   0.67616   0.00000  Uiso   1.00
C1085  C     0.31289   0.23417   0.69646   0.00000  Uiso   1.00
H1086  H     0.00339   0.22429   0.72917   0.00000  Uiso   1.00
H1087  H     0.30717   0.20657   0.67364   0.00000  Uiso   1.00
C1088  C     0.01004   0.26747   0.67421   0.00000  Uiso   1.00
H1089  H     0.32059   0.27763   0.97448   0.00000  Uiso   1.00
H1090  H     0.04814   0.25454   0.66754   0.00000  Uiso   1.00
H1091  H     0.01816   0.29476   0.69731   0.00000  Uiso   1.00
O1092  O     0.10656   0.10997   0.94381   0.00000  Uiso   1.00
C1093  C     0.05337   0.10683   0.95101   0.00000  Uiso   1.00
H1094  H     0.02856   0.10936   0.91705   0.00000  Uiso   1.00
H1095  H     0.04043   0.13216   0.97258   0.00000  Uiso   1.00
C1096  C     0.04266   0.06394   0.97058   0.00000  Uiso   1.00
H1097  H     0.05238   0.03936   0.94678   0.00000  Uiso   1.00
H1098  H     0.06785   0.05925   0.67076   0.00000  Uiso   1.00
C1099  C     0.31835   0.05928   0.97691   0.00000  Uiso   1.00
H1100  H     0.30799   0.08306   0.66797   0.00000  Uiso   1.00
H1101  H     0.31152   0.02791   0.99081   0.00000  Uiso   1.00
H1102  H     0.29236   0.06293   0.94357   0.00000  Uiso   1.00
C1103  C     0.49993   0.08663   0.83334   0.00000  Uiso   1.00
C1104  C     0.50014   0.24670   0.83334   0.00000  Uiso   1.00
C1105  C     0.40037   0.16693   0.82137   0.00000  Uiso   1.00
C1106  C     0.59962   0.16759   0.84525   0.00000  Uiso   1.00
C1107  C     0.34532   0.16655   0.81488   0.00000  Uiso   1.00
C1108  C     0.65458   0.17033   0.85146   0.00000  Uiso   1.00
C1109  C     0.48748   0.02131   0.79183   0.00000  Uiso   1.00
C1110  C     0.51282   0.31201   0.87484   0.00000  Uiso   1.00
C1111  C     0.48767   0.31200   0.79181   0.00000  Uiso   1.00
C1112  C     0.51263   0.02134   0.87487   0.00000  Uiso   1.00
C1113  C     0.50027   0.29084   0.83332   0.00000  Uiso   1.00
C1114  C     0.49997   0.04249   0.83336   0.00000  Uiso   1.00
C1115  C     0.53219   0.19383   0.69535   0.00000  Uiso   1.00
C1116  C     0.46800   0.13970   0.97170   0.00000  Uiso   1.00
C1117  C     0.53188   0.19333   0.97991   0.00000  Uiso   1.00
C1118  C     0.46878   0.13965   0.68678   0.00000  Uiso   1.00
H1119  H     0.65810   0.16205   0.78027   0.00000  Uiso   1.00
H1120  H     0.34177   0.17555   0.88593   0.00000  Uiso   1.00
H1121  H     0.47722   0.03758   0.75958   0.00000  Uiso   1.00
H1122  H     0.52308   0.29574   0.90709   0.00000  Uiso   1.00
H1123  H     0.47755   0.29571   0.75955   0.00000  Uiso   1.00
H1124  H     0.52274   0.03763   0.90712   0.00000  Uiso   1.00
H1125  H     0.55718   0.21332   0.96331   0.00000  Uiso   1.00
H1126  H     0.44503   0.11770   0.70264   0.00000  Uiso   1.00
N1127  N     0.49999   0.16666   0.95240   0.00000  Uiso   1.00
N1128  N     0.50001   0.16668   0.71427   0.00000  Uiso   1.00
O1129  O     0.50000   0.10558   0.87154   0.00000  Uiso   1.00
O1130  O     0.50000   0.22775   0.79513   0.00000  Uiso   1.00
O1131  O     0.50000   0.10559   0.79510   0.00000  Uiso   1.00
O1132  O     0.50000   0.22774   0.87157   0.00000  Uiso   1.00
O1133  O     0.42392   0.16666   0.86261   0.00000  Uiso   1.00
O1134  O     0.57608   0.16667   0.80405   0.00000  Uiso   1.00
O1135  O     0.42392   0.16667   0.78617   0.00000  Uiso   1.00
O1136  O     0.57608   0.16666   0.88050   0.00000  Uiso   1.00
Zn1137 Zn    0.50000   0.16666   0.88437   0.00000  Uiso   1.00
Zn1138 Zn    0.50000   0.16667   0.78229   0.00000  Uiso   1.00
O1139  O     0.56488   0.21916   0.72601   0.00000  Uiso   1.00
C1140  C     0.59306   0.25063   0.70625   0.00000  Uiso   1.00
H1141  H     0.60133   0.27587   0.73206   0.00000  Uiso   1.00
H1142  H     0.56960   0.26589   0.67616   0.00000  Uiso   1.00
C1143  C     0.64622   0.23417   0.69646   0.00000  Uiso   1.00
H1144  H     0.33672   0.22429   0.72917   0.00000  Uiso   1.00
H1145  H     0.64050   0.20657   0.67364   0.00000  Uiso   1.00
C1146  C     0.34337   0.26747   0.67421   0.00000  Uiso   1.00
H1147  H     0.65392   0.27763   0.97448   0.00000  Uiso   1.00
H1148  H     0.38147   0.25454   0.66754   0.00000  Uiso   1.00
H1149  H     0.35149   0.29476   0.69731   0.00000  Uiso   1.00
O1150  O     0.43989   0.10997   0.94381   0.00000  Uiso   1.00
C1151  C     0.38671   0.10683   0.95101   0.00000  Uiso   1.00
H1152  H     0.36189   0.10936   0.91705   0.00000  Uiso   1.00
H1153  H     0.37376   0.13216   0.97258   0.00000  Uiso   1.00
C1154  C     0.37600   0.06394   0.97058   0.00000  Uiso   1.00
H1155  H     0.38571   0.03936   0.94678   0.00000  Uiso   1.00
H1156  H     0.40118   0.05925   0.67076   0.00000  Uiso   1.00
C1157  C     0.65168   0.05928   0.97691   0.00000  Uiso   1.00
H1158  H     0.64132   0.08306   0.66797   0.00000  Uiso   1.00
H1159  H     0.64485   0.02791   0.99081   0.00000  Uiso   1.00
H1160  H     0.62569   0.06293   0.94357   0.00000  Uiso   1.00
C1161  C     0.83327   0.08663   0.83334   0.00000  Uiso   1.00
C1162  C     0.83347   0.24670   0.83334   0.00000  Uiso   1.00
C1163  C     0.73370   0.16693   0.82137   0.00000  Uiso   1.00
C1164  C     0.93295   0.16759   0.84525   0.00000  Uiso   1.00
C1165  C     0.67865   0.16655   0.81488   0.00000  Uiso   1.00
C1166  C     0.98792   0.17033   0.85146   0.00000  Uiso   1.00
C1167  C     0.82081   0.02131   0.79183   0.00000  Uiso   1.00
C1168  C     0.84616   0.31201   0.87484   0.00000  Uiso   1.00
C1169  C     0.82100   0.31200   0.79181   0.00000  Uiso   1.00
C1170  C     0.84597   0.02134   0.87487   0.00000  Uiso   1.00
C1171  C     0.83360   0.29084   0.83332   0.00000  Uiso   1.00
C1172  C     0.83330   0.04249   0.83336   0.00000  Uiso   1.00
C1173  C     0.86552   0.19383   0.69535   0.00000  Uiso   1.00
C1174  C     0.80134   0.13970   0.97170   0.00000  Uiso   1.00
C1175  C     0.86521   0.19333   0.97991   0.00000  Uiso   1.00
C1176  C     0.80211   0.13965   0.68678   0.00000  Uiso   1.00
H1177  H     0.99143   0.16205   0.78027   0.00000  Uiso   1.00
H1178  H     0.67511   0.17555   0.88593   0.00000  Uiso   1.00
H1179  H     0.81056   0.03758   0.75958   0.00000  Uiso   1.00
H1180  H     0.85642   0.29574   0.90709   0.00000  Uiso   1.00
H1181  H     0.81088   0.29571   0.75955   0.00000  Uiso   1.00
H1182  H     0.85607   0.03763   0.90712   0.00000  Uiso   1.00
H1183  H     0.89052   0.21332   0.96331   0.00000  Uiso   1.00
H1184  H     0.77837   0.11770   0.70264   0.00000  Uiso   1.00
N1185  N     0.83332   0.16666   0.95240   0.00000  Uiso   1.00
N1186  N     0.83335   0.16668   0.71427   0.00000  Uiso   1.00
O1187  O     0.83333   0.10558   0.87154   0.00000  Uiso   1.00
O1188  O     0.83334   0.22775   0.79513   0.00000  Uiso   1.00
O1189  O     0.83333   0.10559   0.79510   0.00000  Uiso   1.00
O1190  O     0.83334   0.22774   0.87157   0.00000  Uiso   1.00
O1191  O     0.75725   0.16666   0.86261   0.00000  Uiso   1.00
O1192  O     0.90942   0.16667   0.80405   0.00000  Uiso   1.00
O1193  O     0.75725   0.16667   0.78617   0.00000  Uiso   1.00
O1194  O     0.90942   0.16666   0.88050   0.00000  Uiso   1.00
Zn1195 Zn    0.83333   0.16666   0.88437   0.00000  Uiso   1.00
Zn1196 Zn    0.83333   0.16667   0.78229   0.00000  Uiso   1.00
O1197  O     0.89821   0.21916   0.72601   0.00000  Uiso   1.00
C1198  C     0.92639   0.25063   0.70625   0.00000  Uiso   1.00
H1199  H     0.93466   0.27587   0.73206   0.00000  Uiso   1.00
H1200  H     0.90293   0.26589   0.67616   0.00000  Uiso   1.00
C1201  C     0.97956   0.23417   0.69646   0.00000  Uiso   1.00
H1202  H     0.67006   0.22429   0.72917   0.00000  Uiso   1.00
H1203  H     0.97384   0.20657   0.67364   0.00000  Uiso   1.00
C1204  C     0.67670   0.26747   0.67421   0.00000  Uiso   1.00
H1205  H     0.98725   0.27763   0.97448   0.00000  Uiso   1.00
H1206  H     0.71480   0.25454   0.66754   0.00000  Uiso   1.00
H1207  H     0.68483   0.29476   0.69731   0.00000  Uiso   1.00
O1208  O     0.77323   0.10997   0.94381   0.00000  Uiso   1.00
C1209  C     0.72004   0.10683   0.95101   0.00000  Uiso   1.00
H1210  H     0.69523   0.10936   0.91705   0.00000  Uiso   1.00
H1211  H     0.70710   0.13216   0.97258   0.00000  Uiso   1.00
C1212  C     0.70933   0.06394   0.97058   0.00000  Uiso   1.00
H1213  H     0.71905   0.03936   0.94678   0.00000  Uiso   1.00
H1214  H     0.73451   0.05925   0.67076   0.00000  Uiso   1.00
C1215  C     0.98501   0.05928   0.97691   0.00000  Uiso   1.00
H1216  H     0.97466   0.08306   0.66797   0.00000  Uiso   1.00
H1217  H     0.97819   0.02791   0.99081   0.00000  Uiso   1.00
H1218  H     0.95902   0.06293   0.94357   0.00000  Uiso   1.00
C1219  C     0.16660   0.41997   0.83334   0.00000  Uiso   1.00
C1220  C     0.16680   0.58003   0.83334   0.00000  Uiso   1.00
C1221  C     0.06703   0.50027   0.82137   0.00000  Uiso   1.00
C1222  C     0.26628   0.50092   0.84525   0.00000  Uiso   1.00
C1223  C     0.01198   0.49989   0.81488   0.00000  Uiso   1.00
C1224  C     0.32125   0.50367   0.85146   0.00000  Uiso   1.00
C1225  C     0.15415   0.35465   0.79183   0.00000  Uiso   1.00
C1226  C     0.17949   0.64535   0.87484   0.00000  Uiso   1.00
C1227  C     0.15433   0.64533   0.79181   0.00000  Uiso   1.00
C1228  C     0.17930   0.35467   0.87487   0.00000  Uiso   1.00
C1229  C     0.16693   0.62418   0.83332   0.00000  Uiso   1.00
C1230  C     0.16663   0.37582   0.83336   0.00000  Uiso   1.00
C1231  C     0.19886   0.52716   0.69535   0.00000  Uiso   1.00
C1232  C     0.13467   0.47303   0.97170   0.00000  Uiso   1.00
C1233  C     0.19854   0.52666   0.97991   0.00000  Uiso   1.00
C1234  C     0.13544   0.47298   0.68678   0.00000  Uiso   1.00
H1235  H     0.32476   0.49538   0.78027   0.00000  Uiso   1.00
H1236  H     0.00844   0.50889   0.88593   0.00000  Uiso   1.00
H1237  H     0.14389   0.37092   0.75958   0.00000  Uiso   1.00
H1238  H     0.18975   0.62907   0.90709   0.00000  Uiso   1.00
H1239  H     0.14421   0.62904   0.75955   0.00000  Uiso   1.00
H1240  H     0.18941   0.37096   0.90712   0.00000  Uiso   1.00
H1241  H     0.22385   0.54665   0.96331   0.00000  Uiso   1.00
H1242  H     0.11170   0.45104   0.70264   0.00000  Uiso   1.00
N1243  N     0.16665   0.49999   0.95240   0.00000  Uiso   1.00
N1244  N     0.16668   0.50001   0.71427   0.00000  Uiso   1.00
O1245  O     0.16666   0.43892   0.87154   0.00000  Uiso   1.00
O1246  O     0.16667   0.56108   0.79513   0.00000  Uiso   1.00
O1247  O     0.16666   0.43893   0.79510   0.00000  Uiso   1.00
O1248  O     0.16667   0.56107   0.87157   0.00000  Uiso   1.00
O1249  O     0.09058   0.50000   0.86261   0.00000  Uiso   1.00
O1250  O     0.24275   0.50000   0.80405   0.00000  Uiso   1.00
O1251  O     0.09058   0.50000   0.78617   0.00000  Uiso   1.00
O1252  O     0.24275   0.50000   0.88050   0.00000  Uiso   1.00
Zn1253 Zn    0.16667   0.49999   0.88437   0.00000  Uiso   1.00
Zn1254 Zn    0.16667   0.50001   0.78229   0.00000  Uiso   1.00
O1255  O     0.23154   0.55250   0.72601   0.00000  Uiso   1.00
C1256  C     0.25972   0.58397   0.70625   0.00000  Uiso   1.00
H1257  H     0.26800   0.60920   0.73206   0.00000  Uiso   1.00
H1258  H     0.23626   0.59923   0.67616   0.00000  Uiso   1.00
C1259  C     0.31289   0.56750   0.69646   0.00000  Uiso   1.00
H1260  H     0.00339   0.55763   0.72917   0.00000  Uiso   1.00
H1261  H     0.30717   0.53990   0.67364   0.00000  Uiso   1.00
C1262  C     0.01004   0.60080   0.67421   0.00000  Uiso   1.00
H1263  H     0.32059   0.61096   0.97448   0.00000  Uiso   1.00
H1264  H     0.04814   0.58788   0.66754   0.00000  Uiso   1.00
H1265  H     0.01816   0.62809   0.69731   0.00000  Uiso   1.00
O1266  O     0.10656   0.44331   0.94381   0.00000  Uiso   1.00
C1267  C     0.05337   0.44016   0.95101   0.00000  Uiso   1.00
H1268  H     0.02856   0.44269   0.91705   0.00000  Uiso   1.00
H1269  H     0.04043   0.46550   0.97258   0.00000  Uiso   1.00
C1270  C     0.04266   0.39727   0.97058   0.00000  Uiso   1.00
H1271  H     0.05238   0.37270   0.94678   0.00000  Uiso   1.00
H1272  H     0.06785   0.39258   0.67076   0.00000  Uiso   1.00
C1273  C     0.31835   0.39262   0.97691   0.00000  Uiso   1.00
H1274  H     0.30799   0.41639   0.66797   0.00000  Uiso   1.00
H1275  H     0.31152   0.36124   0.99081   0.00000  Uiso   1.00
H1276  H     0.29236   0.39626   0.94357   0.00000  Uiso   1.00
C1277  C     0.49993   0.41997   0.83334   0.00000  Uiso   1.00
C1278  C     0.50014   0.58003   0.83334   0.00000  Uiso   1.00
C1279  C     0.40037   0.50027   0.82137   0.00000  Uiso   1.00
C1280  C     0.59962   0.50092   0.84525   0.00000  Uiso   1.00
C1281  C     0.34532   0.49989   0.81488   0.00000  Uiso   1.00
C1282  C     0.65458   0.50367   0.85146   0.00000  Uiso   1.00
C1283  C     0.48748   0.35465   0.79183   0.00000  Uiso   1.00
C1284  C     0.51282   0.64535   0.87484   0.00000  Uiso   1.00
C1285  C     0.48767   0.64533   0.79181   0.00000  Uiso   1.00
C1286  C     0.51263   0.35467   0.87487   0.00000  Uiso   1.00
C1287  C     0.50027   0.62418   0.83332   0.00000  Uiso   1.00
C1288  C     0.49997   0.37582   0.83336   0.00000  Uiso   1.00
C1289  C     0.53219   0.52716   0.69535   0.00000  Uiso   1.00
C1290  C     0.46800   0.47303   0.97170   0.00000  Uiso   1.00
C1291  C     0.53188   0.52666   0.97991   0.00000  Uiso   1.00
C1292  C     0.46878   0.47298   0.68678   0.00000  Uiso   1.00
H1293  H     0.65810   0.49538   0.78027   0.00000  Uiso   1.00
H1294  H     0.34177   0.50889   0.88593   0.00000  Uiso   1.00
H1295  H     0.47722   0.37092   0.75958   0.00000  Uiso   1.00
H1296  H     0.52308   0.62907   0.90709   0.00000  Uiso   1.00
H1297  H     0.47755   0.62904   0.75955   0.00000  Uiso   1.00
H1298  H     0.52274   0.37096   0.90712   0.00000  Uiso   1.00
H1299  H     0.55718   0.54665   0.96331   0.00000  Uiso   1.00
H1300  H     0.44503   0.45104   0.70264   0.00000  Uiso   1.00
N1301  N     0.49999   0.49999   0.95240   0.00000  Uiso   1.00
N1302  N     0.50001   0.50001   0.71427   0.00000  Uiso   1.00
O1303  O     0.50000   0.43892   0.87154   0.00000  Uiso   1.00
O1304  O     0.50000   0.56108   0.79513   0.00000  Uiso   1.00
O1305  O     0.50000   0.43893   0.79510   0.00000  Uiso   1.00
O1306  O     0.50000   0.56107   0.87157   0.00000  Uiso   1.00
O1307  O     0.42392   0.50000   0.86261   0.00000  Uiso   1.00
O1308  O     0.57608   0.50000   0.80405   0.00000  Uiso   1.00
O1309  O     0.42392   0.50000   0.78617   0.00000  Uiso   1.00
O1310  O     0.57608   0.50000   0.88050   0.00000  Uiso   1.00
Zn1311 Zn    0.50000   0.49999   0.88437   0.00000  Uiso   1.00
Zn1312 Zn    0.50000   0.50001   0.78229   0.00000  Uiso   1.00
O1313  O     0.56488   0.55250   0.72601   0.00000  Uiso   1.00
C1314  C     0.59306   0.58397   0.70625   0.00000  Uiso   1.00
H1315  H     0.60133   0.60920   0.73206   0.00000  Uiso   1.00
H1316  H     0.56960   0.59923   0.67616   0.00000  Uiso   1.00
C1317  C     0.64622   0.56750   0.69646   0.00000  Uiso   1.00
H1318  H     0.33672   0.55763   0.72917   0.00000  Uiso   1.00
H1319  H     0.64050   0.53990   0.67364   0.00000  Uiso   1.00
C1320  C     0.34337   0.60080   0.67421   0.00000  Uiso   1.00
H1321  H     0.65392   0.61096   0.97448   0.00000  Uiso   1.00
H1322  H     0.38147   0.58788   0.66754   0.00000  Uiso   1.00
H1323  H     0.35149   0.62809   0.69731   0.00000  Uiso   1.00
O1324  O     0.43989   0.44331   0.94381   0.00000  Uiso   1.00
C1325  C     0.38671   0.44016   0.95101   0.00000  Uiso   1.00
H1326  H     0.36189   0.44269   0.91705   0.00000  Uiso   1.00
H1327  H     0.37376   0.46550   0.97258   0.00000  Uiso   1.00
C1328  C     0.37600   0.39727   0.97058   0.00000  Uiso   1.00
H1329  H     0.38571   0.37270   0.94678   0.00000  Uiso   1.00
H1330  H     0.40118   0.39258   0.67076   0.00000  Uiso   1.00
C1331  C     0.65168   0.39262   0.97691   0.00000  Uiso   1.00
H1332  H     0.64132   0.41639   0.66797   0.00000  Uiso   1.00
H1333  H     0.64485   0.36124   0.99081   0.00000  Uiso   1.00
H1334  H     0.62569   0.39626   0.94357   0.00000  Uiso   1.00
C1335  C     0.83327   0.41997   0.83334   0.00000  Uiso   1.00
C1336  C     0.83347   0.58003   0.83334   0.00000  Uiso   1.00
C1337  C     0.73370   0.50027   0.82137   0.00000  Uiso   1.00
C1338  C     0.93295   0.50092   0.84525   0.00000  Uiso   1.00
C1339  C     0.67865   0.49989   0.81488   0.00000  Uiso   1.00
C1340  C     0.98792   0.50367   0.85146   0.00000  Uiso   1.00
C1341  C     0.82081   0.35465   0.79183   0.00000  Uiso   1.00
C1342  C     0.84616   0.64535   0.87484   0.00000  Uiso   1.00
C1343  C     0.82100   0.64533   0.79181   0.00000  Uiso   1.00
C1344  C     0.84597   0.35467   0.87487   0.00000  Uiso   1.00
C1345  C     0.83360   0.62418   0.83332   0.00000  Uiso   1.00
C1346  C     0.83330   0.37582   0.83336   0.00000  Uiso   1.00
C1347  C     0.86552   0.52716   0.69535   0.00000  Uiso   1.00
C1348  C     0.80134   0.47303   0.97170   0.00000  Uiso   1.00
C1349  C     0.86521   0.52666   0.97991   0.00000  Uiso   1.00
C1350  C     0.80211   0.47298   0.68678   0.00000  Uiso   1.00
H1351  H     0.99143   0.49538   0.78027   0.00000  Uiso   1.00
H1352  H     0.67511   0.50889   0.88593   0.00000  Uiso   1.00
H1353  H     0.81056   0.37092   0.75958   0.00000  Uiso   1.00
H1354  H     0.85642   0.62907   0.90709   0.00000  Uiso   1.00
H1355  H     0.81088   0.62904   0.75955   0.00000  Uiso   1.00
H1356  H     0.85607   0.37096   0.90712   0.00000  Uiso   1.00
H1357  H     0.89052   0.54665   0.96331   0.00000  Uiso   1.00
H1358  H     0.77837   0.45104   0.70264   0.00000  Uiso   1.00
N1359  N     0.83332   0.49999   0.95240   0.00000  Uiso   1.00
N1360  N     0.83335   0.50001   0.71427   0.00000  Uiso   1.00
O1361  O     0.83333   0.43892   0.87154   0.00000  Uiso   1.00
O1362  O     0.83334   0.56108   0.79513   0.00000  Uiso   1.00
O1363  O     0.83333   0.43893   0.79510   0.00000  Uiso   1.00
O1364  O     0.83334   0.56107   0.87157   0.00000  Uiso   1.00
O1365  O     0.75725   0.50000   0.86261   0.00000  Uiso   1.00
O1366  O     0.90942   0.50000   0.80405   0.00000  Uiso   1.00
O1367  O     0.75725   0.50000   0.78617   0.00000  Uiso   1.00
O1368  O     0.90942   0.50000   0.88050   0.00000  Uiso   1.00
Zn1369 Zn    0.83333   0.49999   0.88437   0.00000  Uiso   1.00
Zn1370 Zn    0.83333   0.50001   0.78229   0.00000  Uiso   1.00
O1371  O     0.89821   0.55250   0.72601   0.00000  Uiso   1.00
C1372  C     0.92639   0.58397   0.70625   0.00000  Uiso   1.00
H1373  H     0.93466   0.60920   0.73206   0.00000  Uiso   1.00
H1374  H     0.90293   0.59923   0.67616   0.00000  Uiso   1.00
C1375  C     0.97956   0.56750   0.69646   0.00000  Uiso   1.00
H1376  H     0.67006   0.55763   0.72917   0.00000  Uiso   1.00
H1377  H     0.97384   0.53990   0.67364   0.00000  Uiso   1.00
C1378  C     0.67670   0.60080   0.67421   0.00000  Uiso   1.00
H1379  H     0.98725   0.61096   0.97448   0.00000  Uiso   1.00
H1380  H     0.71480   0.58788   0.66754   0.00000  Uiso   1.00
H1381  H     0.68483   0.62809   0.69731   0.00000  Uiso   1.00
O1382  O     0.77323   0.44331   0.94381   0.00000  Uiso   1.00
C1383  C     0.72004   0.44016   0.95101   0.00000  Uiso   1.00
H1384  H     0.69523   0.44269   0.91705   0.00000  Uiso   1.00
H1385  H     0.70710   0.46550   0.97258   0.00000  Uiso   1.00
C1386  C     0.70933   0.39727   0.97058   0.00000  Uiso   1.00
H1387  H     0.71905   0.37270   0.94678   0.00000  Uiso   1.00
H1388  H     0.73451   0.39258   0.67076   0.00000  Uiso   1.00
C1389  C     0.98501   0.39262   0.97691   0.00000  Uiso   1.00
H1390  H     0.97466   0.41639   0.66797   0.00000  Uiso   1.00
H1391  H     0.97819   0.36124   0.99081   0.00000  Uiso   1.00
H1392  H     0.95902   0.39626   0.94357   0.00000  Uiso   1.00
C1393  C     0.16660   0.75330   0.83334   0.00000  Uiso   1.00
C1394  C     0.16680   0.91337   0.83334   0.00000  Uiso   1.00
C1395  C     0.06703   0.83360   0.82137   0.00000  Uiso   1.00
C1396  C     0.26628   0.83425   0.84525   0.00000  Uiso   1.00
C1397  C     0.01198   0.83322   0.81488   0.00000  Uiso   1.00
C1398  C     0.32125   0.83700   0.85146   0.00000  Uiso   1.00
C1399  C     0.15415   0.68798   0.79183   0.00000  Uiso   1.00
C1400  C     0.17949   0.97868   0.87484   0.00000  Uiso   1.00
C1401  C     0.15433   0.97866   0.79181   0.00000  Uiso   1.00
C1402  C     0.17930   0.68800   0.87487   0.00000  Uiso   1.00
C1403  C     0.16693   0.95751   0.83332   0.00000  Uiso   1.00
C1404  C     0.16663   0.70915   0.83336   0.00000  Uiso   1.00
C1405  C     0.19886   0.86049   0.69535   0.00000  Uiso   1.00
C1406  C     0.13467   0.80637   0.97170   0.00000  Uiso   1.00
C1407  C     0.19854   0.86000   0.97991   0.00000  Uiso   1.00
C1408  C     0.13544   0.80631   0.68678   0.00000  Uiso   1.00
H1409  H     0.32476   0.82872   0.78027   0.00000  Uiso   1.00
H1410  H     0.00844   0.84222   0.88593   0.00000  Uiso   1.00
H1411  H     0.14389   0.70425   0.75958   0.00000  Uiso   1.00
H1412  H     0.18975   0.96241   0.90709   0.00000  Uiso   1.00
H1413  H     0.14421   0.96238   0.75955   0.00000  Uiso   1.00
H1414  H     0.18941   0.70429   0.90712   0.00000  Uiso   1.00
H1415  H     0.22385   0.87998   0.96331   0.00000  Uiso   1.00
H1416  H     0.11170   0.78437   0.70264   0.00000  Uiso   1.00
N1417  N     0.16665   0.83332   0.95240   0.00000  Uiso   1.00
N1418  N     0.16668   0.83334   0.71427   0.00000  Uiso   1.00
O1419  O     0.16666   0.77225   0.87154   0.00000  Uiso   1.00
O1420  O     0.16667   0.89442   0.79513   0.00000  Uiso   1.00
O1421  O     0.16666   0.77226   0.79510   0.00000  Uiso   1.00
O1422  O     0.16667   0.89441   0.87157   0.00000  Uiso   1.00
O1423  O     0.09058   0.83333   0.86261   0.00000  Uiso   1.00
O1424  O     0.24275   0.83334   0.80405   0.00000  Uiso   1.00
O1425  O     0.09058   0.83334   0.78617   0.00000  Uiso   1.00
O1426  O     0.24275   0.83333   0.88050   0.00000  Uiso   1.00
Zn1427 Zn    0.16667   0.83333   0.88437   0.00000  Uiso   1.00
Zn1428 Zn    0.16667   0.83334   0.78229   0.00000  Uiso   1.00
O1429  O     0.23154   0.88583   0.72601   0.00000  Uiso   1.00
C1430  C     0.25972   0.91730   0.70625   0.00000  Uiso   1.00
H1431  H     0.26800   0.94254   0.73206   0.00000  Uiso   1.00
H1432  H     0.23626   0.93256   0.67616   0.00000  Uiso   1.00
C1433  C     0.31289   0.90084   0.69646   0.00000  Uiso   1.00
H1434  H     0.00339   0.89096   0.72917   0.00000  Uiso   1.00
H1435  H     0.30717   0.87324   0.67364   0.00000  Uiso   1.00
C1436  C     0.01004   0.93413   0.67421   0.00000  Uiso   1.00
H1437  H     0.32059   0.94429   0.97448   0.00000  Uiso   1.00
H1438  H     0.04814   0.92121   0.66754   0.00000  Uiso   1.00
H1439  H     0.01816   0.96143   0.69731   0.00000  Uiso   1.00
O1440  O     0.10656   0.77664   0.94381   0.00000  Uiso   1.00
C1441  C     0.05337   0.77350   0.95101   0.00000  Uiso   1.00
H1442  H     0.02856   0.77602   0.91705   0.00000  Uiso   1.00
H1443  H     0.04043   0.79883   0.97258   0.00000  Uiso   1.00
C1444  C     0.04266   0.73061   0.97058   0.00000  Uiso   1.00
H1445  H     0.05238   0.70603   0.94678   0.00000  Uiso   1.00
H1446  H     0.06785   0.72592   0.67076   0.00000  Uiso   1.00
C1447  C     0.31835   0.72595   0.97691   0.00000  Uiso   1.00
H1448  H     0.30799   0.74972   0.66797   0.00000  Uiso   1.00
H1449  H     0.31152   0.69457   0.99081   0.00000  Uiso   1.00
H1450  H     0.29236   0.72960   0.94357   0.00000  Uiso   1.00
C1451  C     0.49993   0.75330   0.83334   0.00000  Uiso   1.00
C1452  C     0.50014   0.91337   0.83334   0.00000  Uiso   1.00
C1453  C     0.40037   0.83360   0.82137   0.00000  Uiso   1.00
C1454  C     0.59962   0.83425   0.84525   0.00000  Uiso   1.00
C1455  C     0.34532   0.83322   0.81488   0.00000  Uiso   1.00
C1456  C     0.65458   0.83700   0.85146   0.00000  Uiso   1.00
C1457  C     0.48748   0.68798   0.79183   0.00000  Uiso   1.00
C1458  C     0.51282   0.97868   0.87484   0.00000  Uiso   1.00
C1459  C     0.48767   0.97866   0.79181   0.00000  Uiso   1.00
C1460  C     0.51263   0.68800   0.87487   0.00000  Uiso   1.00
C1461  C     0.50027   0.95751   0.83332   0.00000  Uiso   1.00
C1462  C     0.49997   0.70915   0.83336   0.00000  Uiso   1.00
C1463  C     0.53219   0.86049   0.69535   0.00000  Uiso   1.00
C1464  C     0.46800   0.80637   0.97170   0.00000  Uiso   1.00
C1465  C     0.53188   0.86000   0.97991   0.00000  Uiso   1.00
C1466  C     0.46878   0.80631   0.68678   0.00000  Uiso   1.00
H1467  H     0.65810   0.82872   0.78027   0.00000  Uiso   1.00
H1468  H     0.34177   0.84222   0.88593   0.00000  Uiso   1.00
H1469  H     0.47722   0.70425   0.75958   0.00000  Uiso   1.00
H1470  H     0.52308   0.96241   0.90709   0.00000  Uiso   1.00
H1471  H     0.47755   0.96238   0.75955   0.00000  Uiso   1.00
H1472  H     0.52274   0.70429   0.90712   0.00000  Uiso   1.00
H1473  H     0.55718   0.87998   0.96331   0.00000  Uiso   1.00
H1474  H     0.44503   0.78437   0.70264   0.00000  Uiso   1.00
N1475  N     0.49999   0.83332   0.95240   0.00000  Uiso   1.00
N1476  N     0.50001   0.83334   0.71427   0.00000  Uiso   1.00
O1477  O     0.50000   0.77225   0.87154   0.00000  Uiso   1.00
O1478  O     0.50000   0.89442   0.79513   0.00000  Uiso   1.00
O1479  O     0.50000   0.77226   0.79510   0.00000  Uiso   1.00
O1480  O     0.50000   0.89441   0.87157   0.00000  Uiso   1.00
O1481  O     0.42392   0.83333   0.86261   0.00000  Uiso   1.00
O1482  O     0.57608   0.83334   0.80405   0.00000  Uiso   1.00
O1483  O     0.42392   0.83334   0.78617   0.00000  Uiso   1.00
O1484  O     0.57608   0.83333   0.88050   0.00000  Uiso   1.00
Zn1485 Zn    0.50000   0.83333   0.88437   0.00000  Uiso   1.00
Zn1486 Zn    0.50000   0.83334   0.78229   0.00000  Uiso   1.00
O1487  O     0.56488   0.88583   0.72601   0.00000  Uiso   1.00
C1488  C     0.59306   0.91730   0.70625   0.00000  Uiso   1.00
H1489  H     0.60133   0.94254   0.73206   0.00000  Uiso   1.00
H1490  H     0.56960   0.93256   0.67616   0.00000  Uiso   1.00
C1491  C     0.64622   0.90084   0.69646   0.00000  Uiso   1.00
H1492  H     0.33672   0.89096   0.72917   0.00000  Uiso   1.00
H1493  H     0.64050   0.87324   0.67364   0.00000  Uiso   1.00
C1494  C     0.34337   0.93413   0.67421   0.00000  Uiso   1.00
H1495  H     0.65392   0.94429   0.97448   0.00000  Uiso   1.00
H1496  H     0.38147   0.92121   0.66754   0.00000  Uiso   1.00
H1497  H     0.35149   0.96143   0.69731   0.00000  Uiso   1.00
O1498  O     0.43989   0.77664   0.94381   0.00000  Uiso   1.00
C1499  C     0.38671   0.77350   0.95101   0.00000  Uiso   1.00
H1500  H     0.36189   0.77602   0.91705   0.00000  Uiso   1.00
H1501  H     0.37376   0.79883   0.97258   0.00000  Uiso   1.00
C1502  C     0.37600   0.73061   0.97058   0.00000  Uiso   1.00
H1503  H     0.38571   0.70603   0.94678   0.00000  Uiso   1.00
H1504  H     0.40118   0.72592   0.67076   0.00000  Uiso   1.00
C1505  C     0.65168   0.72595   0.97691   0.00000  Uiso   1.00
H1506  H     0.64132   0.74972   0.66797   0.00000  Uiso   1.00
H1507  H     0.64485   0.69457   0.99081   0.00000  Uiso   1.00
H1508  H     0.62569   0.72960   0.94357   0.00000  Uiso   1.00
C1509  C     0.83327   0.75330   0.83334   0.00000  Uiso   1.00
C1510  C     0.83347   0.91337   0.83334   0.00000  Uiso   1.00
C1511  C     0.73370   0.83360   0.82137   0.00000  Uiso   1.00
C1512  C     0.93295   0.83425   0.84525   0.00000  Uiso   1.00
C1513  C     0.67865   0.83322   0.81488   0.00000  Uiso   1.00
C1514  C     0.98792   0.83700   0.85146   0.00000  Uiso   1.00
C1515  C     0.82081   0.68798   0.79183   0.00000  Uiso   1.00
C1516  C     0.84616   0.97868   0.87484   0.00000  Uiso   1.00
C1517  C     0.82100   0.97866   0.79181   0.00000  Uiso   1.00
C1518  C     0.84597   0.68800   0.87487   0.00000  Uiso   1.00
C1519  C     0.83360   0.95751   0.83332   0.00000  Uiso   1.00
C1520  C     0.83330   0.70915   0.83336   0.00000  Uiso   1.00
C1521  C     0.86552   0.86049   0.69535   0.00000  Uiso   1.00
C1522  C     0.80134   0.80637   0.97170   0.00000  Uiso   1.00
C1523  C     0.86521   0.86000   0.97991   0.00000  Uiso   1.00
C1524  C     0.80211   0.80631   0.68678   0.00000  Uiso   1.00
H1525  H     0.99143   0.82872   0.78027   0.00000  Uiso   1.00
H1526  H     0.67511   0.84222   0.88593   0.00000  Uiso   1.00
H1527  H     0.81056   0.70425   0.75958   0.00000  Uiso   1.00
H1528  H     0.85642   0.96241   0.90709   0.00000  Uiso   1.00
H1529  H     0.81088   0.96238   0.75955   0.00000  Uiso   1.00
H1530  H     0.85607   0.70429   0.90712   0.00000  Uiso   1.00
H1531  H     0.89052   0.87998   0.96331   0.00000  Uiso   1.00
H1532  H     0.77837   0.78437   0.70264   0.00000  Uiso   1.00
N1533  N     0.83332   0.83332   0.95240   0.00000  Uiso   1.00
N1534  N     0.83335   0.83334   0.71427   0.00000  Uiso   1.00
O1535  O     0.83333   0.77225   0.87154   0.00000  Uiso   1.00
O1536  O     0.83334   0.89442   0.79513   0.00000  Uiso   1.00
O1537  O     0.83333   0.77226   0.79510   0.00000  Uiso   1.00
O1538  O     0.83334   0.89441   0.87157   0.00000  Uiso   1.00
O1539  O     0.75725   0.83333   0.86261   0.00000  Uiso   1.00
O1540  O     0.90942   0.83334   0.80405   0.00000  Uiso   1.00
O1541  O     0.75725   0.83334   0.78617   0.00000  Uiso   1.00
O1542  O     0.90942   0.83333   0.88050   0.00000  Uiso   1.00
Zn1543 Zn    0.83333   0.83333   0.88437   0.00000  Uiso   1.00
Zn1544 Zn    0.83333   0.83334   0.78229   0.00000  Uiso   1.00
O1545  O     0.89821   0.88583   0.72601   0.00000  Uiso   1.00
C1546  C     0.92639   0.91730   0.70625   0.00000  Uiso   1.00
H1547  H     0.93466   0.94254   0.73206   0.00000  Uiso   1.00
H1548  H     0.90293   0.93256   0.67616   0.00000  Uiso   1.00
C1549  C     0.97956   0.90084   0.69646   0.00000  Uiso   1.00
H1550  H     0.67006   0.89096   0.72917   0.00000  Uiso   1.00
H1551  H     0.97384   0.87324   0.67364   0.00000  Uiso   1.00
C1552  C     0.67670   0.93413   0.67421   0.00000  Uiso   1.00
H1553  H     0.98725   0.94429   0.97448   0.00000  Uiso   1.00
H1554  H     0.71480   0.92121   0.66754   0.00000  Uiso   1.00
H1555  H     0.68483   0.96143   0.69731   0.00000  Uiso   1.00
O1556  O     0.77323   0.77664   0.94381   0.00000  Uiso   1.00
C1557  C     0.72004   0.77350   0.95101   0.00000  Uiso   1.00
H1558  H     0.69523   0.77602   0.91705   0.00000  Uiso   1.00
H1559  H     0.70710   0.79883   0.97258   0.00000  Uiso   1.00
C1560  C     0.70933   0.73061   0.97058   0.00000  Uiso   1.00
H1561  H     0.71905   0.70603   0.94678   0.00000  Uiso   1.00
H1562  H     0.73451   0.72592   0.67076   0.00000  Uiso   1.00
C1563  C     0.98501   0.72595   0.97691   0.00000  Uiso   1.00
H1564  H     0.97466   0.74972   0.66797   0.00000  Uiso   1.00
H1565  H     0.97819   0.69457   0.99081   0.00000  Uiso   1.00
H1566  H     0.95902   0.72960   0.94357   0.00000  Uiso   1.00
loop_
_geom_bond_atom_site_label_1
_geom_bond_atom_site_label_2
_geom_bond_distance
_geom_bond_site_symmetry_2
_ccdc_geom_bond_type
C1     C12     1.418   .     S
C1     O29     1.282   .     A
C1     O27     1.283   .     A
C2     O30     1.282   .     A
C2     C11     1.417   .     S
C2     O28     1.282   .     A
C3     O31     1.277   .     A
C3     C5      1.399   .     S
C3     O33     1.278   .     A
C4     O34     1.279   .     A
C4     O32     1.276   .     A
C4     C6      1.400   .     S
C5     C122    1.328   1_455 S
C5     H133    1.088   1_455 S
C6     C63     1.328   .     S
C6     H76     1.087   .     S
C7     C12     1.397   .     A
C7     H19     1.084   .     S
C7     C357    1.370   1_545 S
C8     H20     1.084   .     S
C8     C11     1.397   .     A
C8     C184    1.370   .     S
C9     C11     1.397   .     A
C9     H21     1.084   .     S
C9     C181    1.370   .     S
C10    H22     1.084   .     S
C10    C12     1.397   .     A
C10    C356    1.370   1_545 S
C13    O37     1.398   .     S
C13    N26     1.371   .     A
C13    C1059   1.439   1_554 S
C14    N25     1.370   .     A
C14    O48     1.389   .     S
C14    C538    1.427   .     S
C15    H23     1.078   .     S
C15    N25     1.364   .     A
C15    C535    1.439   .     S
C16    H24     1.080   .     S
C16    N26     1.362   .     A
C16    C1058   1.427   1_554 S
H17    C63     1.088   .     S
H18    C122    1.087   1_455 S
N25    Zn35    2.009   .     S
N26    Zn36    2.009   .     S
O27    Zn35    1.998   .     S
O28    Zn36    1.998   .     S
O29    Zn36    1.997   .     S
O30    Zn35    1.997   .     S
O31    Zn35    1.966   .     S
O32    Zn36    1.966   .     S
O33    Zn36    1.976   .     S
O34    Zn35    1.976   .     S
O37    C38     1.414   .     S
C38    H40     1.112   .     S
C38    H39     1.111   .     S
C38    C41     1.536   .     S
C41    H43     1.110   .     S
C41    H100    1.111   .     S
C41    C102    1.525   .     S
H42    C157    1.111   1_455 S
C44    H47     1.111   .     S
C44    H46     1.111   .     S
C44    C157    1.525   1_455 S
C44    H1205   1.111   1_454 S
H45    C624    1.111   .     S
O48    C49     1.417   .     S
C49    C52     1.532   .     S
C49    H50     1.109   .     S
C49    H51     1.117   .     S
C52    H53     1.112   .     S
C52    H576    1.110   .     S
C52    C171    1.527   1_455 S
H54    C1096   1.110   1_554 S
C55    H57     1.110   .     S
C55    H58     1.111   .     S
C55    C110    1.527   .     S
C55    H578    1.111   .     S
H56    C1099   1.111   1_554 S
C59    C70     1.418   .     S
C59    O87     1.282   .     A
C59    O85     1.283   .     A
C60    O88     1.282   .     A
C60    C69     1.417   .     S
C60    O86     1.282   .     A
C61    O89     1.277   .     A
C61    C63     1.399   .     S
C61    O91     1.278   .     A
C62    O92     1.279   .     A
C62    O90     1.276   .     A
C62    C64     1.400   .     S
C64    C121    1.328   .     S
C64    H134    1.087   .     S
C65    C70     1.397   .     A
C65    H77     1.084   .     S
C65    C415    1.370   1_545 S
C66    H78     1.084   .     S
C66    C69     1.397   .     A
C66    C242    1.370   .     S
C67    C69     1.397   .     A
C67    H79     1.084   .     S
C67    C239    1.370   .     S
C68    H80     1.084   .     S
C68    C70     1.397   .     A
C68    C414    1.370   1_545 S
C71    O95     1.398   .     S
C71    N84     1.371   .     A
C71    C1117   1.439   1_554 S
C72    N83     1.370   .     A
C72    O106    1.389   .     S
C72    C596    1.427   .     S
C73    H81     1.078   .     S
C73    N83     1.364   .     A
C73    C593    1.439   .     S
C74    H82     1.080   .     S
C74    N84     1.362   .     A
C74    C1116   1.427   1_554 S
H75    C121    1.088   .     S
N83    Zn93    2.009   .     S
N84    Zn94    2.009   .     S
O85    Zn93    1.998   .     S
O86    Zn94    1.998   .     S
O87    Zn94    1.997   .     S
O88    Zn93    1.997   .     S
O89    Zn93    1.966   .     S
O90    Zn94    1.966   .     S
O91    Zn94    1.976   .     S
O92    Zn93    1.976   .     S
O95    C96     1.414   .     S
C96    H98     1.112   .     S
C96    H97     1.111   .     S
C96    C99     1.536   .     S
C99    H101    1.110   .     S
C99    H158    1.111   .     S
C99    C160    1.525   .     S
C102   H105    1.111   .     S
C102   H104    1.111   .     S
C102   H1089   1.111   1_554 S
H103   C682    1.111   .     S
O106   C107    1.417   .     S
C107   C110    1.532   .     S
C107   H108    1.109   .     S
C107   H109    1.117   .     S
C110   H111    1.112   .     S
C110   H634    1.110   .     S
H112   C1154   1.110   1_554 S
C113   H115    1.110   .     S
C113   H116    1.111   .     S
C113   C168    1.527   .     S
C113   H636    1.111   .     S
H114   C1157   1.111   1_554 S
C117   C128    1.418   .     S
C117   O145    1.282   .     A
C117   O143    1.283   .     A
C118   O146    1.282   .     A
C118   C127    1.417   .     S
C118   O144    1.282   .     A
C119   O147    1.277   .     A
C119   C121    1.399   .     S
C119   O149    1.278   .     A
C120   O150    1.279   .     A
C120   O148    1.276   .     A
C120   C122    1.400   .     S
C122   C5      1.328   1_655 S
C122   H18     1.087   1_655 S
C123   C128    1.397   .     A
C123   H135    1.084   .     S
C123   C473    1.370   1_545 S
C124   H136    1.084   .     S
C124   C127    1.397   .     A
C124   C300    1.370   .     S
C125   C127    1.397   .     A
C125   H137    1.084   .     S
C125   C297    1.370   .     S
C126   H138    1.084   .     S
C126   C128    1.397   .     A
C126   C472    1.370   1_545 S
C129   O153    1.398   .     S
C129   N142    1.371   .     A
C129   C1175   1.439   1_554 S
C130   N141    1.370   .     A
C130   O164    1.389   .     S
C130   C654    1.427   .     S
C131   H139    1.078   .     S
C131   N141    1.364   .     A
C131   C651    1.439   .     S
C132   H140    1.080   .     S
C132   N142    1.362   .     A
C132   C1174   1.427   1_554 S
H133   C5      1.088   1_655 S
N141   Zn151   2.009   .     S
N142   Zn152   2.009   .     S
O143   Zn151   1.998   .     S
O144   Zn152   1.998   .     S
O145   Zn152   1.997   .     S
O146   Zn151   1.997   .     S
O147   Zn151   1.966   .     S
O148   Zn152   1.966   .     S
O149   Zn152   1.976   .     S
O150   Zn151   1.976   .     S
O153   C154    1.414   .     S
C154   H156    1.112   .     S
C154   H155    1.111   .     S
C154   C157    1.536   .     S
C157   H159    1.110   .     S
C157   H42     1.111   1_655 S
C157   C44     1.525   1_655 S
C160   H163    1.111   .     S
C160   H162    1.111   .     S
C160   H1147   1.111   1_554 S
H161   C566    1.111   1_655 S
O164   C165    1.417   .     S
C165   C168    1.532   .     S
C165   H166    1.109   .     S
C165   H167    1.117   .     S
C168   H169    1.112   .     S
C168   H692    1.110   .     S
H170   C1212   1.110   1_554 S
C171   H173    1.110   .     S
C171   H174    1.111   .     S
C171   C52     1.527   1_655 S
C171   H694    1.111   .     S
H172   C1215   1.111   1_554 S
C175   C186    1.418   .     S
C175   O203    1.282   .     A
C175   O201    1.283   .     A
C176   O204    1.282   .     A
C176   C185    1.417   .     S
C176   O202    1.282   .     A
C177   O205    1.277   .     A
C177   C179    1.399   .     S
C177   O207    1.278   .     A
C178   O208    1.279   .     A
C178   O206    1.276   .     A
C178   C180    1.400   .     S
C179   C296    1.328   1_455 S
C179   H307    1.088   1_455 S
C180   C237    1.328   .     S
C180   H250    1.087   .     S
C181   C186    1.397   .     A
C181   H193    1.084   .     S
C182   H194    1.084   .     S
C182   C185    1.397   .     A
C182   C358    1.370   .     S
C183   C185    1.397   .     A
C183   H195    1.084   .     S
C183   C355    1.370   .     S
C184   H196    1.084   .     S
C184   C186    1.397   .     A
C187   O211    1.398   .     S
C187   N200    1.371   .     A
C187   C1233   1.439   1_554 S
C188   N199    1.370   .     A
C188   O222    1.389   .     S
C188   C712    1.427   .     S
C189   H197    1.078   .     S
C189   N199    1.364   .     A
C189   C709    1.439   .     S
C190   H198    1.080   .     S
C190   N200    1.362   .     A
C190   C1232   1.427   1_554 S
H191   C237    1.088   .     S
H192   C296    1.087   1_455 S
N199   Zn209   2.009   .     S
N200   Zn210   2.009   .     S
O201   Zn209   1.998   .     S
O202   Zn210   1.998   .     S
O203   Zn210   1.997   .     S
O204   Zn209   1.997   .     S
O205   Zn209   1.966   .     S
O206   Zn210   1.966   .     S
O207   Zn210   1.976   .     S
O208   Zn209   1.976   .     S
O211   C212    1.414   .     S
C212   H214    1.112   .     S
C212   H213    1.111   .     S
C212   C215    1.536   .     S
C215   H217    1.110   .     S
C215   H274    1.111   .     S
C215   C276    1.525   .     S
H216   C331    1.111   1_455 S
C218   H221    1.111   .     S
C218   H220    1.111   .     S
C218   C331    1.525   1_455 S
C218   H1379   1.111   1_454 S
H219   C798    1.111   .     S
O222   C223    1.417   .     S
C223   C226    1.532   .     S
C223   H224    1.109   .     S
C223   H225    1.117   .     S
C226   H227    1.112   .     S
C226   H750    1.110   .     S
C226   C345    1.527   1_455 S
H228   C1270   1.110   1_554 S
C229   H231    1.110   .     S
C229   H232    1.111   .     S
C229   C284    1.527   .     S
C229   H752    1.111   .     S
H230   C1273   1.111   1_554 S
C233   C244    1.418   .     S
C233   O261    1.282   .     A
C233   O259    1.283   .     A
C234   O262    1.282   .     A
C234   C243    1.417   .     S
C234   O260    1.282   .     A
C235   O263    1.277   .     A
C235   C237    1.399   .     S
C235   O265    1.278   .     A
C236   O266    1.279   .     A
C236   O264    1.276   .     A
C236   C238    1.400   .     S
C238   C295    1.328   .     S
C238   H308    1.087   .     S
C239   C244    1.397   .     A
C239   H251    1.084   .     S
C240   H252    1.084   .     S
C240   C243    1.397   .     A
C240   C416    1.370   .     S
C241   C243    1.397   .     A
C241   H253    1.084   .     S
C241   C413    1.370   .     S
C242   H254    1.084   .     S
C242   C244    1.397   .     A
C245   O269    1.398   .     S
C245   N258    1.371   .     A
C245   C1291   1.439   1_554 S
C246   N257    1.370   .     A
C246   O280    1.389   .     S
C246   C770    1.427   .     S
C247   H255    1.078   .     S
C247   N257    1.364   .     A
C247   C767    1.439   .     S
C248   H256    1.080   .     S
C248   N258    1.362   .     A
C248   C1290   1.427   1_554 S
H249   C295    1.088   .     S
N257   Zn267   2.009   .     S
N258   Zn268   2.009   .     S
O259   Zn267   1.998   .     S
O260   Zn268   1.998   .     S
O261   Zn268   1.997   .     S
O262   Zn267   1.997   .     S
O263   Zn267   1.966   .     S
O264   Zn268   1.966   .     S
O265   Zn268   1.976   .     S
O266   Zn267   1.976   .     S
O269   C270    1.414   .     S
C270   H272    1.112   .     S
C270   H271    1.111   .     S
C270   C273    1.536   .     S
C273   H275    1.110   .     S
C273   H332    1.111   .     S
C273   C334    1.525   .     S
C276   H279    1.111   .     S
C276   H278    1.111   .     S
C276   H1263   1.111   1_554 S
H277   C856    1.111   .     S
O280   C281    1.417   .     S
C281   C284    1.532   .     S
C281   H282    1.109   .     S
C281   H283    1.117   .     S
C284   H285    1.112   .     S
C284   H808    1.110   .     S
H286   C1328   1.110   1_554 S
C287   H289    1.110   .     S
C287   H290    1.111   .     S
C287   C342    1.527   .     S
C287   H810    1.111   .     S
H288   C1331   1.111   1_554 S
C291   C302    1.418   .     S
C291   O319    1.282   .     A
C291   O317    1.283   .     A
C292   O320    1.282   .     A
C292   C301    1.417   .     S
C292   O318    1.282   .     A
C293   O321    1.277   .     A
C293   C295    1.399   .     S
C293   O323    1.278   .     A
C294   O324    1.279   .     A
C294   O322    1.276   .     A
C294   C296    1.400   .     S
C296   C179    1.328   1_655 S
C296   H192    1.087   1_655 S
C297   C302    1.397   .     A
C297   H309    1.084   .     S
C298   H310    1.084   .     S
C298   C301    1.397   .     A
C298   C474    1.370   .     S
C299   C301    1.397   .     A
C299   H311    1.084   .     S
C299   C471    1.370   .     S
C300   H312    1.084   .     S
C300   C302    1.397   .     A
C303   O327    1.398   .     S
C303   N316    1.371   .     A
C303   C1349   1.439   1_554 S
C304   N315    1.370   .     A
C304   O338    1.389   .     S
C304   C828    1.427   .     S
C305   H313    1.078   .     S
C305   N315    1.364   .     A
C305   C825    1.439   .     S
C306   H314    1.080   .     S
C306   N316    1.362   .     A
C306   C1348   1.427   1_554 S
H307   C179    1.088   1_655 S
N315   Zn325   2.009   .     S
N316   Zn326   2.009   .     S
O317   Zn325   1.998   .     S
O318   Zn326   1.998   .     S
O319   Zn326   1.997   .     S
O320   Zn325   1.997   .     S
O321   Zn325   1.966   .     S
O322   Zn326   1.966   .     S
O323   Zn326   1.976   .     S
O324   Zn325   1.976   .     S
O327   C328    1.414   .     S
C328   H330    1.112   .     S
C328   H329    1.111   .     S
C328   C331    1.536   .     S
C331   H333    1.110   .     S
C331   H216    1.111   1_655 S
C331   C218    1.525   1_655 S
C334   H337    1.111   .     S
C334   H336    1.111   .     S
C334   H1321   1.111   1_554 S
H335   C740    1.111   1_655 S
O338   C339    1.417   .     S
C339   C342    1.532   .     S
C339   H340    1.109   .     S
C339   H341    1.117   .     S
C342   H343    1.112   .     S
C342   H866    1.110   .     S
H344   C1386   1.110   1_554 S
C345   H347    1.110   .     S
C345   H348    1.111   .     S
C345   C226    1.527   1_655 S
C345   H868    1.111   .     S
H346   C1389   1.111   1_554 S
C349   C360    1.418   .     S
C349   O377    1.282   .     A
C349   O375    1.283   .     A
C350   O378    1.282   .     A
C350   C359    1.417   .     S
C350   O376    1.282   .     A
C351   O379    1.277   .     A
C351   C353    1.399   .     S
C351   O381    1.278   .     A
C352   O382    1.279   .     A
C352   O380    1.276   .     A
C352   C354    1.400   .     S
C353   C470    1.328   1_455 S
C353   H481    1.088   1_455 S
C354   C411    1.328   .     S
C354   H424    1.087   .     S
C355   C360    1.397   .     A
C355   H367    1.084   .     S
C356   H368    1.084   .     S
C356   C359    1.397   .     A
C356   C10     1.370   1_565 S
C357   C359    1.397   .     A
C357   H369    1.084   .     S
C357   C7      1.370   1_565 S
C358   H370    1.084   .     S
C358   C360    1.397   .     A
C361   O385    1.398   .     S
C361   N374    1.371   .     A
C361   C1407   1.439   1_554 S
C362   N373    1.370   .     A
C362   O396    1.389   .     S
C362   C886    1.427   .     S
C363   H371    1.078   .     S
C363   N373    1.364   .     A
C363   C883    1.439   .     S
C364   H372    1.080   .     S
C364   N374    1.362   .     A
C364   C1406   1.427   1_554 S
H365   C411    1.088   .     S
H366   C470    1.087   1_455 S
N373   Zn383   2.009   .     S
N374   Zn384   2.009   .     S
O375   Zn383   1.998   .     S
O376   Zn384   1.998   .     S
O377   Zn384   1.997   .     S
O378   Zn383   1.997   .     S
O379   Zn383   1.966   .     S
O380   Zn384   1.966   .     S
O381   Zn384   1.976   .     S
O382   Zn383   1.976   .     S
O385   C386    1.414   .     S
C386   H388    1.112   .     S
C386   H387    1.111   .     S
C386   C389    1.536   .     S
C389   H391    1.110   .     S
C389   H448    1.111   .     S
C389   C450    1.525   .     S
H390   C505    1.111   1_455 S
C392   H395    1.111   .     S
C392   H394    1.111   .     S
C392   C505    1.525   1_455 S
C392   H1553   1.111   1_454 S
H393   C972    1.111   .     S
O396   C397    1.417   .     S
C397   C400    1.532   .     S
C397   H398    1.109   .     S
C397   H399    1.117   .     S
C400   H401    1.112   .     S
C400   H924    1.110   .     S
C400   C519    1.527   1_455 S
H402   C1444   1.110   1_554 S
C403   H405    1.110   .     S
C403   H406    1.111   .     S
C403   C458    1.527   .     S
C403   H926    1.111   .     S
H404   C1447   1.111   1_554 S
C407   C418    1.418   .     S
C407   O435    1.282   .     A
C407   O433    1.283   .     A
C408   O436    1.282   .     A
C408   C417    1.417   .     S
C408   O434    1.282   .     A
C409   O437    1.277   .     A
C409   C411    1.399   .     S
C409   O439    1.278   .     A
C410   O440    1.279   .     A
C410   O438    1.276   .     A
C410   C412    1.400   .     S
C412   C469    1.328   .     S
C412   H482    1.087   .     S
C413   C418    1.397   .     A
C413   H425    1.084   .     S
C414   H426    1.084   .     S
C414   C417    1.397   .     A
C414   C68     1.370   1_565 S
C415   C417    1.397   .     A
C415   H427    1.084   .     S
C415   C65     1.370   1_565 S
C416   H428    1.084   .     S
C416   C418    1.397   .     A
C419   O443    1.398   .     S
C419   N432    1.371   .     A
C419   C1465   1.439   1_554 S
C420   N431    1.370   .     A
C420   O454    1.389   .     S
C420   C944    1.427   .     S
C421   H429    1.078   .     S
C421   N431    1.364   .     A
C421   C941    1.439   .     S
C422   H430    1.080   .     S
C422   N432    1.362   .     A
C422   C1464   1.427   1_554 S
H423   C469    1.088   .     S
N431   Zn441   2.009   .     S
N432   Zn442   2.009   .     S
O433   Zn441   1.998   .     S
O434   Zn442   1.998   .     S
O435   Zn442   1.997   .     S
O436   Zn441   1.997   .     S
O437   Zn441   1.966   .     S
O438   Zn442   1.966   .     S
O439   Zn442   1.976   .     S
O440   Zn441   1.976   .     S
O443   C444    1.414   .     S
C444   H446    1.112   .     S
C444   H445    1.111   .     S
C444   C447    1.536   .     S
C447   H449    1.110   .     S
C447   H506    1.111   .     S
C447   C508    1.525   .     S
C450   H453    1.111   .     S
C450   H452    1.111   .     S
C450   H1437   1.111   1_554 S
H451   C1030   1.111   .     S
O454   C455    1.417   .     S
C455   C458    1.532   .     S
C455   H456    1.109   .     S
C455   H457    1.117   .     S
C458   H459    1.112   .     S
C458   H982    1.110   .     S
H460   C1502   1.110   1_554 S
C461   H463    1.110   .     S
C461   H464    1.111   .     S
C461   C516    1.527   .     S
C461   H984    1.111   .     S
H462   C1505   1.111   1_554 S
C465   C476    1.418   .     S
C465   O493    1.282   .     A
C465   O491    1.283   .     A
C466   O494    1.282   .     A
C466   C475    1.417   .     S
C466   O492    1.282   .     A
C467   O495    1.277   .     A
C467   C469    1.399   .     S
C467   O497    1.278   .     A
C468   O498    1.279   .     A
C468   O496    1.276   .     A
C468   C470    1.400   .     S
C470   C353    1.328   1_655 S
C470   H366    1.087   1_655 S
C471   C476    1.397   .     A
C471   H483    1.084   .     S
C472   H484    1.084   .     S
C472   C475    1.397   .     A
C472   C126    1.370   1_565 S
C473   C475    1.397   .     A
C473   H485    1.084   .     S
C473   C123    1.370   1_565 S
C474   H486    1.084   .     S
C474   C476    1.397   .     A
C477   O501    1.398   .     S
C477   N490    1.371   .     A
C477   C1523   1.439   1_554 S
C478   N489    1.370   .     A
C478   O512    1.389   .     S
C478   C1002   1.427   .     S
C479   H487    1.078   .     S
C479   N489    1.364   .     A
C479   C999    1.439   .     S
C480   H488    1.080   .     S
C480   N490    1.362   .     A
C480   C1522   1.427   1_554 S
H481   C353    1.088   1_655 S
N489   Zn499   2.009   .     S
N490   Zn500   2.009   .     S
O491   Zn499   1.998   .     S
O492   Zn500   1.998   .     S
O493   Zn500   1.997   .     S
O494   Zn499   1.997   .     S
O495   Zn499   1.966   .     S
O496   Zn500   1.966   .     S
O497   Zn500   1.976   .     S
O498   Zn499   1.976   .     S
O501   C502    1.414   .     S
C502   H504    1.112   .     S
C502   H503    1.111   .     S
C502   C505    1.536   .     S
C505   H507    1.110   .     S
C505   H390    1.111   1_655 S
C505   C392    1.525   1_655 S
C508   H511    1.111   .     S
C508   H510    1.111   .     S
C508   H1495   1.111   1_554 S
H509   C914    1.111   1_655 S
O512   C513    1.417   .     S
C513   C516    1.532   .     S
C513   H514    1.109   .     S
C513   H515    1.117   .     S
C516   H517    1.112   .     S
C516   H1040   1.110   .     S
H518   C1560   1.110   1_554 S
C519   H521    1.110   .     S
C519   H522    1.111   .     S
C519   C400    1.527   1_655 S
C519   H1042   1.111   .     S
H520   C1563   1.111   1_554 S
C523   C534    1.418   .     S
C523   O551    1.282   .     A
C523   O549    1.283   .     A
C524   O552    1.282   .     A
C524   C533    1.417   .     S
C524   O550    1.282   .     A
C525   O553    1.277   .     A
C525   C527    1.399   .     S
C525   O555    1.278   .     A
C526   O556    1.279   .     A
C526   O554    1.276   .     A
C526   C528    1.400   .     S
C527   C644    1.328   1_455 S
C527   H655    1.088   1_455 S
C528   C585    1.328   .     S
C528   H598    1.087   .     S
C529   C534    1.397   .     A
C529   H541    1.084   .     S
C529   C879    1.370   1_545 S
C530   H542    1.084   .     S
C530   C533    1.397   .     A
C530   C706    1.370   .     S
C531   C533    1.397   .     A
C531   H543    1.084   .     S
C531   C703    1.370   .     S
C532   H544    1.084   .     S
C532   C534    1.397   .     A
C532   C878    1.370   1_545 S
C535   O559    1.398   .     S
C535   N548    1.371   .     A
C536   N547    1.370   .     A
C536   O570    1.389   .     S
C536   C1060   1.427   .     S
C537   H545    1.078   .     S
C537   N547    1.364   .     A
C537   C1057   1.439   .     S
C538   H546    1.080   .     S
C538   N548    1.362   .     A
H539   C585    1.088   .     S
H540   C644    1.087   1_455 S
N547   Zn557   2.009   .     S
N548   Zn558   2.009   .     S
O549   Zn557   1.998   .     S
O550   Zn558   1.998   .     S
O551   Zn558   1.997   .     S
O552   Zn557   1.997   .     S
O553   Zn557   1.966   .     S
O554   Zn558   1.966   .     S
O555   Zn558   1.976   .     S
O556   Zn557   1.976   .     S
O559   C560    1.414   .     S
C560   H562    1.112   .     S
C560   H561    1.111   .     S
C560   C563    1.536   .     S
C563   H565    1.110   .     S
C563   H622    1.111   .     S
C563   C624    1.525   .     S
H564   C679    1.111   1_455 S
C566   H569    1.111   .     S
C566   H568    1.111   .     S
C566   C679    1.525   1_455 S
C566   H161    1.111   1_455 S
H567   C1146   1.111   .     S
O570   C571    1.417   .     S
C571   C574    1.532   .     S
C571   H572    1.109   .     S
C571   H573    1.117   .     S
C574   H575    1.112   .     S
C574   H1098   1.110   .     S
C574   C693    1.527   1_455 S
C577   H579    1.110   .     S
C577   H580    1.111   .     S
C577   C632    1.527   .     S
C577   H1100   1.111   .     S
C581   C592    1.418   .     S
C581   O609    1.282   .     A
C581   O607    1.283   .     A
C582   O610    1.282   .     A
C582   C591    1.417   .     S
C582   O608    1.282   .     A
C583   O611    1.277   .     A
C583   C585    1.399   .     S
C583   O613    1.278   .     A
C584   O614    1.279   .     A
C584   O612    1.276   .     A
C584   C586    1.400   .     S
C586   C643    1.328   .     S
C586   H656    1.087   .     S
C587   C592    1.397   .     A
C587   H599    1.084   .     S
C587   C937    1.370   1_545 S
C588   H600    1.084   .     S
C588   C591    1.397   .     A
C588   C764    1.370   .     S
C589   C591    1.397   .     A
C589   H601    1.084   .     S
C589   C761    1.370   .     S
C590   H602    1.084   .     S
C590   C592    1.397   .     A
C590   C936    1.370   1_545 S
C593   O617    1.398   .     S
C593   N606    1.371   .     A
C594   N605    1.370   .     A
C594   O628    1.389   .     S
C594   C1118   1.427   .     S
C595   H603    1.078   .     S
C595   N605    1.364   .     A
C595   C1115   1.439   .     S
C596   H604    1.080   .     S
C596   N606    1.362   .     A
H597   C643    1.088   .     S
N605   Zn615   2.009   .     S
N606   Zn616   2.009   .     S
O607   Zn615   1.998   .     S
O608   Zn616   1.998   .     S
O609   Zn616   1.997   .     S
O610   Zn615   1.997   .     S
O611   Zn615   1.966   .     S
O612   Zn616   1.966   .     S
O613   Zn616   1.976   .     S
O614   Zn615   1.976   .     S
O617   C618    1.414   .     S
C618   H620    1.112   .     S
C618   H619    1.111   .     S
C618   C621    1.536   .     S
C621   H623    1.110   .     S
C621   H680    1.111   .     S
C621   C682    1.525   .     S
C624   H627    1.111   .     S
C624   H626    1.111   .     S
H625   C1204   1.111   .     S
O628   C629    1.417   .     S
C629   C632    1.532   .     S
C629   H630    1.109   .     S
C629   H631    1.117   .     S
C632   H633    1.112   .     S
C632   H1156   1.110   .     S
C635   H637    1.110   .     S
C635   H638    1.111   .     S
C635   C690    1.527   .     S
C635   H1158   1.111   .     S
C639   C650    1.418   .     S
C639   O667    1.282   .     A
C639   O665    1.283   .     A
C640   O668    1.282   .     A
C640   C649    1.417   .     S
C640   O666    1.282   .     A
C641   O669    1.277   .     A
C641   C643    1.399   .     S
C641   O671    1.278   .     A
C642   O672    1.279   .     A
C642   O670    1.276   .     A
C642   C644    1.400   .     S
C644   C527    1.328   1_655 S
C644   H540    1.087   1_655 S
C645   C650    1.397   .     A
C645   H657    1.084   .     S
C645   C995    1.370   1_545 S
C646   H658    1.084   .     S
C646   C649    1.397   .     A
C646   C822    1.370   .     S
C647   C649    1.397   .     A
C647   H659    1.084   .     S
C647   C819    1.370   .     S
C648   H660    1.084   .     S
C648   C650    1.397   .     A
C648   C994    1.370   1_545 S
C651   O675    1.398   .     S
C651   N664    1.371   .     A
C652   N663    1.370   .     A
C652   O686    1.389   .     S
C652   C1176   1.427   .     S
C653   H661    1.078   .     S
C653   N663    1.364   .     A
C653   C1173   1.439   .     S
C654   H662    1.080   .     S
C654   N664    1.362   .     A
H655   C527    1.088   1_655 S
N663   Zn673   2.009   .     S
N664   Zn674   2.009   .     S
O665   Zn673   1.998   .     S
O666   Zn674   1.998   .     S
O667   Zn674   1.997   .     S
O668   Zn673   1.997   .     S
O669   Zn673   1.966   .     S
O670   Zn674   1.966   .     S
O671   Zn674   1.976   .     S
O672   Zn673   1.976   .     S
O675   C676    1.414   .     S
C676   H678    1.112   .     S
C676   H677    1.111   .     S
C676   C679    1.536   .     S
C679   H681    1.110   .     S
C679   H564    1.111   1_655 S
C679   C566    1.525   1_655 S
C682   H685    1.111   .     S
C682   H684    1.111   .     S
H683   C1088   1.111   1_655 S
O686   C687    1.417   .     S
C687   C690    1.532   .     S
C687   H688    1.109   .     S
C687   H689    1.117   .     S
C690   H691    1.112   .     S
C690   H1214   1.110   .     S
C693   H695    1.110   .     S
C693   H696    1.111   .     S
C693   C574    1.527   1_655 S
C693   H1216   1.111   .     S
C697   C708    1.418   .     S
C697   O725    1.282   .     A
C697   O723    1.283   .     A
C698   O726    1.282   .     A
C698   C707    1.417   .     S
C698   O724    1.282   .     A
C699   O727    1.277   .     A
C699   C701    1.399   .     S
C699   O729    1.278   .     A
C700   O730    1.279   .     A
C700   O728    1.276   .     A
C700   C702    1.400   .     S
C701   C818    1.328   1_455 S
C701   H829    1.088   1_455 S
C702   C759    1.328   .     S
C702   H772    1.087   .     S
C703   C708    1.397   .     A
C703   H715    1.084   .     S
C704   H716    1.084   .     S
C704   C707    1.397   .     A
C704   C880    1.370   .     S
C705   C707    1.397   .     A
C705   H717    1.084   .     S
C705   C877    1.370   .     S
C706   H718    1.084   .     S
C706   C708    1.397   .     A
C709   O733    1.398   .     S
C709   N722    1.371   .     A
C710   N721    1.370   .     A
C710   O744    1.389   .     S
C710   C1234   1.427   .     S
C711   H719    1.078   .     S
C711   N721    1.364   .     A
C711   C1231   1.439   .     S
C712   H720    1.080   .     S
C712   N722    1.362   .     A
H713   C759    1.088   .     S
H714   C818    1.087   1_455 S
N721   Zn731   2.009   .     S
N722   Zn732   2.009   .     S
O723   Zn731   1.998   .     S
O724   Zn732   1.998   .     S
O725   Zn732   1.997   .     S
O726   Zn731   1.997   .     S
O727   Zn731   1.966   .     S
O728   Zn732   1.966   .     S
O729   Zn732   1.976   .     S
O730   Zn731   1.976   .     S
O733   C734    1.414   .     S
C734   H736    1.112   .     S
C734   H735    1.111   .     S
C734   C737    1.536   .     S
C737   H739    1.110   .     S
C737   H796    1.111   .     S
C737   C798    1.525   .     S
H738   C853    1.111   1_455 S
C740   H743    1.111   .     S
C740   H742    1.111   .     S
C740   C853    1.525   1_455 S
C740   H335    1.111   1_455 S
H741   C1320   1.111   .     S
O744   C745    1.417   .     S
C745   C748    1.532   .     S
C745   H746    1.109   .     S
C745   H747    1.117   .     S
C748   H749    1.112   .     S
C748   H1272   1.110   .     S
C748   C867    1.527   1_455 S
C751   H753    1.110   .     S
C751   H754    1.111   .     S
C751   C806    1.527   .     S
C751   H1274   1.111   .     S
C755   C766    1.418   .     S
C755   O783    1.282   .     A
C755   O781    1.283   .     A
C756   O784    1.282   .     A
C756   C765    1.417   .     S
C756   O782    1.282   .     A
C757   O785    1.277   .     A
C757   C759    1.399   .     S
C757   O787    1.278   .     A
C758   O788    1.279   .     A
C758   O786    1.276   .     A
C758   C760    1.400   .     S
C760   C817    1.328   .     S
C760   H830    1.087   .     S
C761   C766    1.397   .     A
C761   H773    1.084   .     S
C762   H774    1.084   .     S
C762   C765    1.397   .     A
C762   C938    1.370   .     S
C763   C765    1.397   .     A
C763   H775    1.084   .     S
C763   C935    1.370   .     S
C764   H776    1.084   .     S
C764   C766    1.397   .     A
C767   O791    1.398   .     S
C767   N780    1.371   .     A
C768   N779    1.370   .     A
C768   O802    1.389   .     S
C768   C1292   1.427   .     S
C769   H777    1.078   .     S
C769   N779    1.364   .     A
C769   C1289   1.439   .     S
C770   H778    1.080   .     S
C770   N780    1.362   .     A
H771   C817    1.088   .     S
N779   Zn789   2.009   .     S
N780   Zn790   2.009   .     S
O781   Zn789   1.998   .     S
O782   Zn790   1.998   .     S
O783   Zn790   1.997   .     S
O784   Zn789   1.997   .     S
O785   Zn789   1.966   .     S
O786   Zn790   1.966   .     S
O787   Zn790   1.976   .     S
O788   Zn789   1.976   .     S
O791   C792    1.414   .     S
C792   H794    1.112   .     S
C792   H793    1.111   .     S
C792   C795    1.536   .     S
C795   H797    1.110   .     S
C795   H854    1.111   .     S
C795   C856    1.525   .     S
C798   H801    1.111   .     S
C798   H800    1.111   .     S
H799   C1378   1.111   .     S
O802   C803    1.417   .     S
C803   C806    1.532   .     S
C803   H804    1.109   .     S
C803   H805    1.117   .     S
C806   H807    1.112   .     S
C806   H1330   1.110   .     S
C809   H811    1.110   .     S
C809   H812    1.111   .     S
C809   C864    1.527   .     S
C809   H1332   1.111   .     S
C813   C824    1.418   .     S
C813   O841    1.282   .     A
C813   O839    1.283   .     A
C814   O842    1.282   .     A
C814   C823    1.417   .     S
C814   O840    1.282   .     A
C815   O843    1.277   .     A
C815   C817    1.399   .     S
C815   O845    1.278   .     A
C816   O846    1.279   .     A
C816   O844    1.276   .     A
C816   C818    1.400   .     S
C818   C701    1.328   1_655 S
C818   H714    1.087   1_655 S
C819   C824    1.397   .     A
C819   H831    1.084   .     S
C820   H832    1.084   .     S
C820   C823    1.397   .     A
C820   C996    1.370   .     S
C821   C823    1.397   .     A
C821   H833    1.084   .     S
C821   C993    1.370   .     S
C822   H834    1.084   .     S
C822   C824    1.397   .     A
C825   O849    1.398   .     S
C825   N838    1.371   .     A
C826   N837    1.370   .     A
C826   O860    1.389   .     S
C826   C1350   1.427   .     S
C827   H835    1.078   .     S
C827   N837    1.364   .     A
C827   C1347   1.439   .     S
C828   H836    1.080   .     S
C828   N838    1.362   .     A
H829   C701    1.088   1_655 S
N837   Zn847   2.009   .     S
N838   Zn848   2.009   .     S
O839   Zn847   1.998   .     S
O840   Zn848   1.998   .     S
O841   Zn848   1.997   .     S
O842   Zn847   1.997   .     S
O843   Zn847   1.966   .     S
O844   Zn848   1.966   .     S
O845   Zn848   1.976   .     S
O846   Zn847   1.976   .     S
O849   C850    1.414   .     S
C850   H852    1.112   .     S
C850   H851    1.111   .     S
C850   C853    1.536   .     S
C853   H855    1.110   .     S
C853   H738    1.111   1_655 S
C853   C740    1.525   1_655 S
C856   H859    1.111   .     S
C856   H858    1.111   .     S
H857   C1262   1.111   1_655 S
O860   C861    1.417   .     S
C861   C864    1.532   .     S
C861   H862    1.109   .     S
C861   H863    1.117   .     S
C864   H865    1.112   .     S
C864   H1388   1.110   .     S
C867   H869    1.110   .     S
C867   H870    1.111   .     S
C867   C748    1.527   1_655 S
C867   H1390   1.111   .     S
C871   C882    1.418   .     S
C871   O899    1.282   .     A
C871   O897    1.283   .     A
C872   O900    1.282   .     A
C872   C881    1.417   .     S
C872   O898    1.282   .     A
C873   O901    1.277   .     A
C873   C875    1.399   .     S
C873   O903    1.278   .     A
C874   O904    1.279   .     A
C874   O902    1.276   .     A
C874   C876    1.400   .     S
C875   C992    1.328   1_455 S
C875   H1003   1.088   1_455 S
C876   C933    1.328   .     S
C876   H946    1.087   .     S
C877   C882    1.397   .     A
C877   H889    1.084   .     S
C878   H890    1.084   .     S
C878   C881    1.397   .     A
C878   C532    1.370   1_565 S
C879   C881    1.397   .     A
C879   H891    1.084   .     S
C879   C529    1.370   1_565 S
C880   H892    1.084   .     S
C880   C882    1.397   .     A
C883   O907    1.398   .     S
C883   N896    1.371   .     A
C884   N895    1.370   .     A
C884   O918    1.389   .     S
C884   C1408   1.427   .     S
C885   H893    1.078   .     S
C885   N895    1.364   .     A
C885   C1405   1.439   .     S
C886   H894    1.080   .     S
C886   N896    1.362   .     A
H887   C933    1.088   .     S
H888   C992    1.087   1_455 S
N895   Zn905   2.009   .     S
N896   Zn906   2.009   .     S
O897   Zn905   1.998   .     S
O898   Zn906   1.998   .     S
O899   Zn906   1.997   .     S
O900   Zn905   1.997   .     S
O901   Zn905   1.966   .     S
O902   Zn906   1.966   .     S
O903   Zn906   1.976   .     S
O904   Zn905   1.976   .     S
O907   C908    1.414   .     S
C908   H910    1.112   .     S
C908   H909    1.111   .     S
C908   C911    1.536   .     S
C911   H913    1.110   .     S
C911   H970    1.111   .     S
C911   C972    1.525   .     S
H912   C1027   1.111   1_455 S
C914   H917    1.111   .     S
C914   H916    1.111   .     S
C914   C1027   1.525   1_455 S
C914   H509    1.111   1_455 S
H915   C1494   1.111   .     S
O918   C919    1.417   .     S
C919   C922    1.532   .     S
C919   H920    1.109   .     S
C919   H921    1.117   .     S
C922   H923    1.112   .     S
C922   H1446   1.110   .     S
C922   C1041   1.527   1_455 S
C925   H927    1.110   .     S
C925   H928    1.111   .     S
C925   C980    1.527   .     S
C925   H1448   1.111   .     S
C929   C940    1.418   .     S
C929   O957    1.282   .     A
C929   O955    1.283   .     A
C930   O958    1.282   .     A
C930   C939    1.417   .     S
C930   O956    1.282   .     A
C931   O959    1.277   .     A
C931   C933    1.399   .     S
C931   O961    1.278   .     A
C932   O962    1.279   .     A
C932   O960    1.276   .     A
C932   C934    1.400   .     S
C934   C991    1.328   .     S
C934   H1004   1.087   .     S
C935   C940    1.397   .     A
C935   H947    1.084   .     S
C936   H948    1.084   .     S
C936   C939    1.397   .     A
C936   C590    1.370   1_565 S
C937   C939    1.397   .     A
C937   H949    1.084   .     S
C937   C587    1.370   1_565 S
C938   H950    1.084   .     S
C938   C940    1.397   .     A
C941   O965    1.398   .     S
C941   N954    1.371   .     A
C942   N953    1.370   .     A
C942   O976    1.389   .     S
C942   C1466   1.427   .     S
C943   H951    1.078   .     S
C943   N953    1.364   .     A
C943   C1463   1.439   .     S
C944   H952    1.080   .     S
C944   N954    1.362   .     A
H945   C991    1.088   .     S
N953   Zn963   2.009   .     S
N954   Zn964   2.009   .     S
O955   Zn963   1.998   .     S
O956   Zn964   1.998   .     S
O957   Zn964   1.997   .     S
O958   Zn963   1.997   .     S
O959   Zn963   1.966   .     S
O960   Zn964   1.966   .     S
O961   Zn964   1.976   .     S
O962   Zn963   1.976   .     S
O965   C966    1.414   .     S
C966   H968    1.112   .     S
C966   H967    1.111   .     S
C966   C969    1.536   .     S
C969   H971    1.110   .     S
C969   H1028   1.111   .     S
C969   C1030   1.525   .     S
C972   H975    1.111   .     S
C972   H974    1.111   .     S
H973   C1552   1.111   .     S
O976   C977    1.417   .     S
C977   C980    1.532   .     S
C977   H978    1.109   .     S
C977   H979    1.117   .     S
C980   H981    1.112   .     S
C980   H1504   1.110   .     S
C983   H985    1.110   .     S
C983   H986    1.111   .     S
C983   C1038   1.527   .     S
C983   H1506   1.111   .     S
C987   C998    1.418   .     S
C987   O1015   1.282   .     A
C987   O1013   1.283   .     A
C988   O1016   1.282   .     A
C988   C997    1.417   .     S
C988   O1014   1.282   .     A
C989   O1017   1.277   .     A
C989   C991    1.399   .     S
C989   O1019   1.278   .     A
C990   O1020   1.279   .     A
C990   O1018   1.276   .     A
C990   C992    1.400   .     S
C992   C875    1.328   1_655 S
C992   H888    1.087   1_655 S
C993   C998    1.397   .     A
C993   H1005   1.084   .     S
C994   H1006   1.084   .     S
C994   C997    1.397   .     A
C994   C648    1.370   1_565 S
C995   C997    1.397   .     A
C995   H1007   1.084   .     S
C995   C645    1.370   1_565 S
C996   H1008   1.084   .     S
C996   C998    1.397   .     A
C999   O1023   1.398   .     S
C999   N1012   1.371   .     A
C1000  N1011   1.370   .     A
C1000  O1034   1.389   .     S
C1000  C1524   1.427   .     S
C1001  H1009   1.078   .     S
C1001  N1011   1.364   .     A
C1001  C1521   1.439   .     S
C1002  H1010   1.080   .     S
C1002  N1012   1.362   .     A
H1003  C875    1.088   1_655 S
N1011  Zn1021  2.009   .     S
N1012  Zn1022  2.009   .     S
O1013  Zn1021  1.998   .     S
O1014  Zn1022  1.998   .     S
O1015  Zn1022  1.997   .     S
O1016  Zn1021  1.997   .     S
O1017  Zn1021  1.966   .     S
O1018  Zn1022  1.966   .     S
O1019  Zn1022  1.976   .     S
O1020  Zn1021  1.976   .     S
O1023  C1024   1.414   .     S
C1024  H1026   1.112   .     S
C1024  H1025   1.111   .     S
C1024  C1027   1.536   .     S
C1027  H1029   1.110   .     S
C1027  H912    1.111   1_655 S
C1027  C914    1.525   1_655 S
C1030  H1033   1.111   .     S
C1030  H1032   1.111   .     S
H1031  C1436   1.111   1_655 S
O1034  C1035   1.417   .     S
C1035  C1038   1.532   .     S
C1035  H1036   1.109   .     S
C1035  H1037   1.117   .     S
C1038  H1039   1.112   .     S
C1038  H1562   1.110   .     S
C1041  H1043   1.110   .     S
C1041  H1044   1.111   .     S
C1041  C922    1.527   1_655 S
C1041  H1564   1.111   .     S
C1045  C1056   1.418   .     S
C1045  O1073   1.282   .     A
C1045  O1071   1.283   .     A
C1046  O1074   1.282   .     A
C1046  C1055   1.417   .     S
C1046  O1072   1.282   .     A
C1047  O1075   1.277   .     A
C1047  C1049   1.399   .     S
C1047  O1077   1.278   .     A
C1048  O1078   1.279   .     A
C1048  O1076   1.276   .     A
C1048  C1050   1.400   .     S
C1049  C1166   1.328   1_455 S
C1049  H1177   1.088   1_455 S
C1050  C1107   1.328   .     S
C1050  H1120   1.087   .     S
C1051  C1056   1.397   .     A
C1051  H1063   1.084   .     S
C1051  C1401   1.370   1_545 S
C1052  H1064   1.084   .     S
C1052  C1055   1.397   .     A
C1052  C1228   1.370   .     S
C1053  C1055   1.397   .     A
C1053  H1065   1.084   .     S
C1053  C1225   1.370   .     S
C1054  H1066   1.084   .     S
C1054  C1056   1.397   .     A
C1054  C1400   1.370   1_545 S
C1057  O1081   1.398   .     S
C1057  N1070   1.371   .     A
C1058  N1069   1.370   .     A
C1058  O1092   1.389   .     S
C1058  C16     1.427   1_556 S
C1059  H1067   1.078   .     S
C1059  N1069   1.364   .     A
C1059  C13     1.439   1_556 S
C1060  H1068   1.080   .     S
C1060  N1070   1.362   .     A
H1061  C1107   1.088   .     S
H1062  C1166   1.087   1_455 S
N1069  Zn1079  2.009   .     S
N1070  Zn1080  2.009   .     S
O1071  Zn1079  1.998   .     S
O1072  Zn1080  1.998   .     S
O1073  Zn1080  1.997   .     S
O1074  Zn1079  1.997   .     S
O1075  Zn1079  1.966   .     S
O1076  Zn1080  1.966   .     S
O1077  Zn1080  1.976   .     S
O1078  Zn1079  1.976   .     S
O1081  C1082   1.414   .     S
C1082  H1084   1.112   .     S
C1082  H1083   1.111   .     S
C1082  C1085   1.536   .     S
C1085  H1087   1.110   .     S
C1085  H1144   1.111   .     S
C1085  C1146   1.525   .     S
H1086  C1201   1.111   1_455 S
C1088  H1091   1.111   .     S
C1088  H1090   1.111   .     S
C1088  C1201   1.525   1_455 S
C1088  H683    1.111   1_455 S
H1089  C102    1.111   1_556 S
O1092  C1093   1.417   .     S
C1093  C1096   1.532   .     S
C1093  H1094   1.109   .     S
C1093  H1095   1.117   .     S
C1096  H1097   1.112   .     S
C1096  H54     1.110   1_556 S
C1096  C1215   1.527   1_455 S
C1099  H1101   1.110   .     S
C1099  H1102   1.111   .     S
C1099  C1154   1.527   .     S
C1099  H56     1.111   1_556 S
C1103  C1114   1.418   .     S
C1103  O1131   1.282   .     A
C1103  O1129   1.283   .     A
C1104  O1132   1.282   .     A
C1104  C1113   1.417   .     S
C1104  O1130   1.282   .     A
C1105  O1133   1.277   .     A
C1105  C1107   1.399   .     S
C1105  O1135   1.278   .     A
C1106  O1136   1.279   .     A
C1106  O1134   1.276   .     A
C1106  C1108   1.400   .     S
C1108  C1165   1.328   .     S
C1108  H1178   1.087   .     S
C1109  C1114   1.397   .     A
C1109  H1121   1.084   .     S
C1109  C1459   1.370   1_545 S
C1110  H1122   1.084   .     S
C1110  C1113   1.397   .     A
C1110  C1286   1.370   .     S
C1111  C1113   1.397   .     A
C1111  H1123   1.084   .     S
C1111  C1283   1.370   .     S
C1112  H1124   1.084   .     S
C1112  C1114   1.397   .     A
C1112  C1458   1.370   1_545 S
C1115  O1139   1.398   .     S
C1115  N1128   1.371   .     A
C1116  N1127   1.370   .     A
C1116  O1150   1.389   .     S
C1116  C74     1.427   1_556 S
C1117  H1125   1.078   .     S
C1117  N1127   1.364   .     A
C1117  C71     1.439   1_556 S
C1118  H1126   1.080   .     S
C1118  N1128   1.362   .     A
H1119  C1165   1.088   .     S
N1127  Zn1137  2.009   .     S
N1128  Zn1138  2.009   .     S
O1129  Zn1137  1.998   .     S
O1130  Zn1138  1.998   .     S
O1131  Zn1138  1.997   .     S
O1132  Zn1137  1.997   .     S
O1133  Zn1137  1.966   .     S
O1134  Zn1138  1.966   .     S
O1135  Zn1138  1.976   .     S
O1136  Zn1137  1.976   .     S
O1139  C1140   1.414   .     S
C1140  H1142   1.112   .     S
C1140  H1141   1.111   .     S
C1140  C1143   1.536   .     S
C1143  H1145   1.110   .     S
C1143  H1202   1.111   .     S
C1143  C1204   1.525   .     S
C1146  H1149   1.111   .     S
C1146  H1148   1.111   .     S
H1147  C160    1.111   1_556 S
O1150  C1151   1.417   .     S
C1151  C1154   1.532   .     S
C1151  H1152   1.109   .     S
C1151  H1153   1.117   .     S
C1154  H1155   1.112   .     S
C1154  H112    1.110   1_556 S
C1157  H1159   1.110   .     S
C1157  H1160   1.111   .     S
C1157  C1212   1.527   .     S
C1157  H114    1.111   1_556 S
C1161  C1172   1.418   .     S
C1161  O1189   1.282   .     A
C1161  O1187   1.283   .     A
C1162  O1190   1.282   .     A
C1162  C1171   1.417   .     S
C1162  O1188   1.282   .     A
C1163  O1191   1.277   .     A
C1163  C1165   1.399   .     S
C1163  O1193   1.278   .     A
C1164  O1194   1.279   .     A
C1164  O1192   1.276   .     A
C1164  C1166   1.400   .     S
C1166  C1049   1.328   1_655 S
C1166  H1062   1.087   1_655 S
C1167  C1172   1.397   .     A
C1167  H1179   1.084   .     S
C1167  C1517   1.370   1_545 S
C1168  H1180   1.084   .     S
C1168  C1171   1.397   .     A
C1168  C1344   1.370   .     S
C1169  C1171   1.397   .     A
C1169  H1181   1.084   .     S
C1169  C1341   1.370   .     S
C1170  H1182   1.084   .     S
C1170  C1172   1.397   .     A
C1170  C1516   1.370   1_545 S
C1173  O1197   1.398   .     S
C1173  N1186   1.371   .     A
C1174  N1185   1.370   .     A
C1174  O1208   1.389   .     S
C1174  C132    1.427   1_556 S
C1175  H1183   1.078   .     S
C1175  N1185   1.364   .     A
C1175  C129    1.439   1_556 S
C1176  H1184   1.080   .     S
C1176  N1186   1.362   .     A
H1177  C1049   1.088   1_655 S
N1185  Zn1195  2.009   .     S
N1186  Zn1196  2.009   .     S
O1187  Zn1195  1.998   .     S
O1188  Zn1196  1.998   .     S
O1189  Zn1196  1.997   .     S
O1190  Zn1195  1.997   .     S
O1191  Zn1195  1.966   .     S
O1192  Zn1196  1.966   .     S
O1193  Zn1196  1.976   .     S
O1194  Zn1195  1.976   .     S
O1197  C1198   1.414   .     S
C1198  H1200   1.112   .     S
C1198  H1199   1.111   .     S
C1198  C1201   1.536   .     S
C1201  H1203   1.110   .     S
C1201  H1086   1.111   1_655 S
C1201  C1088   1.525   1_655 S
C1204  H1207   1.111   .     S
C1204  H1206   1.111   .     S
H1205  C44     1.111   1_656 S
O1208  C1209   1.417   .     S
C1209  C1212   1.532   .     S
C1209  H1210   1.109   .     S
C1209  H1211   1.117   .     S
C1212  H1213   1.112   .     S
C1212  H170    1.110   1_556 S
C1215  H1217   1.110   .     S
C1215  H1218   1.111   .     S
C1215  C1096   1.527   1_655 S
C1215  H172    1.111   1_556 S
C1219  C1230   1.418   .     S
C1219  O1247   1.282   .     A
C1219  O1245   1.283   .     A
C1220  O1248   1.282   .     A
C1220  C1229   1.417   .     S
C1220  O1246   1.282   .     A
C1221  O1249   1.277   .     A
C1221  C1223   1.399   .     S
C1221  O1251   1.278   .     A
C1222  O1252   1.279   .     A
C1222  O1250   1.276   .     A
C1222  C1224   1.400   .     S
C1223  C1340   1.328   1_455 S
C1223  H1351   1.088   1_455 S
C1224  C1281   1.328   .     S
C1224  H1294   1.087   .     S
C1225  C1230   1.397   .     A
C1225  H1237   1.084   .     S
C1226  H1238   1.084   .     S
C1226  C1229   1.397   .     A
C1226  C1402   1.370   .     S
C1227  C1229   1.397   .     A
C1227  H1239   1.084   .     S
C1227  C1399   1.370   .     S
C1228  H1240   1.084   .     S
C1228  C1230   1.397   .     A
C1231  O1255   1.398   .     S
C1231  N1244   1.371   .     A
C1232  N1243   1.370   .     A
C1232  O1266   1.389   .     S
C1232  C190    1.427   1_556 S
C1233  H1241   1.078   .     S
C1233  N1243   1.364   .     A
C1233  C187    1.439   1_556 S
C1234  H1242   1.080   .     S
C1234  N1244   1.362   .     A
H1235  C1281   1.088   .     S
H1236  C1340   1.087   1_455 S
N1243  Zn1253  2.009   .     S
N1244  Zn1254  2.009   .     S
O1245  Zn1253  1.998   .     S
O1246  Zn1254  1.998   .     S
O1247  Zn1254  1.997   .     S
O1248  Zn1253  1.997   .     S
O1249  Zn1253  1.966   .     S
O1250  Zn1254  1.966   .     S
O1251  Zn1254  1.976   .     S
O1252  Zn1253  1.976   .     S
O1255  C1256   1.414   .     S
C1256  H1258   1.112   .     S
C1256  H1257   1.111   .     S
C1256  C1259   1.536   .     S
C1259  H1261   1.110   .     S
C1259  H1318   1.111   .     S
C1259  C1320   1.525   .     S
H1260  C1375   1.111   1_455 S
C1262  H1265   1.111   .     S
C1262  H1264   1.111   .     S
C1262  C1375   1.525   1_455 S
C1262  H857    1.111   1_455 S
H1263  C276    1.111   1_556 S
O1266  C1267   1.417   .     S
C1267  C1270   1.532   .     S
C1267  H1268   1.109   .     S
C1267  H1269   1.117   .     S
C1270  H1271   1.112   .     S
C1270  H228    1.110   1_556 S
C1270  C1389   1.527   1_455 S
C1273  H1275   1.110   .     S
C1273  H1276   1.111   .     S
C1273  C1328   1.527   .     S
C1273  H230    1.111   1_556 S
C1277  C1288   1.418   .     S
C1277  O1305   1.282   .     A
C1277  O1303   1.283   .     A
C1278  O1306   1.282   .     A
C1278  C1287   1.417   .     S
C1278  O1304   1.282   .     A
C1279  O1307   1.277   .     A
C1279  C1281   1.399   .     S
C1279  O1309   1.278   .     A
C1280  O1310   1.279   .     A
C1280  O1308   1.276   .     A
C1280  C1282   1.400   .     S
C1282  C1339   1.328   .     S
C1282  H1352   1.087   .     S
C1283  C1288   1.397   .     A
C1283  H1295   1.084   .     S
C1284  H1296   1.084   .     S
C1284  C1287   1.397   .     A
C1284  C1460   1.370   .     S
C1285  C1287   1.397   .     A
C1285  H1297   1.084   .     S
C1285  C1457   1.370   .     S
C1286  H1298   1.084   .     S
C1286  C1288   1.397   .     A
C1289  O1313   1.398   .     S
C1289  N1302   1.371   .     A
C1290  N1301   1.370   .     A
C1290  O1324   1.389   .     S
C1290  C248    1.427   1_556 S
C1291  H1299   1.078   .     S
C1291  N1301   1.364   .     A
C1291  C245    1.439   1_556 S
C1292  H1300   1.080   .     S
C1292  N1302   1.362   .     A
H1293  C1339   1.088   .     S
N1301  Zn1311  2.009   .     S
N1302  Zn1312  2.009   .     S
O1303  Zn1311  1.998   .     S
O1304  Zn1312  1.998   .     S
O1305  Zn1312  1.997   .     S
O1306  Zn1311  1.997   .     S
O1307  Zn1311  1.966   .     S
O1308  Zn1312  1.966   .     S
O1309  Zn1312  1.976   .     S
O1310  Zn1311  1.976   .     S
O1313  C1314   1.414   .     S
C1314  H1316   1.112   .     S
C1314  H1315   1.111   .     S
C1314  C1317   1.536   .     S
C1317  H1319   1.110   .     S
C1317  H1376   1.111   .     S
C1317  C1378   1.525   .     S
C1320  H1323   1.111   .     S
C1320  H1322   1.111   .     S
H1321  C334    1.111   1_556 S
O1324  C1325   1.417   .     S
C1325  C1328   1.532   .     S
C1325  H1326   1.109   .     S
C1325  H1327   1.117   .     S
C1328  H1329   1.112   .     S
C1328  H286    1.110   1_556 S
C1331  H1333   1.110   .     S
C1331  H1334   1.111   .     S
C1331  C1386   1.527   .     S
C1331  H288    1.111   1_556 S
C1335  C1346   1.418   .     S
C1335  O1363   1.282   .     A
C1335  O1361   1.283   .     A
C1336  O1364   1.282   .     A
C1336  C1345   1.417   .     S
C1336  O1362   1.282   .     A
C1337  O1365   1.277   .     A
C1337  C1339   1.399   .     S
C1337  O1367   1.278   .     A
C1338  O1368   1.279   .     A
C1338  O1366   1.276   .     A
C1338  C1340   1.400   .     S
C1340  C1223   1.328   1_655 S
C1340  H1236   1.087   1_655 S
C1341  C1346   1.397   .     A
C1341  H1353   1.084   .     S
C1342  H1354   1.084   .     S
C1342  C1345   1.397   .     A
C1342  C1518   1.370   .     S
C1343  C1345   1.397   .     A
C1343  H1355   1.084   .     S
C1343  C1515   1.370   .     S
C1344  H1356   1.084   .     S
C1344  C1346   1.397   .     A
C1347  O1371   1.398   .     S
C1347  N1360   1.371   .     A
C1348  N1359   1.370   .     A
C1348  O1382   1.389   .     S
C1348  C306    1.427   1_556 S
C1349  H1357   1.078   .     S
C1349  N1359   1.364   .     A
C1349  C303    1.439   1_556 S
C1350  H1358   1.080   .     S
C1350  N1360   1.362   .     A
H1351  C1223   1.088   1_655 S
N1359  Zn1369  2.009   .     S
N1360  Zn1370  2.009   .     S
O1361  Zn1369  1.998   .     S
O1362  Zn1370  1.998   .     S
O1363  Zn1370  1.997   .     S
O1364  Zn1369  1.997   .     S
O1365  Zn1369  1.966   .     S
O1366  Zn1370  1.966   .     S
O1367  Zn1370  1.976   .     S
O1368  Zn1369  1.976   .     S
O1371  C1372   1.414   .     S
C1372  H1374   1.112   .     S
C1372  H1373   1.111   .     S
C1372  C1375   1.536   .     S
C1375  H1377   1.110   .     S
C1375  H1260   1.111   1_655 S
C1375  C1262   1.525   1_655 S
C1378  H1381   1.111   .     S
C1378  H1380   1.111   .     S
H1379  C218    1.111   1_656 S
O1382  C1383   1.417   .     S
C1383  C1386   1.532   .     S
C1383  H1384   1.109   .     S
C1383  H1385   1.117   .     S
C1386  H1387   1.112   .     S
C1386  H344    1.110   1_556 S
C1389  H1391   1.110   .     S
C1389  H1392   1.111   .     S
C1389  C1270   1.527   1_655 S
C1389  H346    1.111   1_556 S
C1393  C1404   1.418   .     S
C1393  O1421   1.282   .     A
C1393  O1419   1.283   .     A
C1394  O1422   1.282   .     A
C1394  C1403   1.417   .     S
C1394  O1420   1.282   .     A
C1395  O1423   1.277   .     A
C1395  C1397   1.399   .     S
C1395  O1425   1.278   .     A
C1396  O1426   1.279   .     A
C1396  O1424   1.276   .     A
C1396  C1398   1.400   .     S
C1397  C1514   1.328   1_455 S
C1397  H1525   1.088   1_455 S
C1398  C1455   1.328   .     S
C1398  H1468   1.087   .     S
C1399  C1404   1.397   .     A
C1399  H1411   1.084   .     S
C1400  H1412   1.084   .     S
C1400  C1403   1.397   .     A
C1400  C1054   1.370   1_565 S
C1401  C1403   1.397   .     A
C1401  H1413   1.084   .     S
C1401  C1051   1.370   1_565 S
C1402  H1414   1.084   .     S
C1402  C1404   1.397   .     A
C1405  O1429   1.398   .     S
C1405  N1418   1.371   .     A
C1406  N1417   1.370   .     A
C1406  O1440   1.389   .     S
C1406  C364    1.427   1_556 S
C1407  H1415   1.078   .     S
C1407  N1417   1.364   .     A
C1407  C361    1.439   1_556 S
C1408  H1416   1.080   .     S
C1408  N1418   1.362   .     A
H1409  C1455   1.088   .     S
H1410  C1514   1.087   1_455 S
N1417  Zn1427  2.009   .     S
N1418  Zn1428  2.009   .     S
O1419  Zn1427  1.998   .     S
O1420  Zn1428  1.998   .     S
O1421  Zn1428  1.997   .     S
O1422  Zn1427  1.997   .     S
O1423  Zn1427  1.966   .     S
O1424  Zn1428  1.966   .     S
O1425  Zn1428  1.976   .     S
O1426  Zn1427  1.976   .     S
O1429  C1430   1.414   .     S
C1430  H1432   1.112   .     S
C1430  H1431   1.111   .     S
C1430  C1433   1.536   .     S
C1433  H1435   1.110   .     S
C1433  H1492   1.111   .     S
C1433  C1494   1.525   .     S
H1434  C1549   1.111   1_455 S
C1436  H1439   1.111   .     S
C1436  H1438   1.111   .     S
C1436  C1549   1.525   1_455 S
C1436  H1031   1.111   1_455 S
H1437  C450    1.111   1_556 S
O1440  C1441   1.417   .     S
C1441  C1444   1.532   .     S
C1441  H1442   1.109   .     S
C1441  H1443   1.117   .     S
C1444  H1445   1.112   .     S
C1444  H402    1.110   1_556 S
C1444  C1563   1.527   1_455 S
C1447  H1449   1.110   .     S
C1447  H1450   1.111   .     S
C1447  C1502   1.527   .     S
C1447  H404    1.111   1_556 S
C1451  C1462   1.418   .     S
C1451  O1479   1.282   .     A
C1451  O1477   1.283   .     A
C1452  O1480   1.282   .     A
C1452  C1461   1.417   .     S
C1452  O1478   1.282   .     A
C1453  O1481   1.277   .     A
C1453  C1455   1.399   .     S
C1453  O1483   1.278   .     A
C1454  O1484   1.279   .     A
C1454  O1482   1.276   .     A
C1454  C1456   1.400   .     S
C1456  C1513   1.328   .     S
C1456  H1526   1.087   .     S
C1457  C1462   1.397   .     A
C1457  H1469   1.084   .     S
C1458  H1470   1.084   .     S
C1458  C1461   1.397   .     A
C1458  C1112   1.370   1_565 S
C1459  C1461   1.397   .     A
C1459  H1471   1.084   .     S
C1459  C1109   1.370   1_565 S
C1460  H1472   1.084   .     S
C1460  C1462   1.397   .     A
C1463  O1487   1.398   .     S
C1463  N1476   1.371   .     A
C1464  N1475   1.370   .     A
C1464  O1498   1.389   .     S
C1464  C422    1.427   1_556 S
C1465  H1473   1.078   .     S
C1465  N1475   1.364   .     A
C1465  C419    1.439   1_556 S
C1466  H1474   1.080   .     S
C1466  N1476   1.362   .     A
H1467  C1513   1.088   .     S
N1475  Zn1485  2.009   .     S
N1476  Zn1486  2.009   .     S
O1477  Zn1485  1.998   .     S
O1478  Zn1486  1.998   .     S
O1479  Zn1486  1.997   .     S
O1480  Zn1485  1.997   .     S
O1481  Zn1485  1.966   .     S
O1482  Zn1486  1.966   .     S
O1483  Zn1486  1.976   .     S
O1484  Zn1485  1.976   .     S
O1487  C1488   1.414   .     S
C1488  H1490   1.112   .     S
C1488  H1489   1.111   .     S
C1488  C1491   1.536   .     S
C1491  H1493   1.110   .     S
C1491  H1550   1.111   .     S
C1491  C1552   1.525   .     S
C1494  H1497   1.111   .     S
C1494  H1496   1.111   .     S
H1495  C508    1.111   1_556 S
O1498  C1499   1.417   .     S
C1499  C1502   1.532   .     S
C1499  H1500   1.109   .     S
C1499  H1501   1.117   .     S
C1502  H1503   1.112   .     S
C1502  H460    1.110   1_556 S
C1505  H1507   1.110   .     S
C1505  H1508   1.111   .     S
C1505  C1560   1.527   .     S
C1505  H462    1.111   1_556 S
C1509  C1520   1.418   .     S
C1509  O1537   1.282   .     A
C1509  O1535   1.283   .     A
C1510  O1538   1.282   .     A
C1510  C1519   1.417   .     S
C1510  O1536   1.282   .     A
C1511  O1539   1.277   .     A
C1511  C1513   1.399   .     S
C1511  O1541   1.278   .     A
C1512  O1542   1.279   .     A
C1512  O1540   1.276   .     A
C1512  C1514   1.400   .     S
C1514  C1397   1.328   1_655 S
C1514  H1410   1.087   1_655 S
C1515  C1520   1.397   .     A
C1515  H1527   1.084   .     S
C1516  H1528   1.084   .     S
C1516  C1519   1.397   .     A
C1516  C1170   1.370   1_565 S
C1517  C1519   1.397   .     A
C1517  H1529   1.084   .     S
C1517  C1167   1.370   1_565 S
C1518  H1530   1.084   .     S
C1518  C1520   1.397   .     A
C1521  O1545   1.398   .     S
C1521  N1534   1.371   .     A
C1522  N1533   1.370   .     A
C1522  O1556   1.389   .     S
C1522  C480    1.427   1_556 S
C1523  H1531   1.078   .     S
C1523  N1533   1.364   .     A
C1523  C477    1.439   1_556 S
C1524  H1532   1.080   .     S
C1524  N1534   1.362   .     A
H1525  C1397   1.088   1_655 S
N1533  Zn1543  2.009   .     S
N1534  Zn1544  2.009   .     S
O1535  Zn1543  1.998   .     S
O1536  Zn1544  1.998   .     S
O1537  Zn1544  1.997   .     S
O1538  Zn1543  1.997   .     S
O1539  Zn1543  1.966   .     S
O1540  Zn1544  1.966   .     S
O1541  Zn1544  1.976   .     S
O1542  Zn1543  1.976   .     S
O1545  C1546   1.414   .     S
C1546  H1548   1.112   .     S
C1546  H1547   1.111   .     S
C1546  C1549   1.536   .     S
C1549  H1551   1.110   .     S
C1549  H1434   1.111   1_655 S
C1549  C1436   1.525   1_655 S
C1552  H1555   1.111   .     S
C1552  H1554   1.111   .     S
H1553  C392    1.111   1_656 S
O1556  C1557   1.417   .     S
C1557  C1560   1.532   .     S
C1557  H1558   1.109   .     S
C1557  H1559   1.117   .     S
C1560  H1561   1.112   .     S
C1560  H518    1.110   1_556 S
C1563  H1565   1.110   .     S
C1563  H1566   1.111   .     S
C1563  C1444   1.527   1_655 S
C1563  H520    1.111   1_556 S
