data_str_m3_o10_o17_pcu_sym.73
_audit_creation_date              2020-01-03
_audit_creation_method            'Materials Studio'
_symmetry_space_group_name_H-M    'P1'
_symmetry_Int_Tables_number       1
_symmetry_cell_setting            triclinic
loop_
_symmetry_equiv_pos_as_xyz
  x,y,z
_cell_length_a                    23.3229
_cell_length_b                    25.6904
_cell_length_c                    29.7499
_cell_angle_alpha                 91.1707
_cell_angle_beta                  86.2621
_cell_angle_gamma                 93.5644
loop_
_atom_site_label
_atom_site_type_symbol
_atom_site_fract_x
_atom_site_fract_y
_atom_site_fract_z
_atom_site_U_iso_or_equiv
_atom_site_adp_type
_atom_site_occupancy
O1     O     0.12975   0.24619   0.25299   0.00000  Uiso   1.00
O2     O     0.20358   0.08714   0.24702   0.00000  Uiso   1.00
O3     O     0.22613   0.23721   0.24519   0.00000  Uiso   1.00
O4     O     0.10720   0.09613   0.25482   0.00000  Uiso   1.00
C5     C     0.18189   0.26488   0.24883   0.00000  Uiso   1.00
C6     C     0.15145   0.06845   0.25117   0.00000  Uiso   1.00
O7     O     0.11847   0.17117   0.31998   0.00000  Uiso   1.00
O8     O     0.21486   0.16216   0.18003   0.00000  Uiso   1.00
O9     O     0.21485   0.16219   0.31218   0.00000  Uiso   1.00
O10    O     0.11848   0.17115   0.18783   0.00000  Uiso   1.00
C11    C     0.16758   0.16651   0.33636   0.00000  Uiso   1.00
C12    C     0.16575   0.16683   0.16364   0.00000  Uiso   1.00
Zn13   Zn    0.10231   0.17266   0.25521   0.00000  Uiso   1.00
Zn14   Zn    0.23102   0.16067   0.24479   0.00000  Uiso   1.00
C15    C     0.13636   0.12674   0.09427   0.00000  Uiso   1.00
C16    C     0.19695   0.20660   0.40573   0.00000  Uiso   1.00
C17    C     0.16375   0.16843   0.11616   0.00000  Uiso   1.00
C18    C     0.16958   0.16491   0.38384   0.00000  Uiso   1.00
C19    C     0.19072   0.21076   0.09312   0.00000  Uiso   1.00
C20    C     0.14260   0.12258   0.40688   0.00000  Uiso   1.00
C21    C     0.18963   0.21225   0.04626   0.00000  Uiso   1.00
C22    C     0.14366   0.12110   0.45374   0.00000  Uiso   1.00
C23    C     0.16527   0.16780   0.02348   0.00000  Uiso   1.00
C24    C     0.16802   0.16555   0.47652   0.00000  Uiso   1.00
C25    C     0.13826   0.12537   0.04776   0.00000  Uiso   1.00
C26    C     0.19503   0.20798   0.45224   0.00000  Uiso   1.00
C27    C     0.21384   0.25555   0.02137   0.00000  Uiso   1.00
C28    C     0.11942   0.07781   0.47864   0.00000  Uiso   1.00
C29    C     0.21781   0.25213   0.47451   0.00000  Uiso   1.00
C30    C     0.11546   0.08124   0.02549   0.00000  Uiso   1.00
H31    H     0.11611   0.09435   0.11353   0.00000  Uiso   1.00
H32    H     0.21720   0.23900   0.38647   0.00000  Uiso   1.00
H33    H     0.23664   0.28508   0.45532   0.00000  Uiso   1.00
H34    H     0.09662   0.04828   0.04468   0.00000  Uiso   1.00
C35    C     0.18992   0.31937   0.24813   0.00000  Uiso   1.00
C36    C     0.14342   0.01396   0.25187   0.00000  Uiso   1.00
H37    H     0.23386   0.00298   0.24454   0.00000  Uiso   1.00
H38    H     0.09948   0.33035   0.25547   0.00000  Uiso   1.00
N39    N     0.31678   0.15265   0.23783   0.00000  Uiso   1.00
N40    N     0.01656   0.18068   0.26217   0.00000  Uiso   1.00
H41    H     0.00449   0.12754   0.21600   0.00000  Uiso   1.00
H42    H     0.32884   0.20579   0.28400   0.00000  Uiso   1.00
F43    F     0.21971   0.24858   0.11677   0.00000  Uiso   1.00
F44    F     0.11364   0.08474   0.38323   0.00000  Uiso   1.00
N45    N     0.23103   0.30426   0.04260   0.00000  Uiso   1.00
O46    O     0.19452   0.32726   0.07008   0.00000  Uiso   1.00
O47    O     0.27727   0.33082   0.02724   0.00000  Uiso   1.00
N48    N     0.10217   0.02912   0.45740   0.00000  Uiso   1.00
O49    O     0.13868   0.00604   0.42999   0.00000  Uiso   1.00
O50    O     0.05583   0.00269   0.47269   0.00000  Uiso   1.00
O51    O     0.46308   0.24619   0.25299   0.00000  Uiso   1.00
O52    O     0.53692   0.08714   0.24702   0.00000  Uiso   1.00
O53    O     0.55946   0.23721   0.24519   0.00000  Uiso   1.00
O54    O     0.44054   0.09613   0.25482   0.00000  Uiso   1.00
C55    C     0.51522   0.26488   0.24883   0.00000  Uiso   1.00
C56    C     0.48478   0.06845   0.25117   0.00000  Uiso   1.00
O57    O     0.45181   0.17117   0.31998   0.00000  Uiso   1.00
O58    O     0.54819   0.16216   0.18003   0.00000  Uiso   1.00
O59    O     0.54819   0.16219   0.31218   0.00000  Uiso   1.00
O60    O     0.45181   0.17115   0.18783   0.00000  Uiso   1.00
C61    C     0.50091   0.16651   0.33636   0.00000  Uiso   1.00
C62    C     0.49908   0.16683   0.16364   0.00000  Uiso   1.00
Zn63   Zn    0.43565   0.17266   0.25521   0.00000  Uiso   1.00
Zn64   Zn    0.56435   0.16067   0.24479   0.00000  Uiso   1.00
C65    C     0.46969   0.12674   0.09427   0.00000  Uiso   1.00
C66    C     0.53028   0.20660   0.40573   0.00000  Uiso   1.00
C67    C     0.49709   0.16843   0.11616   0.00000  Uiso   1.00
C68    C     0.50291   0.16491   0.38384   0.00000  Uiso   1.00
C69    C     0.52405   0.21076   0.09312   0.00000  Uiso   1.00
C70    C     0.47594   0.12258   0.40688   0.00000  Uiso   1.00
C71    C     0.52297   0.21225   0.04626   0.00000  Uiso   1.00
C72    C     0.47699   0.12110   0.45374   0.00000  Uiso   1.00
C73    C     0.49860   0.16780   0.02348   0.00000  Uiso   1.00
C74    C     0.50136   0.16555   0.47652   0.00000  Uiso   1.00
C75    C     0.47160   0.12537   0.04776   0.00000  Uiso   1.00
C76    C     0.52836   0.20798   0.45224   0.00000  Uiso   1.00
C77    C     0.54717   0.25555   0.02137   0.00000  Uiso   1.00
C78    C     0.45276   0.07781   0.47864   0.00000  Uiso   1.00
C79    C     0.55114   0.25213   0.47451   0.00000  Uiso   1.00
C80    C     0.44879   0.08124   0.02549   0.00000  Uiso   1.00
H81    H     0.44944   0.09435   0.11353   0.00000  Uiso   1.00
H82    H     0.55053   0.23900   0.38647   0.00000  Uiso   1.00
H83    H     0.56997   0.28508   0.45532   0.00000  Uiso   1.00
H84    H     0.42995   0.04828   0.04468   0.00000  Uiso   1.00
C85    C     0.52325   0.31937   0.24813   0.00000  Uiso   1.00
C86    C     0.47675   0.01396   0.25187   0.00000  Uiso   1.00
H87    H     0.56719   0.00298   0.24454   0.00000  Uiso   1.00
H88    H     0.43281   0.33035   0.25547   0.00000  Uiso   1.00
N89    N     0.65011   0.15265   0.23783   0.00000  Uiso   1.00
N90    N     0.34989   0.18068   0.26217   0.00000  Uiso   1.00
H91    H     0.33782   0.12754   0.21600   0.00000  Uiso   1.00
H92    H     0.66218   0.20579   0.28400   0.00000  Uiso   1.00
F93    F     0.55304   0.24858   0.11677   0.00000  Uiso   1.00
F94    F     0.44698   0.08474   0.38323   0.00000  Uiso   1.00
N95    N     0.56436   0.30426   0.04260   0.00000  Uiso   1.00
O96    O     0.52785   0.32726   0.07008   0.00000  Uiso   1.00
O97    O     0.61060   0.33082   0.02724   0.00000  Uiso   1.00
N98    N     0.43550   0.02912   0.45740   0.00000  Uiso   1.00
O99    O     0.47201   0.00604   0.42999   0.00000  Uiso   1.00
O100   O     0.38916   0.00269   0.47269   0.00000  Uiso   1.00
O101   O     0.79642   0.24619   0.25299   0.00000  Uiso   1.00
O102   O     0.87025   0.08714   0.24702   0.00000  Uiso   1.00
O103   O     0.89280   0.23721   0.24519   0.00000  Uiso   1.00
O104   O     0.77387   0.09613   0.25482   0.00000  Uiso   1.00
C105   C     0.84855   0.26488   0.24883   0.00000  Uiso   1.00
C106   C     0.81811   0.06845   0.25117   0.00000  Uiso   1.00
O107   O     0.78514   0.17117   0.31998   0.00000  Uiso   1.00
O108   O     0.88153   0.16216   0.18003   0.00000  Uiso   1.00
O109   O     0.88152   0.16219   0.31218   0.00000  Uiso   1.00
O110   O     0.78515   0.17115   0.18783   0.00000  Uiso   1.00
C111   C     0.83425   0.16651   0.33636   0.00000  Uiso   1.00
C112   C     0.83242   0.16683   0.16364   0.00000  Uiso   1.00
Zn113  Zn    0.76898   0.17266   0.25521   0.00000  Uiso   1.00
Zn114  Zn    0.89769   0.16067   0.24479   0.00000  Uiso   1.00
C115   C     0.80303   0.12674   0.09427   0.00000  Uiso   1.00
C116   C     0.86361   0.20660   0.40573   0.00000  Uiso   1.00
C117   C     0.83042   0.16843   0.11616   0.00000  Uiso   1.00
C118   C     0.83624   0.16491   0.38384   0.00000  Uiso   1.00
C119   C     0.85739   0.21076   0.09312   0.00000  Uiso   1.00
C120   C     0.80927   0.12258   0.40688   0.00000  Uiso   1.00
C121   C     0.85630   0.21225   0.04626   0.00000  Uiso   1.00
C122   C     0.81033   0.12110   0.45374   0.00000  Uiso   1.00
C123   C     0.83193   0.16780   0.02348   0.00000  Uiso   1.00
C124   C     0.83469   0.16555   0.47652   0.00000  Uiso   1.00
C125   C     0.80493   0.12537   0.04776   0.00000  Uiso   1.00
C126   C     0.86169   0.20798   0.45224   0.00000  Uiso   1.00
C127   C     0.88051   0.25555   0.02137   0.00000  Uiso   1.00
C128   C     0.78609   0.07781   0.47864   0.00000  Uiso   1.00
C129   C     0.88448   0.25213   0.47451   0.00000  Uiso   1.00
C130   C     0.78213   0.08124   0.02549   0.00000  Uiso   1.00
H131   H     0.78278   0.09435   0.11353   0.00000  Uiso   1.00
H132   H     0.88386   0.23900   0.38647   0.00000  Uiso   1.00
H133   H     0.90330   0.28508   0.45532   0.00000  Uiso   1.00
H134   H     0.76328   0.04828   0.04468   0.00000  Uiso   1.00
C135   C     0.85658   0.31937   0.24813   0.00000  Uiso   1.00
C136   C     0.81008   0.01396   0.25187   0.00000  Uiso   1.00
H137   H     0.90052   0.00298   0.24454   0.00000  Uiso   1.00
H138   H     0.76614   0.33035   0.25547   0.00000  Uiso   1.00
N139   N     0.98344   0.15265   0.23783   0.00000  Uiso   1.00
N140   N     0.68322   0.18068   0.26217   0.00000  Uiso   1.00
H141   H     0.67116   0.12754   0.21600   0.00000  Uiso   1.00
H142   H     0.99551   0.20579   0.28400   0.00000  Uiso   1.00
F143   F     0.88638   0.24858   0.11677   0.00000  Uiso   1.00
F144   F     0.78031   0.08474   0.38323   0.00000  Uiso   1.00
N145   N     0.89770   0.30426   0.04260   0.00000  Uiso   1.00
O146   O     0.86118   0.32726   0.07008   0.00000  Uiso   1.00
O147   O     0.94394   0.33082   0.02724   0.00000  Uiso   1.00
N148   N     0.76884   0.02912   0.45740   0.00000  Uiso   1.00
O149   O     0.80534   0.00604   0.42999   0.00000  Uiso   1.00
O150   O     0.72249   0.00269   0.47269   0.00000  Uiso   1.00
O151   O     0.12975   0.57952   0.25299   0.00000  Uiso   1.00
O152   O     0.20358   0.42048   0.24702   0.00000  Uiso   1.00
O153   O     0.22613   0.57054   0.24519   0.00000  Uiso   1.00
O154   O     0.10720   0.42946   0.25482   0.00000  Uiso   1.00
C155   C     0.18189   0.59822   0.24883   0.00000  Uiso   1.00
C156   C     0.15145   0.40178   0.25117   0.00000  Uiso   1.00
O157   O     0.11847   0.50450   0.31998   0.00000  Uiso   1.00
O158   O     0.21486   0.49550   0.18003   0.00000  Uiso   1.00
O159   O     0.21485   0.49552   0.31218   0.00000  Uiso   1.00
O160   O     0.11848   0.50448   0.18783   0.00000  Uiso   1.00
C161   C     0.16758   0.49984   0.33636   0.00000  Uiso   1.00
C162   C     0.16575   0.50016   0.16364   0.00000  Uiso   1.00
Zn163  Zn    0.10231   0.50600   0.25521   0.00000  Uiso   1.00
Zn164  Zn    0.23102   0.49400   0.24479   0.00000  Uiso   1.00
C165   C     0.13636   0.46008   0.09427   0.00000  Uiso   1.00
C166   C     0.19695   0.53993   0.40573   0.00000  Uiso   1.00
C167   C     0.16375   0.50176   0.11616   0.00000  Uiso   1.00
C168   C     0.16958   0.49824   0.38384   0.00000  Uiso   1.00
C169   C     0.19072   0.54409   0.09312   0.00000  Uiso   1.00
C170   C     0.14260   0.45592   0.40688   0.00000  Uiso   1.00
C171   C     0.18963   0.54559   0.04626   0.00000  Uiso   1.00
C172   C     0.14366   0.45443   0.45374   0.00000  Uiso   1.00
C173   C     0.16527   0.50113   0.02348   0.00000  Uiso   1.00
C174   C     0.16802   0.49889   0.47652   0.00000  Uiso   1.00
C175   C     0.13826   0.45870   0.04776   0.00000  Uiso   1.00
C176   C     0.19503   0.54132   0.45224   0.00000  Uiso   1.00
C177   C     0.21384   0.58889   0.02137   0.00000  Uiso   1.00
C178   C     0.11942   0.41115   0.47864   0.00000  Uiso   1.00
C179   C     0.21781   0.58546   0.47451   0.00000  Uiso   1.00
C180   C     0.11546   0.41457   0.02549   0.00000  Uiso   1.00
H181   H     0.11611   0.42768   0.11353   0.00000  Uiso   1.00
H182   H     0.21720   0.57233   0.38647   0.00000  Uiso   1.00
H183   H     0.23664   0.61842   0.45532   0.00000  Uiso   1.00
H184   H     0.09662   0.38162   0.04468   0.00000  Uiso   1.00
C185   C     0.18992   0.65270   0.24813   0.00000  Uiso   1.00
C186   C     0.14342   0.34730   0.25187   0.00000  Uiso   1.00
H187   H     0.23386   0.33632   0.24454   0.00000  Uiso   1.00
H188   H     0.09948   0.66368   0.25547   0.00000  Uiso   1.00
N189   N     0.31678   0.48598   0.23783   0.00000  Uiso   1.00
N190   N     0.01656   0.51402   0.26217   0.00000  Uiso   1.00
H191   H     0.00449   0.46087   0.21600   0.00000  Uiso   1.00
H192   H     0.32884   0.53913   0.28400   0.00000  Uiso   1.00
F193   F     0.21971   0.58192   0.11677   0.00000  Uiso   1.00
F194   F     0.11364   0.41807   0.38323   0.00000  Uiso   1.00
N195   N     0.23103   0.63760   0.04260   0.00000  Uiso   1.00
O196   O     0.19452   0.66059   0.07008   0.00000  Uiso   1.00
O197   O     0.27727   0.66415   0.02724   0.00000  Uiso   1.00
N198   N     0.10217   0.36246   0.45740   0.00000  Uiso   1.00
O199   O     0.13868   0.33937   0.42999   0.00000  Uiso   1.00
O200   O     0.05583   0.33602   0.47269   0.00000  Uiso   1.00
O201   O     0.46308   0.57952   0.25299   0.00000  Uiso   1.00
O202   O     0.53692   0.42048   0.24702   0.00000  Uiso   1.00
O203   O     0.55946   0.57054   0.24519   0.00000  Uiso   1.00
O204   O     0.44054   0.42946   0.25482   0.00000  Uiso   1.00
C205   C     0.51522   0.59822   0.24883   0.00000  Uiso   1.00
C206   C     0.48478   0.40178   0.25117   0.00000  Uiso   1.00
O207   O     0.45181   0.50450   0.31998   0.00000  Uiso   1.00
O208   O     0.54819   0.49550   0.18003   0.00000  Uiso   1.00
O209   O     0.54819   0.49552   0.31218   0.00000  Uiso   1.00
O210   O     0.45181   0.50448   0.18783   0.00000  Uiso   1.00
C211   C     0.50091   0.49984   0.33636   0.00000  Uiso   1.00
C212   C     0.49908   0.50016   0.16364   0.00000  Uiso   1.00
Zn213  Zn    0.43565   0.50600   0.25521   0.00000  Uiso   1.00
Zn214  Zn    0.56435   0.49400   0.24479   0.00000  Uiso   1.00
C215   C     0.46969   0.46008   0.09427   0.00000  Uiso   1.00
C216   C     0.53028   0.53993   0.40573   0.00000  Uiso   1.00
C217   C     0.49709   0.50176   0.11616   0.00000  Uiso   1.00
C218   C     0.50291   0.49824   0.38384   0.00000  Uiso   1.00
C219   C     0.52405   0.54409   0.09312   0.00000  Uiso   1.00
C220   C     0.47594   0.45592   0.40688   0.00000  Uiso   1.00
C221   C     0.52297   0.54559   0.04626   0.00000  Uiso   1.00
C222   C     0.47699   0.45443   0.45374   0.00000  Uiso   1.00
C223   C     0.49860   0.50113   0.02348   0.00000  Uiso   1.00
C224   C     0.50136   0.49889   0.47652   0.00000  Uiso   1.00
C225   C     0.47160   0.45870   0.04776   0.00000  Uiso   1.00
C226   C     0.52836   0.54132   0.45224   0.00000  Uiso   1.00
C227   C     0.54717   0.58889   0.02137   0.00000  Uiso   1.00
C228   C     0.45276   0.41115   0.47864   0.00000  Uiso   1.00
C229   C     0.55114   0.58546   0.47451   0.00000  Uiso   1.00
C230   C     0.44879   0.41457   0.02549   0.00000  Uiso   1.00
H231   H     0.44944   0.42768   0.11353   0.00000  Uiso   1.00
H232   H     0.55053   0.57233   0.38647   0.00000  Uiso   1.00
H233   H     0.56997   0.61842   0.45532   0.00000  Uiso   1.00
H234   H     0.42995   0.38162   0.04468   0.00000  Uiso   1.00
C235   C     0.52325   0.65270   0.24813   0.00000  Uiso   1.00
C236   C     0.47675   0.34730   0.25187   0.00000  Uiso   1.00
H237   H     0.56719   0.33632   0.24454   0.00000  Uiso   1.00
H238   H     0.43281   0.66368   0.25547   0.00000  Uiso   1.00
N239   N     0.65011   0.48598   0.23783   0.00000  Uiso   1.00
N240   N     0.34989   0.51402   0.26217   0.00000  Uiso   1.00
H241   H     0.33782   0.46087   0.21600   0.00000  Uiso   1.00
H242   H     0.66218   0.53913   0.28400   0.00000  Uiso   1.00
F243   F     0.55304   0.58192   0.11677   0.00000  Uiso   1.00
F244   F     0.44698   0.41807   0.38323   0.00000  Uiso   1.00
N245   N     0.56436   0.63760   0.04260   0.00000  Uiso   1.00
O246   O     0.52785   0.66059   0.07008   0.00000  Uiso   1.00
O247   O     0.61060   0.66415   0.02724   0.00000  Uiso   1.00
N248   N     0.43550   0.36246   0.45740   0.00000  Uiso   1.00
O249   O     0.47201   0.33937   0.42999   0.00000  Uiso   1.00
O250   O     0.38916   0.33602   0.47269   0.00000  Uiso   1.00
O251   O     0.79642   0.57952   0.25299   0.00000  Uiso   1.00
O252   O     0.87025   0.42048   0.24702   0.00000  Uiso   1.00
O253   O     0.89280   0.57054   0.24519   0.00000  Uiso   1.00
O254   O     0.77387   0.42946   0.25482   0.00000  Uiso   1.00
C255   C     0.84855   0.59822   0.24883   0.00000  Uiso   1.00
C256   C     0.81811   0.40178   0.25117   0.00000  Uiso   1.00
O257   O     0.78514   0.50450   0.31998   0.00000  Uiso   1.00
O258   O     0.88153   0.49550   0.18003   0.00000  Uiso   1.00
O259   O     0.88152   0.49552   0.31218   0.00000  Uiso   1.00
O260   O     0.78515   0.50448   0.18783   0.00000  Uiso   1.00
C261   C     0.83425   0.49984   0.33636   0.00000  Uiso   1.00
C262   C     0.83242   0.50016   0.16364   0.00000  Uiso   1.00
Zn263  Zn    0.76898   0.50600   0.25521   0.00000  Uiso   1.00
Zn264  Zn    0.89769   0.49400   0.24479   0.00000  Uiso   1.00
C265   C     0.80303   0.46008   0.09427   0.00000  Uiso   1.00
C266   C     0.86361   0.53993   0.40573   0.00000  Uiso   1.00
C267   C     0.83042   0.50176   0.11616   0.00000  Uiso   1.00
C268   C     0.83624   0.49824   0.38384   0.00000  Uiso   1.00
C269   C     0.85739   0.54409   0.09312   0.00000  Uiso   1.00
C270   C     0.80927   0.45592   0.40688   0.00000  Uiso   1.00
C271   C     0.85630   0.54559   0.04626   0.00000  Uiso   1.00
C272   C     0.81033   0.45443   0.45374   0.00000  Uiso   1.00
C273   C     0.83193   0.50113   0.02348   0.00000  Uiso   1.00
C274   C     0.83469   0.49889   0.47652   0.00000  Uiso   1.00
C275   C     0.80493   0.45870   0.04776   0.00000  Uiso   1.00
C276   C     0.86169   0.54132   0.45224   0.00000  Uiso   1.00
C277   C     0.88051   0.58889   0.02137   0.00000  Uiso   1.00
C278   C     0.78609   0.41115   0.47864   0.00000  Uiso   1.00
C279   C     0.88448   0.58546   0.47451   0.00000  Uiso   1.00
C280   C     0.78213   0.41457   0.02549   0.00000  Uiso   1.00
H281   H     0.78278   0.42768   0.11353   0.00000  Uiso   1.00
H282   H     0.88386   0.57233   0.38647   0.00000  Uiso   1.00
H283   H     0.90330   0.61842   0.45532   0.00000  Uiso   1.00
H284   H     0.76328   0.38162   0.04468   0.00000  Uiso   1.00
C285   C     0.85658   0.65270   0.24813   0.00000  Uiso   1.00
C286   C     0.81008   0.34730   0.25187   0.00000  Uiso   1.00
H287   H     0.90052   0.33632   0.24454   0.00000  Uiso   1.00
H288   H     0.76614   0.66368   0.25547   0.00000  Uiso   1.00
N289   N     0.98344   0.48598   0.23783   0.00000  Uiso   1.00
N290   N     0.68322   0.51402   0.26217   0.00000  Uiso   1.00
H291   H     0.67116   0.46087   0.21600   0.00000  Uiso   1.00
H292   H     0.99551   0.53913   0.28400   0.00000  Uiso   1.00
F293   F     0.88638   0.58192   0.11677   0.00000  Uiso   1.00
F294   F     0.78031   0.41807   0.38323   0.00000  Uiso   1.00
N295   N     0.89770   0.63760   0.04260   0.00000  Uiso   1.00
O296   O     0.86118   0.66059   0.07008   0.00000  Uiso   1.00
O297   O     0.94394   0.66415   0.02724   0.00000  Uiso   1.00
N298   N     0.76884   0.36246   0.45740   0.00000  Uiso   1.00
O299   O     0.80534   0.33937   0.42999   0.00000  Uiso   1.00
O300   O     0.72249   0.33602   0.47269   0.00000  Uiso   1.00
O301   O     0.12975   0.91286   0.25299   0.00000  Uiso   1.00
O302   O     0.20358   0.75381   0.24702   0.00000  Uiso   1.00
O303   O     0.22613   0.90387   0.24519   0.00000  Uiso   1.00
O304   O     0.10720   0.76279   0.25482   0.00000  Uiso   1.00
C305   C     0.18189   0.93155   0.24883   0.00000  Uiso   1.00
C306   C     0.15145   0.73512   0.25117   0.00000  Uiso   1.00
O307   O     0.11847   0.83784   0.31998   0.00000  Uiso   1.00
O308   O     0.21486   0.82883   0.18003   0.00000  Uiso   1.00
O309   O     0.21485   0.82885   0.31218   0.00000  Uiso   1.00
O310   O     0.11848   0.83781   0.18783   0.00000  Uiso   1.00
C311   C     0.16758   0.83317   0.33636   0.00000  Uiso   1.00
C312   C     0.16575   0.83349   0.16364   0.00000  Uiso   1.00
Zn313  Zn    0.10231   0.83933   0.25521   0.00000  Uiso   1.00
Zn314  Zn    0.23102   0.82734   0.24479   0.00000  Uiso   1.00
C315   C     0.13636   0.79341   0.09427   0.00000  Uiso   1.00
C316   C     0.19695   0.87327   0.40573   0.00000  Uiso   1.00
C317   C     0.16375   0.83510   0.11616   0.00000  Uiso   1.00
C318   C     0.16958   0.83157   0.38384   0.00000  Uiso   1.00
C319   C     0.19072   0.87742   0.09312   0.00000  Uiso   1.00
C320   C     0.14260   0.78925   0.40688   0.00000  Uiso   1.00
C321   C     0.18963   0.87892   0.04626   0.00000  Uiso   1.00
C322   C     0.14366   0.78776   0.45374   0.00000  Uiso   1.00
C323   C     0.16527   0.83447   0.02348   0.00000  Uiso   1.00
C324   C     0.16802   0.83222   0.47652   0.00000  Uiso   1.00
C325   C     0.13826   0.79204   0.04776   0.00000  Uiso   1.00
C326   C     0.19503   0.87465   0.45224   0.00000  Uiso   1.00
C327   C     0.21384   0.92222   0.02137   0.00000  Uiso   1.00
C328   C     0.11942   0.74448   0.47864   0.00000  Uiso   1.00
C329   C     0.21781   0.91879   0.47451   0.00000  Uiso   1.00
C330   C     0.11546   0.74790   0.02549   0.00000  Uiso   1.00
H331   H     0.11611   0.76101   0.11353   0.00000  Uiso   1.00
H332   H     0.21720   0.90567   0.38647   0.00000  Uiso   1.00
H333   H     0.23664   0.95175   0.45532   0.00000  Uiso   1.00
H334   H     0.09662   0.71495   0.04468   0.00000  Uiso   1.00
C335   C     0.18992   0.98604   0.24813   0.00000  Uiso   1.00
C336   C     0.14342   0.68063   0.25187   0.00000  Uiso   1.00
H337   H     0.23386   0.66965   0.24454   0.00000  Uiso   1.00
H338   H     0.09948   0.99701   0.25547   0.00000  Uiso   1.00
N339   N     0.31678   0.81932   0.23783   0.00000  Uiso   1.00
N340   N     0.01656   0.84735   0.26217   0.00000  Uiso   1.00
H341   H     0.00449   0.79421   0.21600   0.00000  Uiso   1.00
H342   H     0.32884   0.87246   0.28400   0.00000  Uiso   1.00
F343   F     0.21971   0.91525   0.11677   0.00000  Uiso   1.00
F344   F     0.11364   0.75140   0.38323   0.00000  Uiso   1.00
N345   N     0.23103   0.97093   0.04260   0.00000  Uiso   1.00
O346   O     0.19452   0.99392   0.07008   0.00000  Uiso   1.00
O347   O     0.27727   0.99748   0.02724   0.00000  Uiso   1.00
N348   N     0.10217   0.69579   0.45740   0.00000  Uiso   1.00
O349   O     0.13868   0.67271   0.42999   0.00000  Uiso   1.00
O350   O     0.05583   0.66935   0.47269   0.00000  Uiso   1.00
O351   O     0.46308   0.91286   0.25299   0.00000  Uiso   1.00
O352   O     0.53692   0.75381   0.24702   0.00000  Uiso   1.00
O353   O     0.55946   0.90387   0.24519   0.00000  Uiso   1.00
O354   O     0.44054   0.76279   0.25482   0.00000  Uiso   1.00
C355   C     0.51522   0.93155   0.24883   0.00000  Uiso   1.00
C356   C     0.48478   0.73512   0.25117   0.00000  Uiso   1.00
O357   O     0.45181   0.83784   0.31998   0.00000  Uiso   1.00
O358   O     0.54819   0.82883   0.18003   0.00000  Uiso   1.00
O359   O     0.54819   0.82885   0.31218   0.00000  Uiso   1.00
O360   O     0.45181   0.83781   0.18783   0.00000  Uiso   1.00
C361   C     0.50091   0.83317   0.33636   0.00000  Uiso   1.00
C362   C     0.49908   0.83349   0.16364   0.00000  Uiso   1.00
Zn363  Zn    0.43565   0.83933   0.25521   0.00000  Uiso   1.00
Zn364  Zn    0.56435   0.82734   0.24479   0.00000  Uiso   1.00
C365   C     0.46969   0.79341   0.09427   0.00000  Uiso   1.00
C366   C     0.53028   0.87327   0.40573   0.00000  Uiso   1.00
C367   C     0.49709   0.83510   0.11616   0.00000  Uiso   1.00
C368   C     0.50291   0.83157   0.38384   0.00000  Uiso   1.00
C369   C     0.52405   0.87742   0.09312   0.00000  Uiso   1.00
C370   C     0.47594   0.78925   0.40688   0.00000  Uiso   1.00
C371   C     0.52297   0.87892   0.04626   0.00000  Uiso   1.00
C372   C     0.47699   0.78776   0.45374   0.00000  Uiso   1.00
C373   C     0.49860   0.83447   0.02348   0.00000  Uiso   1.00
C374   C     0.50136   0.83222   0.47652   0.00000  Uiso   1.00
C375   C     0.47160   0.79204   0.04776   0.00000  Uiso   1.00
C376   C     0.52836   0.87465   0.45224   0.00000  Uiso   1.00
C377   C     0.54717   0.92222   0.02137   0.00000  Uiso   1.00
C378   C     0.45276   0.74448   0.47864   0.00000  Uiso   1.00
C379   C     0.55114   0.91879   0.47451   0.00000  Uiso   1.00
C380   C     0.44879   0.74790   0.02549   0.00000  Uiso   1.00
H381   H     0.44944   0.76101   0.11353   0.00000  Uiso   1.00
H382   H     0.55053   0.90567   0.38647   0.00000  Uiso   1.00
H383   H     0.56997   0.95175   0.45532   0.00000  Uiso   1.00
H384   H     0.42995   0.71495   0.04468   0.00000  Uiso   1.00
C385   C     0.52325   0.98604   0.24813   0.00000  Uiso   1.00
C386   C     0.47675   0.68063   0.25187   0.00000  Uiso   1.00
H387   H     0.56719   0.66965   0.24454   0.00000  Uiso   1.00
H388   H     0.43281   0.99701   0.25547   0.00000  Uiso   1.00
N389   N     0.65011   0.81932   0.23783   0.00000  Uiso   1.00
N390   N     0.34989   0.84735   0.26217   0.00000  Uiso   1.00
H391   H     0.33782   0.79421   0.21600   0.00000  Uiso   1.00
H392   H     0.66218   0.87246   0.28400   0.00000  Uiso   1.00
F393   F     0.55304   0.91525   0.11677   0.00000  Uiso   1.00
F394   F     0.44698   0.75140   0.38323   0.00000  Uiso   1.00
N395   N     0.56436   0.97093   0.04260   0.00000  Uiso   1.00
O396   O     0.52785   0.99392   0.07008   0.00000  Uiso   1.00
O397   O     0.61060   0.99748   0.02724   0.00000  Uiso   1.00
N398   N     0.43550   0.69579   0.45740   0.00000  Uiso   1.00
O399   O     0.47201   0.67271   0.42999   0.00000  Uiso   1.00
O400   O     0.38916   0.66935   0.47269   0.00000  Uiso   1.00
O401   O     0.79642   0.91286   0.25299   0.00000  Uiso   1.00
O402   O     0.87025   0.75381   0.24702   0.00000  Uiso   1.00
O403   O     0.89280   0.90387   0.24519   0.00000  Uiso   1.00
O404   O     0.77387   0.76279   0.25482   0.00000  Uiso   1.00
C405   C     0.84855   0.93155   0.24883   0.00000  Uiso   1.00
C406   C     0.81811   0.73512   0.25117   0.00000  Uiso   1.00
O407   O     0.78514   0.83784   0.31998   0.00000  Uiso   1.00
O408   O     0.88153   0.82883   0.18003   0.00000  Uiso   1.00
O409   O     0.88152   0.82885   0.31218   0.00000  Uiso   1.00
O410   O     0.78515   0.83781   0.18783   0.00000  Uiso   1.00
C411   C     0.83425   0.83317   0.33636   0.00000  Uiso   1.00
C412   C     0.83242   0.83349   0.16364   0.00000  Uiso   1.00
Zn413  Zn    0.76898   0.83933   0.25521   0.00000  Uiso   1.00
Zn414  Zn    0.89769   0.82734   0.24479   0.00000  Uiso   1.00
C415   C     0.80303   0.79341   0.09427   0.00000  Uiso   1.00
C416   C     0.86361   0.87327   0.40573   0.00000  Uiso   1.00
C417   C     0.83042   0.83510   0.11616   0.00000  Uiso   1.00
C418   C     0.83624   0.83157   0.38384   0.00000  Uiso   1.00
C419   C     0.85739   0.87742   0.09312   0.00000  Uiso   1.00
C420   C     0.80927   0.78925   0.40688   0.00000  Uiso   1.00
C421   C     0.85630   0.87892   0.04626   0.00000  Uiso   1.00
C422   C     0.81033   0.78776   0.45374   0.00000  Uiso   1.00
C423   C     0.83193   0.83447   0.02348   0.00000  Uiso   1.00
C424   C     0.83469   0.83222   0.47652   0.00000  Uiso   1.00
C425   C     0.80493   0.79204   0.04776   0.00000  Uiso   1.00
C426   C     0.86169   0.87465   0.45224   0.00000  Uiso   1.00
C427   C     0.88051   0.92222   0.02137   0.00000  Uiso   1.00
C428   C     0.78609   0.74448   0.47864   0.00000  Uiso   1.00
C429   C     0.88448   0.91879   0.47451   0.00000  Uiso   1.00
C430   C     0.78213   0.74790   0.02549   0.00000  Uiso   1.00
H431   H     0.78278   0.76101   0.11353   0.00000  Uiso   1.00
H432   H     0.88386   0.90567   0.38647   0.00000  Uiso   1.00
H433   H     0.90330   0.95175   0.45532   0.00000  Uiso   1.00
H434   H     0.76328   0.71495   0.04468   0.00000  Uiso   1.00
C435   C     0.85658   0.98604   0.24813   0.00000  Uiso   1.00
C436   C     0.81008   0.68063   0.25187   0.00000  Uiso   1.00
H437   H     0.90052   0.66965   0.24454   0.00000  Uiso   1.00
H438   H     0.76614   0.99701   0.25547   0.00000  Uiso   1.00
N439   N     0.98344   0.81932   0.23783   0.00000  Uiso   1.00
N440   N     0.68322   0.84735   0.26217   0.00000  Uiso   1.00
H441   H     0.67116   0.79421   0.21600   0.00000  Uiso   1.00
H442   H     0.99551   0.87246   0.28400   0.00000  Uiso   1.00
F443   F     0.88638   0.91525   0.11677   0.00000  Uiso   1.00
F444   F     0.78031   0.75140   0.38323   0.00000  Uiso   1.00
N445   N     0.89770   0.97093   0.04260   0.00000  Uiso   1.00
O446   O     0.86118   0.99392   0.07008   0.00000  Uiso   1.00
O447   O     0.94394   0.99748   0.02724   0.00000  Uiso   1.00
N448   N     0.76884   0.69579   0.45740   0.00000  Uiso   1.00
O449   O     0.80534   0.67271   0.42999   0.00000  Uiso   1.00
O450   O     0.72249   0.66935   0.47269   0.00000  Uiso   1.00
O451   O     0.12975   0.24619   0.75299   0.00000  Uiso   1.00
O452   O     0.20358   0.08714   0.74702   0.00000  Uiso   1.00
O453   O     0.22613   0.23721   0.74519   0.00000  Uiso   1.00
O454   O     0.10720   0.09613   0.75482   0.00000  Uiso   1.00
C455   C     0.18189   0.26488   0.74883   0.00000  Uiso   1.00
C456   C     0.15145   0.06845   0.75117   0.00000  Uiso   1.00
O457   O     0.11847   0.17117   0.81998   0.00000  Uiso   1.00
O458   O     0.21486   0.16216   0.68003   0.00000  Uiso   1.00
O459   O     0.21485   0.16219   0.81218   0.00000  Uiso   1.00
O460   O     0.11848   0.17115   0.68783   0.00000  Uiso   1.00
C461   C     0.16758   0.16651   0.83636   0.00000  Uiso   1.00
C462   C     0.16575   0.16683   0.66364   0.00000  Uiso   1.00
Zn463  Zn    0.10231   0.17266   0.75521   0.00000  Uiso   1.00
Zn464  Zn    0.23102   0.16067   0.74479   0.00000  Uiso   1.00
C465   C     0.13636   0.12674   0.59427   0.00000  Uiso   1.00
C466   C     0.19695   0.20660   0.90573   0.00000  Uiso   1.00
C467   C     0.16375   0.16843   0.61616   0.00000  Uiso   1.00
C468   C     0.16958   0.16491   0.88384   0.00000  Uiso   1.00
C469   C     0.19072   0.21076   0.59312   0.00000  Uiso   1.00
C470   C     0.14260   0.12258   0.90688   0.00000  Uiso   1.00
C471   C     0.18963   0.21225   0.54626   0.00000  Uiso   1.00
C472   C     0.14366   0.12110   0.95374   0.00000  Uiso   1.00
C473   C     0.16527   0.16780   0.52348   0.00000  Uiso   1.00
C474   C     0.16802   0.16555   0.97652   0.00000  Uiso   1.00
C475   C     0.13826   0.12537   0.54776   0.00000  Uiso   1.00
C476   C     0.19503   0.20798   0.95224   0.00000  Uiso   1.00
C477   C     0.21384   0.25555   0.52137   0.00000  Uiso   1.00
C478   C     0.11942   0.07781   0.97864   0.00000  Uiso   1.00
C479   C     0.21781   0.25213   0.97451   0.00000  Uiso   1.00
C480   C     0.11546   0.08124   0.52549   0.00000  Uiso   1.00
H481   H     0.11611   0.09435   0.61353   0.00000  Uiso   1.00
H482   H     0.21720   0.23900   0.88647   0.00000  Uiso   1.00
H483   H     0.23664   0.28508   0.95532   0.00000  Uiso   1.00
H484   H     0.09662   0.04828   0.54468   0.00000  Uiso   1.00
C485   C     0.18992   0.31937   0.74813   0.00000  Uiso   1.00
C486   C     0.14342   0.01396   0.75187   0.00000  Uiso   1.00
H487   H     0.23386   0.00298   0.74454   0.00000  Uiso   1.00
H488   H     0.09948   0.33035   0.75547   0.00000  Uiso   1.00
N489   N     0.31678   0.15265   0.73783   0.00000  Uiso   1.00
N490   N     0.01656   0.18068   0.76217   0.00000  Uiso   1.00
H491   H     0.00449   0.12754   0.71600   0.00000  Uiso   1.00
H492   H     0.32884   0.20579   0.78400   0.00000  Uiso   1.00
F493   F     0.21971   0.24858   0.61677   0.00000  Uiso   1.00
F494   F     0.11364   0.08474   0.88323   0.00000  Uiso   1.00
N495   N     0.23103   0.30426   0.54260   0.00000  Uiso   1.00
O496   O     0.19452   0.32726   0.57008   0.00000  Uiso   1.00
O497   O     0.27727   0.33082   0.52724   0.00000  Uiso   1.00
N498   N     0.10217   0.02912   0.95740   0.00000  Uiso   1.00
O499   O     0.13868   0.00604   0.92999   0.00000  Uiso   1.00
O500   O     0.05583   0.00269   0.97269   0.00000  Uiso   1.00
O501   O     0.46308   0.24619   0.75299   0.00000  Uiso   1.00
O502   O     0.53692   0.08714   0.74702   0.00000  Uiso   1.00
O503   O     0.55946   0.23721   0.74519   0.00000  Uiso   1.00
O504   O     0.44054   0.09613   0.75482   0.00000  Uiso   1.00
C505   C     0.51522   0.26488   0.74883   0.00000  Uiso   1.00
C506   C     0.48478   0.06845   0.75117   0.00000  Uiso   1.00
O507   O     0.45181   0.17117   0.81998   0.00000  Uiso   1.00
O508   O     0.54819   0.16216   0.68003   0.00000  Uiso   1.00
O509   O     0.54819   0.16219   0.81218   0.00000  Uiso   1.00
O510   O     0.45181   0.17115   0.68783   0.00000  Uiso   1.00
C511   C     0.50091   0.16651   0.83636   0.00000  Uiso   1.00
C512   C     0.49908   0.16683   0.66364   0.00000  Uiso   1.00
Zn513  Zn    0.43565   0.17266   0.75521   0.00000  Uiso   1.00
Zn514  Zn    0.56435   0.16067   0.74479   0.00000  Uiso   1.00
C515   C     0.46969   0.12674   0.59427   0.00000  Uiso   1.00
C516   C     0.53028   0.20660   0.90573   0.00000  Uiso   1.00
C517   C     0.49709   0.16843   0.61616   0.00000  Uiso   1.00
C518   C     0.50291   0.16491   0.88384   0.00000  Uiso   1.00
C519   C     0.52405   0.21076   0.59312   0.00000  Uiso   1.00
C520   C     0.47594   0.12258   0.90688   0.00000  Uiso   1.00
C521   C     0.52297   0.21225   0.54626   0.00000  Uiso   1.00
C522   C     0.47699   0.12110   0.95374   0.00000  Uiso   1.00
C523   C     0.49860   0.16780   0.52348   0.00000  Uiso   1.00
C524   C     0.50136   0.16555   0.97652   0.00000  Uiso   1.00
C525   C     0.47160   0.12537   0.54776   0.00000  Uiso   1.00
C526   C     0.52836   0.20798   0.95224   0.00000  Uiso   1.00
C527   C     0.54717   0.25555   0.52137   0.00000  Uiso   1.00
C528   C     0.45276   0.07781   0.97864   0.00000  Uiso   1.00
C529   C     0.55114   0.25213   0.97451   0.00000  Uiso   1.00
C530   C     0.44879   0.08124   0.52549   0.00000  Uiso   1.00
H531   H     0.44944   0.09435   0.61353   0.00000  Uiso   1.00
H532   H     0.55053   0.23900   0.88647   0.00000  Uiso   1.00
H533   H     0.56997   0.28508   0.95532   0.00000  Uiso   1.00
H534   H     0.42995   0.04828   0.54468   0.00000  Uiso   1.00
C535   C     0.52325   0.31937   0.74813   0.00000  Uiso   1.00
C536   C     0.47675   0.01396   0.75187   0.00000  Uiso   1.00
H537   H     0.56719   0.00298   0.74454   0.00000  Uiso   1.00
H538   H     0.43281   0.33035   0.75547   0.00000  Uiso   1.00
N539   N     0.65011   0.15265   0.73783   0.00000  Uiso   1.00
N540   N     0.34989   0.18068   0.76217   0.00000  Uiso   1.00
H541   H     0.33782   0.12754   0.71600   0.00000  Uiso   1.00
H542   H     0.66218   0.20579   0.78400   0.00000  Uiso   1.00
F543   F     0.55304   0.24858   0.61677   0.00000  Uiso   1.00
F544   F     0.44698   0.08474   0.88323   0.00000  Uiso   1.00
N545   N     0.56436   0.30426   0.54260   0.00000  Uiso   1.00
O546   O     0.52785   0.32726   0.57008   0.00000  Uiso   1.00
O547   O     0.61060   0.33082   0.52724   0.00000  Uiso   1.00
N548   N     0.43550   0.02912   0.95740   0.00000  Uiso   1.00
O549   O     0.47201   0.00604   0.92999   0.00000  Uiso   1.00
O550   O     0.38916   0.00269   0.97269   0.00000  Uiso   1.00
O551   O     0.79642   0.24619   0.75299   0.00000  Uiso   1.00
O552   O     0.87025   0.08714   0.74702   0.00000  Uiso   1.00
O553   O     0.89280   0.23721   0.74519   0.00000  Uiso   1.00
O554   O     0.77387   0.09613   0.75482   0.00000  Uiso   1.00
C555   C     0.84855   0.26488   0.74883   0.00000  Uiso   1.00
C556   C     0.81811   0.06845   0.75117   0.00000  Uiso   1.00
O557   O     0.78514   0.17117   0.81998   0.00000  Uiso   1.00
O558   O     0.88153   0.16216   0.68003   0.00000  Uiso   1.00
O559   O     0.88152   0.16219   0.81218   0.00000  Uiso   1.00
O560   O     0.78515   0.17115   0.68783   0.00000  Uiso   1.00
C561   C     0.83425   0.16651   0.83636   0.00000  Uiso   1.00
C562   C     0.83242   0.16683   0.66364   0.00000  Uiso   1.00
Zn563  Zn    0.76898   0.17266   0.75521   0.00000  Uiso   1.00
Zn564  Zn    0.89769   0.16067   0.74479   0.00000  Uiso   1.00
C565   C     0.80303   0.12674   0.59427   0.00000  Uiso   1.00
C566   C     0.86361   0.20660   0.90573   0.00000  Uiso   1.00
C567   C     0.83042   0.16843   0.61616   0.00000  Uiso   1.00
C568   C     0.83624   0.16491   0.88384   0.00000  Uiso   1.00
C569   C     0.85739   0.21076   0.59312   0.00000  Uiso   1.00
C570   C     0.80927   0.12258   0.90688   0.00000  Uiso   1.00
C571   C     0.85630   0.21225   0.54626   0.00000  Uiso   1.00
C572   C     0.81033   0.12110   0.95374   0.00000  Uiso   1.00
C573   C     0.83193   0.16780   0.52348   0.00000  Uiso   1.00
C574   C     0.83469   0.16555   0.97652   0.00000  Uiso   1.00
C575   C     0.80493   0.12537   0.54776   0.00000  Uiso   1.00
C576   C     0.86169   0.20798   0.95224   0.00000  Uiso   1.00
C577   C     0.88051   0.25555   0.52137   0.00000  Uiso   1.00
C578   C     0.78609   0.07781   0.97864   0.00000  Uiso   1.00
C579   C     0.88448   0.25213   0.97451   0.00000  Uiso   1.00
C580   C     0.78213   0.08124   0.52549   0.00000  Uiso   1.00
H581   H     0.78278   0.09435   0.61353   0.00000  Uiso   1.00
H582   H     0.88386   0.23900   0.88647   0.00000  Uiso   1.00
H583   H     0.90330   0.28508   0.95532   0.00000  Uiso   1.00
H584   H     0.76328   0.04828   0.54468   0.00000  Uiso   1.00
C585   C     0.85658   0.31937   0.74813   0.00000  Uiso   1.00
C586   C     0.81008   0.01396   0.75187   0.00000  Uiso   1.00
H587   H     0.90052   0.00298   0.74454   0.00000  Uiso   1.00
H588   H     0.76614   0.33035   0.75547   0.00000  Uiso   1.00
N589   N     0.98344   0.15265   0.73783   0.00000  Uiso   1.00
N590   N     0.68322   0.18068   0.76217   0.00000  Uiso   1.00
H591   H     0.67116   0.12754   0.71600   0.00000  Uiso   1.00
H592   H     0.99551   0.20579   0.78400   0.00000  Uiso   1.00
F593   F     0.88638   0.24858   0.61677   0.00000  Uiso   1.00
F594   F     0.78031   0.08474   0.88323   0.00000  Uiso   1.00
N595   N     0.89770   0.30426   0.54260   0.00000  Uiso   1.00
O596   O     0.86118   0.32726   0.57008   0.00000  Uiso   1.00
O597   O     0.94394   0.33082   0.52724   0.00000  Uiso   1.00
N598   N     0.76884   0.02912   0.95740   0.00000  Uiso   1.00
O599   O     0.80534   0.00604   0.92999   0.00000  Uiso   1.00
O600   O     0.72249   0.00269   0.97269   0.00000  Uiso   1.00
O601   O     0.12975   0.57952   0.75299   0.00000  Uiso   1.00
O602   O     0.20358   0.42048   0.74702   0.00000  Uiso   1.00
O603   O     0.22613   0.57054   0.74519   0.00000  Uiso   1.00
O604   O     0.10720   0.42946   0.75482   0.00000  Uiso   1.00
C605   C     0.18189   0.59822   0.74883   0.00000  Uiso   1.00
C606   C     0.15145   0.40178   0.75117   0.00000  Uiso   1.00
O607   O     0.11847   0.50450   0.81998   0.00000  Uiso   1.00
O608   O     0.21486   0.49550   0.68003   0.00000  Uiso   1.00
O609   O     0.21485   0.49552   0.81218   0.00000  Uiso   1.00
O610   O     0.11848   0.50448   0.68783   0.00000  Uiso   1.00
C611   C     0.16758   0.49984   0.83636   0.00000  Uiso   1.00
C612   C     0.16575   0.50016   0.66364   0.00000  Uiso   1.00
Zn613  Zn    0.10231   0.50600   0.75521   0.00000  Uiso   1.00
Zn614  Zn    0.23102   0.49400   0.74479   0.00000  Uiso   1.00
C615   C     0.13636   0.46008   0.59427   0.00000  Uiso   1.00
C616   C     0.19695   0.53993   0.90573   0.00000  Uiso   1.00
C617   C     0.16375   0.50176   0.61616   0.00000  Uiso   1.00
C618   C     0.16958   0.49824   0.88384   0.00000  Uiso   1.00
C619   C     0.19072   0.54409   0.59312   0.00000  Uiso   1.00
C620   C     0.14260   0.45592   0.90688   0.00000  Uiso   1.00
C621   C     0.18963   0.54559   0.54626   0.00000  Uiso   1.00
C622   C     0.14366   0.45443   0.95374   0.00000  Uiso   1.00
C623   C     0.16527   0.50113   0.52348   0.00000  Uiso   1.00
C624   C     0.16802   0.49889   0.97652   0.00000  Uiso   1.00
C625   C     0.13826   0.45870   0.54776   0.00000  Uiso   1.00
C626   C     0.19503   0.54132   0.95224   0.00000  Uiso   1.00
C627   C     0.21384   0.58889   0.52137   0.00000  Uiso   1.00
C628   C     0.11942   0.41115   0.97864   0.00000  Uiso   1.00
C629   C     0.21781   0.58546   0.97451   0.00000  Uiso   1.00
C630   C     0.11546   0.41457   0.52549   0.00000  Uiso   1.00
H631   H     0.11611   0.42768   0.61353   0.00000  Uiso   1.00
H632   H     0.21720   0.57233   0.88647   0.00000  Uiso   1.00
H633   H     0.23664   0.61842   0.95532   0.00000  Uiso   1.00
H634   H     0.09662   0.38162   0.54468   0.00000  Uiso   1.00
C635   C     0.18992   0.65270   0.74813   0.00000  Uiso   1.00
C636   C     0.14342   0.34730   0.75187   0.00000  Uiso   1.00
H637   H     0.23386   0.33632   0.74454   0.00000  Uiso   1.00
H638   H     0.09948   0.66368   0.75547   0.00000  Uiso   1.00
N639   N     0.31678   0.48598   0.73783   0.00000  Uiso   1.00
N640   N     0.01656   0.51402   0.76217   0.00000  Uiso   1.00
H641   H     0.00449   0.46087   0.71600   0.00000  Uiso   1.00
H642   H     0.32884   0.53913   0.78400   0.00000  Uiso   1.00
F643   F     0.21971   0.58192   0.61677   0.00000  Uiso   1.00
F644   F     0.11364   0.41807   0.88323   0.00000  Uiso   1.00
N645   N     0.23103   0.63760   0.54260   0.00000  Uiso   1.00
O646   O     0.19452   0.66059   0.57008   0.00000  Uiso   1.00
O647   O     0.27727   0.66415   0.52724   0.00000  Uiso   1.00
N648   N     0.10217   0.36246   0.95740   0.00000  Uiso   1.00
O649   O     0.13868   0.33937   0.92999   0.00000  Uiso   1.00
O650   O     0.05583   0.33602   0.97269   0.00000  Uiso   1.00
O651   O     0.46308   0.57952   0.75299   0.00000  Uiso   1.00
O652   O     0.53692   0.42048   0.74702   0.00000  Uiso   1.00
O653   O     0.55946   0.57054   0.74519   0.00000  Uiso   1.00
O654   O     0.44054   0.42946   0.75482   0.00000  Uiso   1.00
C655   C     0.51522   0.59822   0.74883   0.00000  Uiso   1.00
C656   C     0.48478   0.40178   0.75117   0.00000  Uiso   1.00
O657   O     0.45181   0.50450   0.81998   0.00000  Uiso   1.00
O658   O     0.54819   0.49550   0.68003   0.00000  Uiso   1.00
O659   O     0.54819   0.49552   0.81218   0.00000  Uiso   1.00
O660   O     0.45181   0.50448   0.68783   0.00000  Uiso   1.00
C661   C     0.50091   0.49984   0.83636   0.00000  Uiso   1.00
C662   C     0.49908   0.50016   0.66364   0.00000  Uiso   1.00
Zn663  Zn    0.43565   0.50600   0.75521   0.00000  Uiso   1.00
Zn664  Zn    0.56435   0.49400   0.74479   0.00000  Uiso   1.00
C665   C     0.46969   0.46008   0.59427   0.00000  Uiso   1.00
C666   C     0.53028   0.53993   0.90573   0.00000  Uiso   1.00
C667   C     0.49709   0.50176   0.61616   0.00000  Uiso   1.00
C668   C     0.50291   0.49824   0.88384   0.00000  Uiso   1.00
C669   C     0.52405   0.54409   0.59312   0.00000  Uiso   1.00
C670   C     0.47594   0.45592   0.90688   0.00000  Uiso   1.00
C671   C     0.52297   0.54559   0.54626   0.00000  Uiso   1.00
C672   C     0.47699   0.45443   0.95374   0.00000  Uiso   1.00
C673   C     0.49860   0.50113   0.52348   0.00000  Uiso   1.00
C674   C     0.50136   0.49889   0.97652   0.00000  Uiso   1.00
C675   C     0.47160   0.45870   0.54776   0.00000  Uiso   1.00
C676   C     0.52836   0.54132   0.95224   0.00000  Uiso   1.00
C677   C     0.54717   0.58889   0.52137   0.00000  Uiso   1.00
C678   C     0.45276   0.41115   0.97864   0.00000  Uiso   1.00
C679   C     0.55114   0.58546   0.97451   0.00000  Uiso   1.00
C680   C     0.44879   0.41457   0.52549   0.00000  Uiso   1.00
H681   H     0.44944   0.42768   0.61353   0.00000  Uiso   1.00
H682   H     0.55053   0.57233   0.88647   0.00000  Uiso   1.00
H683   H     0.56997   0.61842   0.95532   0.00000  Uiso   1.00
H684   H     0.42995   0.38162   0.54468   0.00000  Uiso   1.00
C685   C     0.52325   0.65270   0.74813   0.00000  Uiso   1.00
C686   C     0.47675   0.34730   0.75187   0.00000  Uiso   1.00
H687   H     0.56719   0.33632   0.74454   0.00000  Uiso   1.00
H688   H     0.43281   0.66368   0.75547   0.00000  Uiso   1.00
N689   N     0.65011   0.48598   0.73783   0.00000  Uiso   1.00
N690   N     0.34989   0.51402   0.76217   0.00000  Uiso   1.00
H691   H     0.33782   0.46087   0.71600   0.00000  Uiso   1.00
H692   H     0.66218   0.53913   0.78400   0.00000  Uiso   1.00
F693   F     0.55304   0.58192   0.61677   0.00000  Uiso   1.00
F694   F     0.44698   0.41807   0.88323   0.00000  Uiso   1.00
N695   N     0.56436   0.63760   0.54260   0.00000  Uiso   1.00
O696   O     0.52785   0.66059   0.57008   0.00000  Uiso   1.00
O697   O     0.61060   0.66415   0.52724   0.00000  Uiso   1.00
N698   N     0.43550   0.36246   0.95740   0.00000  Uiso   1.00
O699   O     0.47201   0.33937   0.92999   0.00000  Uiso   1.00
O700   O     0.38916   0.33602   0.97269   0.00000  Uiso   1.00
O701   O     0.79642   0.57952   0.75299   0.00000  Uiso   1.00
O702   O     0.87025   0.42048   0.74702   0.00000  Uiso   1.00
O703   O     0.89280   0.57054   0.74519   0.00000  Uiso   1.00
O704   O     0.77387   0.42946   0.75482   0.00000  Uiso   1.00
C705   C     0.84855   0.59822   0.74883   0.00000  Uiso   1.00
C706   C     0.81811   0.40178   0.75117   0.00000  Uiso   1.00
O707   O     0.78514   0.50450   0.81998   0.00000  Uiso   1.00
O708   O     0.88153   0.49550   0.68003   0.00000  Uiso   1.00
O709   O     0.88152   0.49552   0.81218   0.00000  Uiso   1.00
O710   O     0.78515   0.50448   0.68783   0.00000  Uiso   1.00
C711   C     0.83425   0.49984   0.83636   0.00000  Uiso   1.00
C712   C     0.83242   0.50016   0.66364   0.00000  Uiso   1.00
Zn713  Zn    0.76898   0.50600   0.75521   0.00000  Uiso   1.00
Zn714  Zn    0.89769   0.49400   0.74479   0.00000  Uiso   1.00
C715   C     0.80303   0.46008   0.59427   0.00000  Uiso   1.00
C716   C     0.86361   0.53993   0.90573   0.00000  Uiso   1.00
C717   C     0.83042   0.50176   0.61616   0.00000  Uiso   1.00
C718   C     0.83624   0.49824   0.88384   0.00000  Uiso   1.00
C719   C     0.85739   0.54409   0.59312   0.00000  Uiso   1.00
C720   C     0.80927   0.45592   0.90688   0.00000  Uiso   1.00
C721   C     0.85630   0.54559   0.54626   0.00000  Uiso   1.00
C722   C     0.81033   0.45443   0.95374   0.00000  Uiso   1.00
C723   C     0.83193   0.50113   0.52348   0.00000  Uiso   1.00
C724   C     0.83469   0.49889   0.97652   0.00000  Uiso   1.00
C725   C     0.80493   0.45870   0.54776   0.00000  Uiso   1.00
C726   C     0.86169   0.54132   0.95224   0.00000  Uiso   1.00
C727   C     0.88051   0.58889   0.52137   0.00000  Uiso   1.00
C728   C     0.78609   0.41115   0.97864   0.00000  Uiso   1.00
C729   C     0.88448   0.58546   0.97451   0.00000  Uiso   1.00
C730   C     0.78213   0.41457   0.52549   0.00000  Uiso   1.00
H731   H     0.78278   0.42768   0.61353   0.00000  Uiso   1.00
H732   H     0.88386   0.57233   0.88647   0.00000  Uiso   1.00
H733   H     0.90330   0.61842   0.95532   0.00000  Uiso   1.00
H734   H     0.76328   0.38162   0.54468   0.00000  Uiso   1.00
C735   C     0.85658   0.65270   0.74813   0.00000  Uiso   1.00
C736   C     0.81008   0.34730   0.75187   0.00000  Uiso   1.00
H737   H     0.90052   0.33632   0.74454   0.00000  Uiso   1.00
H738   H     0.76614   0.66368   0.75547   0.00000  Uiso   1.00
N739   N     0.98344   0.48598   0.73783   0.00000  Uiso   1.00
N740   N     0.68322   0.51402   0.76217   0.00000  Uiso   1.00
H741   H     0.67116   0.46087   0.71600   0.00000  Uiso   1.00
H742   H     0.99551   0.53913   0.78400   0.00000  Uiso   1.00
F743   F     0.88638   0.58192   0.61677   0.00000  Uiso   1.00
F744   F     0.78031   0.41807   0.88323   0.00000  Uiso   1.00
N745   N     0.89770   0.63760   0.54260   0.00000  Uiso   1.00
O746   O     0.86118   0.66059   0.57008   0.00000  Uiso   1.00
O747   O     0.94394   0.66415   0.52724   0.00000  Uiso   1.00
N748   N     0.76884   0.36246   0.95740   0.00000  Uiso   1.00
O749   O     0.80534   0.33937   0.92999   0.00000  Uiso   1.00
O750   O     0.72249   0.33602   0.97269   0.00000  Uiso   1.00
O751   O     0.12975   0.91286   0.75299   0.00000  Uiso   1.00
O752   O     0.20358   0.75381   0.74702   0.00000  Uiso   1.00
O753   O     0.22613   0.90387   0.74519   0.00000  Uiso   1.00
O754   O     0.10720   0.76279   0.75482   0.00000  Uiso   1.00
C755   C     0.18189   0.93155   0.74883   0.00000  Uiso   1.00
C756   C     0.15145   0.73512   0.75117   0.00000  Uiso   1.00
O757   O     0.11847   0.83784   0.81998   0.00000  Uiso   1.00
O758   O     0.21486   0.82883   0.68003   0.00000  Uiso   1.00
O759   O     0.21485   0.82885   0.81218   0.00000  Uiso   1.00
O760   O     0.11848   0.83781   0.68783   0.00000  Uiso   1.00
C761   C     0.16758   0.83317   0.83636   0.00000  Uiso   1.00
C762   C     0.16575   0.83349   0.66364   0.00000  Uiso   1.00
Zn763  Zn    0.10231   0.83933   0.75521   0.00000  Uiso   1.00
Zn764  Zn    0.23102   0.82734   0.74479   0.00000  Uiso   1.00
C765   C     0.13636   0.79341   0.59427   0.00000  Uiso   1.00
C766   C     0.19695   0.87327   0.90573   0.00000  Uiso   1.00
C767   C     0.16375   0.83510   0.61616   0.00000  Uiso   1.00
C768   C     0.16958   0.83157   0.88384   0.00000  Uiso   1.00
C769   C     0.19072   0.87742   0.59312   0.00000  Uiso   1.00
C770   C     0.14260   0.78925   0.90688   0.00000  Uiso   1.00
C771   C     0.18963   0.87892   0.54626   0.00000  Uiso   1.00
C772   C     0.14366   0.78776   0.95374   0.00000  Uiso   1.00
C773   C     0.16527   0.83447   0.52348   0.00000  Uiso   1.00
C774   C     0.16802   0.83222   0.97652   0.00000  Uiso   1.00
C775   C     0.13826   0.79204   0.54776   0.00000  Uiso   1.00
C776   C     0.19503   0.87465   0.95224   0.00000  Uiso   1.00
C777   C     0.21384   0.92222   0.52137   0.00000  Uiso   1.00
C778   C     0.11942   0.74448   0.97864   0.00000  Uiso   1.00
C779   C     0.21781   0.91879   0.97451   0.00000  Uiso   1.00
C780   C     0.11546   0.74790   0.52549   0.00000  Uiso   1.00
H781   H     0.11611   0.76101   0.61353   0.00000  Uiso   1.00
H782   H     0.21720   0.90567   0.88647   0.00000  Uiso   1.00
H783   H     0.23664   0.95175   0.95532   0.00000  Uiso   1.00
H784   H     0.09662   0.71495   0.54468   0.00000  Uiso   1.00
C785   C     0.18992   0.98604   0.74813   0.00000  Uiso   1.00
C786   C     0.14342   0.68063   0.75187   0.00000  Uiso   1.00
H787   H     0.23386   0.66965   0.74454   0.00000  Uiso   1.00
H788   H     0.09948   0.99701   0.75547   0.00000  Uiso   1.00
N789   N     0.31678   0.81932   0.73783   0.00000  Uiso   1.00
N790   N     0.01656   0.84735   0.76217   0.00000  Uiso   1.00
H791   H     0.00449   0.79421   0.71600   0.00000  Uiso   1.00
H792   H     0.32884   0.87246   0.78400   0.00000  Uiso   1.00
F793   F     0.21971   0.91525   0.61677   0.00000  Uiso   1.00
F794   F     0.11364   0.75140   0.88323   0.00000  Uiso   1.00
N795   N     0.23103   0.97093   0.54260   0.00000  Uiso   1.00
O796   O     0.19452   0.99392   0.57008   0.00000  Uiso   1.00
O797   O     0.27727   0.99748   0.52724   0.00000  Uiso   1.00
N798   N     0.10217   0.69579   0.95740   0.00000  Uiso   1.00
O799   O     0.13868   0.67271   0.92999   0.00000  Uiso   1.00
O800   O     0.05583   0.66935   0.97269   0.00000  Uiso   1.00
O801   O     0.46308   0.91286   0.75299   0.00000  Uiso   1.00
O802   O     0.53692   0.75381   0.74702   0.00000  Uiso   1.00
O803   O     0.55946   0.90387   0.74519   0.00000  Uiso   1.00
O804   O     0.44054   0.76279   0.75482   0.00000  Uiso   1.00
C805   C     0.51522   0.93155   0.74883   0.00000  Uiso   1.00
C806   C     0.48478   0.73512   0.75117   0.00000  Uiso   1.00
O807   O     0.45181   0.83784   0.81998   0.00000  Uiso   1.00
O808   O     0.54819   0.82883   0.68003   0.00000  Uiso   1.00
O809   O     0.54819   0.82885   0.81218   0.00000  Uiso   1.00
O810   O     0.45181   0.83781   0.68783   0.00000  Uiso   1.00
C811   C     0.50091   0.83317   0.83636   0.00000  Uiso   1.00
C812   C     0.49908   0.83349   0.66364   0.00000  Uiso   1.00
Zn813  Zn    0.43565   0.83933   0.75521   0.00000  Uiso   1.00
Zn814  Zn    0.56435   0.82734   0.74479   0.00000  Uiso   1.00
C815   C     0.46969   0.79341   0.59427   0.00000  Uiso   1.00
C816   C     0.53028   0.87327   0.90573   0.00000  Uiso   1.00
C817   C     0.49709   0.83510   0.61616   0.00000  Uiso   1.00
C818   C     0.50291   0.83157   0.88384   0.00000  Uiso   1.00
C819   C     0.52405   0.87742   0.59312   0.00000  Uiso   1.00
C820   C     0.47594   0.78925   0.90688   0.00000  Uiso   1.00
C821   C     0.52297   0.87892   0.54626   0.00000  Uiso   1.00
C822   C     0.47699   0.78776   0.95374   0.00000  Uiso   1.00
C823   C     0.49860   0.83447   0.52348   0.00000  Uiso   1.00
C824   C     0.50136   0.83222   0.97652   0.00000  Uiso   1.00
C825   C     0.47160   0.79204   0.54776   0.00000  Uiso   1.00
C826   C     0.52836   0.87465   0.95224   0.00000  Uiso   1.00
C827   C     0.54717   0.92222   0.52137   0.00000  Uiso   1.00
C828   C     0.45276   0.74448   0.97864   0.00000  Uiso   1.00
C829   C     0.55114   0.91879   0.97451   0.00000  Uiso   1.00
C830   C     0.44879   0.74790   0.52549   0.00000  Uiso   1.00
H831   H     0.44944   0.76101   0.61353   0.00000  Uiso   1.00
H832   H     0.55053   0.90567   0.88647   0.00000  Uiso   1.00
H833   H     0.56997   0.95175   0.95532   0.00000  Uiso   1.00
H834   H     0.42995   0.71495   0.54468   0.00000  Uiso   1.00
C835   C     0.52325   0.98604   0.74813   0.00000  Uiso   1.00
C836   C     0.47675   0.68063   0.75187   0.00000  Uiso   1.00
H837   H     0.56719   0.66965   0.74454   0.00000  Uiso   1.00
H838   H     0.43281   0.99701   0.75547   0.00000  Uiso   1.00
N839   N     0.65011   0.81932   0.73783   0.00000  Uiso   1.00
N840   N     0.34989   0.84735   0.76217   0.00000  Uiso   1.00
H841   H     0.33782   0.79421   0.71600   0.00000  Uiso   1.00
H842   H     0.66218   0.87246   0.78400   0.00000  Uiso   1.00
F843   F     0.55304   0.91525   0.61677   0.00000  Uiso   1.00
F844   F     0.44698   0.75140   0.88323   0.00000  Uiso   1.00
N845   N     0.56436   0.97093   0.54260   0.00000  Uiso   1.00
O846   O     0.52785   0.99392   0.57008   0.00000  Uiso   1.00
O847   O     0.61060   0.99748   0.52724   0.00000  Uiso   1.00
N848   N     0.43550   0.69579   0.95740   0.00000  Uiso   1.00
O849   O     0.47201   0.67271   0.92999   0.00000  Uiso   1.00
O850   O     0.38916   0.66935   0.97269   0.00000  Uiso   1.00
O851   O     0.79642   0.91286   0.75299   0.00000  Uiso   1.00
O852   O     0.87025   0.75381   0.74702   0.00000  Uiso   1.00
O853   O     0.89280   0.90387   0.74519   0.00000  Uiso   1.00
O854   O     0.77387   0.76279   0.75482   0.00000  Uiso   1.00
C855   C     0.84855   0.93155   0.74883   0.00000  Uiso   1.00
C856   C     0.81811   0.73512   0.75117   0.00000  Uiso   1.00
O857   O     0.78514   0.83784   0.81998   0.00000  Uiso   1.00
O858   O     0.88153   0.82883   0.68003   0.00000  Uiso   1.00
O859   O     0.88152   0.82885   0.81218   0.00000  Uiso   1.00
O860   O     0.78515   0.83781   0.68783   0.00000  Uiso   1.00
C861   C     0.83425   0.83317   0.83636   0.00000  Uiso   1.00
C862   C     0.83242   0.83349   0.66364   0.00000  Uiso   1.00
Zn863  Zn    0.76898   0.83933   0.75521   0.00000  Uiso   1.00
Zn864  Zn    0.89769   0.82734   0.74479   0.00000  Uiso   1.00
C865   C     0.80303   0.79341   0.59427   0.00000  Uiso   1.00
C866   C     0.86361   0.87327   0.90573   0.00000  Uiso   1.00
C867   C     0.83042   0.83510   0.61616   0.00000  Uiso   1.00
C868   C     0.83624   0.83157   0.88384   0.00000  Uiso   1.00
C869   C     0.85739   0.87742   0.59312   0.00000  Uiso   1.00
C870   C     0.80927   0.78925   0.90688   0.00000  Uiso   1.00
C871   C     0.85630   0.87892   0.54626   0.00000  Uiso   1.00
C872   C     0.81033   0.78776   0.95374   0.00000  Uiso   1.00
C873   C     0.83193   0.83447   0.52348   0.00000  Uiso   1.00
C874   C     0.83469   0.83222   0.97652   0.00000  Uiso   1.00
C875   C     0.80493   0.79204   0.54776   0.00000  Uiso   1.00
C876   C     0.86169   0.87465   0.95224   0.00000  Uiso   1.00
C877   C     0.88051   0.92222   0.52137   0.00000  Uiso   1.00
C878   C     0.78609   0.74448   0.97864   0.00000  Uiso   1.00
C879   C     0.88448   0.91879   0.97451   0.00000  Uiso   1.00
C880   C     0.78213   0.74790   0.52549   0.00000  Uiso   1.00
H881   H     0.78278   0.76101   0.61353   0.00000  Uiso   1.00
H882   H     0.88386   0.90567   0.88647   0.00000  Uiso   1.00
H883   H     0.90330   0.95175   0.95532   0.00000  Uiso   1.00
H884   H     0.76328   0.71495   0.54468   0.00000  Uiso   1.00
C885   C     0.85658   0.98604   0.74813   0.00000  Uiso   1.00
C886   C     0.81008   0.68063   0.75187   0.00000  Uiso   1.00
H887   H     0.90052   0.66965   0.74454   0.00000  Uiso   1.00
H888   H     0.76614   0.99701   0.75547   0.00000  Uiso   1.00
N889   N     0.98344   0.81932   0.73783   0.00000  Uiso   1.00
N890   N     0.68322   0.84735   0.76217   0.00000  Uiso   1.00
H891   H     0.67116   0.79421   0.71600   0.00000  Uiso   1.00
H892   H     0.99551   0.87246   0.78400   0.00000  Uiso   1.00
F893   F     0.88638   0.91525   0.61677   0.00000  Uiso   1.00
F894   F     0.78031   0.75140   0.88323   0.00000  Uiso   1.00
N895   N     0.89770   0.97093   0.54260   0.00000  Uiso   1.00
O896   O     0.86118   0.99392   0.57008   0.00000  Uiso   1.00
O897   O     0.94394   0.99748   0.52724   0.00000  Uiso   1.00
N898   N     0.76884   0.69579   0.95740   0.00000  Uiso   1.00
O899   O     0.80534   0.67271   0.92999   0.00000  Uiso   1.00
O900   O     0.72249   0.66935   0.97269   0.00000  Uiso   1.00
loop_
_geom_bond_atom_site_label_1
_geom_bond_atom_site_label_2
_geom_bond_distance
_geom_bond_site_symmetry_2
_ccdc_geom_bond_type
O1     C5      1.279   .     A
O1     Zn13    1.957   .     S
O2     C6      1.279   .     A
O2     Zn14    1.957   .     S
O3     C5      1.287   .     A
O3     Zn14    1.976   .     S
O4     C6      1.287   .     A
O4     Zn13    1.976   .     S
C5     C35     1.401   .     S
C6     C36     1.401   .     S
O7     C11     1.287   .     A
O7     Zn13    1.989   .     S
O8     C12     1.287   .     A
O8     Zn14    1.989   .     S
O9     Zn14    2.016   .     S
O9     C11     1.286   .     A
O10    C12     1.286   .     A
O10    Zn13    2.016   .     S
C11    C18     1.418   .     S
C12    C17     1.418   .     S
Zn13   N40     2.020   .     S
Zn14   N39     2.020   .     S
C15    H31     1.086   .     S
C15    C25     1.381   .     A
C15    C17     1.386   .     A
C16    H32     1.086   .     S
C16    C26     1.381   .     A
C16    C18     1.386   .     A
C17    C19     1.392   .     A
C18    C20     1.392   .     A
C19    C21     1.397   .     A
C19    F43     1.360   .     S
C20    F44     1.360   .     S
C20    C22     1.397   .     A
C21    C27     1.416   .     A
C21    C23     1.423   .     A
C22    C28     1.416   .     A
C22    C24     1.423   .     A
C23    C25     1.412   .     A
C23    C474    1.394   1_554 S
C24    C26     1.412   .     A
C24    C473    1.394   .     S
C25    C30     1.396   .     A
C26    C29     1.396   .     A
C27    N45     1.437   .     S
C27    C479    1.392   1_554 S
C28    N48     1.437   .     S
C28    C480    1.392   .     S
C29    H33     1.085   .     S
C29    C477    1.392   .     S
C30    H34     1.085   .     S
C30    C478    1.392   1_554 S
C35    C186    1.335   .     S
C35    H187    1.088   .     S
C36    C335    1.335   1_545 S
C36    H338    1.088   1_545 S
H37    C335    1.088   1_545 S
H38    C186    1.088   .     S
N39    N90     1.274   .     S
N39    H91     1.029   .     S
N40    N139    1.274   1_455 S
N40    H142    1.029   1_455 S
H41    N139    1.029   1_455 S
H42    N90     1.029   .     S
N45    O46     1.302   .     A
N45    O47     1.302   .     A
N48    O50     1.301   .     A
N48    O49     1.302   .     A
O51    C55     1.279   .     A
O51    Zn63    1.957   .     S
O52    C56     1.279   .     A
O52    Zn64    1.957   .     S
O53    C55     1.287   .     A
O53    Zn64    1.976   .     S
O54    C56     1.287   .     A
O54    Zn63    1.976   .     S
C55    C85     1.401   .     S
C56    C86     1.401   .     S
O57    C61     1.287   .     A
O57    Zn63    1.989   .     S
O58    C62     1.287   .     A
O58    Zn64    1.989   .     S
O59    Zn64    2.016   .     S
O59    C61     1.286   .     A
O60    C62     1.286   .     A
O60    Zn63    2.016   .     S
C61    C68     1.418   .     S
C62    C67     1.418   .     S
Zn63   N90     2.020   .     S
Zn64   N89     2.020   .     S
C65    H81     1.086   .     S
C65    C75     1.381   .     A
C65    C67     1.386   .     A
C66    H82     1.086   .     S
C66    C76     1.381   .     A
C66    C68     1.386   .     A
C67    C69     1.392   .     A
C68    C70     1.392   .     A
C69    C71     1.397   .     A
C69    F93     1.360   .     S
C70    F94     1.360   .     S
C70    C72     1.397   .     A
C71    C77     1.416   .     A
C71    C73     1.423   .     A
C72    C78     1.416   .     A
C72    C74     1.423   .     A
C73    C75     1.412   .     A
C73    C524    1.394   1_554 S
C74    C76     1.412   .     A
C74    C523    1.394   .     S
C75    C80     1.396   .     A
C76    C79     1.396   .     A
C77    N95     1.437   .     S
C77    C529    1.392   1_554 S
C78    N98     1.437   .     S
C78    C530    1.392   .     S
C79    H83     1.085   .     S
C79    C527    1.392   .     S
C80    H84     1.085   .     S
C80    C528    1.392   1_554 S
C85    C236    1.335   .     S
C85    H237    1.088   .     S
C86    C385    1.335   1_545 S
C86    H388    1.088   1_545 S
H87    C385    1.088   1_545 S
H88    C236    1.088   .     S
N89    N140    1.274   .     S
N89    H141    1.029   .     S
H92    N140    1.029   .     S
N95    O96     1.302   .     A
N95    O97     1.302   .     A
N98    O100    1.301   .     A
N98    O99     1.302   .     A
O101   C105    1.279   .     A
O101   Zn113   1.957   .     S
O102   C106    1.279   .     A
O102   Zn114   1.957   .     S
O103   C105    1.287   .     A
O103   Zn114   1.976   .     S
O104   C106    1.287   .     A
O104   Zn113   1.976   .     S
C105   C135    1.401   .     S
C106   C136    1.401   .     S
O107   C111    1.287   .     A
O107   Zn113   1.989   .     S
O108   C112    1.287   .     A
O108   Zn114   1.989   .     S
O109   Zn114   2.016   .     S
O109   C111    1.286   .     A
O110   C112    1.286   .     A
O110   Zn113   2.016   .     S
C111   C118    1.418   .     S
C112   C117    1.418   .     S
Zn113  N140    2.020   .     S
Zn114  N139    2.020   .     S
C115   H131    1.086   .     S
C115   C125    1.381   .     A
C115   C117    1.386   .     A
C116   H132    1.086   .     S
C116   C126    1.381   .     A
C116   C118    1.386   .     A
C117   C119    1.392   .     A
C118   C120    1.392   .     A
C119   C121    1.397   .     A
C119   F143    1.360   .     S
C120   F144    1.360   .     S
C120   C122    1.397   .     A
C121   C127    1.416   .     A
C121   C123    1.423   .     A
C122   C128    1.416   .     A
C122   C124    1.423   .     A
C123   C125    1.412   .     A
C123   C574    1.394   1_554 S
C124   C126    1.412   .     A
C124   C573    1.394   .     S
C125   C130    1.396   .     A
C126   C129    1.396   .     A
C127   N145    1.437   .     S
C127   C579    1.392   1_554 S
C128   N148    1.437   .     S
C128   C580    1.392   .     S
C129   H133    1.085   .     S
C129   C577    1.392   .     S
C130   H134    1.085   .     S
C130   C578    1.392   1_554 S
C135   C286    1.335   .     S
C135   H287    1.088   .     S
C136   C435    1.335   1_545 S
C136   H438    1.088   1_545 S
H137   C435    1.088   1_545 S
H138   C286    1.088   .     S
N139   N40     1.274   1_655 S
N139   H41     1.029   1_655 S
H142   N40     1.029   1_655 S
N145   O146    1.302   .     A
N145   O147    1.302   .     A
N148   O150    1.301   .     A
N148   O149    1.302   .     A
O151   C155    1.279   .     A
O151   Zn163   1.957   .     S
O152   C156    1.279   .     A
O152   Zn164   1.957   .     S
O153   C155    1.287   .     A
O153   Zn164   1.976   .     S
O154   C156    1.287   .     A
O154   Zn163   1.976   .     S
C155   C185    1.401   .     S
C156   C186    1.401   .     S
O157   C161    1.287   .     A
O157   Zn163   1.989   .     S
O158   C162    1.287   .     A
O158   Zn164   1.989   .     S
O159   Zn164   2.016   .     S
O159   C161    1.286   .     A
O160   C162    1.286   .     A
O160   Zn163   2.016   .     S
C161   C168    1.418   .     S
C162   C167    1.418   .     S
Zn163  N190    2.020   .     S
Zn164  N189    2.020   .     S
C165   H181    1.086   .     S
C165   C175    1.381   .     A
C165   C167    1.386   .     A
C166   H182    1.086   .     S
C166   C176    1.381   .     A
C166   C168    1.386   .     A
C167   C169    1.392   .     A
C168   C170    1.392   .     A
C169   C171    1.397   .     A
C169   F193    1.360   .     S
C170   F194    1.360   .     S
C170   C172    1.397   .     A
C171   C177    1.416   .     A
C171   C173    1.423   .     A
C172   C178    1.416   .     A
C172   C174    1.423   .     A
C173   C175    1.412   .     A
C173   C624    1.394   1_554 S
C174   C176    1.412   .     A
C174   C623    1.394   .     S
C175   C180    1.396   .     A
C176   C179    1.396   .     A
C177   N195    1.437   .     S
C177   C629    1.392   1_554 S
C178   N198    1.437   .     S
C178   C630    1.392   .     S
C179   H183    1.085   .     S
C179   C627    1.392   .     S
C180   H184    1.085   .     S
C180   C628    1.392   1_554 S
C185   C336    1.335   .     S
C185   H337    1.088   .     S
H188   C336    1.088   .     S
N189   N240    1.274   .     S
N189   H241    1.029   .     S
N190   N289    1.274   1_455 S
N190   H292    1.029   1_455 S
H191   N289    1.029   1_455 S
H192   N240    1.029   .     S
N195   O196    1.302   .     A
N195   O197    1.302   .     A
N198   O200    1.301   .     A
N198   O199    1.302   .     A
O201   C205    1.279   .     A
O201   Zn213   1.957   .     S
O202   C206    1.279   .     A
O202   Zn214   1.957   .     S
O203   C205    1.287   .     A
O203   Zn214   1.976   .     S
O204   C206    1.287   .     A
O204   Zn213   1.976   .     S
C205   C235    1.401   .     S
C206   C236    1.401   .     S
O207   C211    1.287   .     A
O207   Zn213   1.989   .     S
O208   C212    1.287   .     A
O208   Zn214   1.989   .     S
O209   Zn214   2.016   .     S
O209   C211    1.286   .     A
O210   C212    1.286   .     A
O210   Zn213   2.016   .     S
C211   C218    1.418   .     S
C212   C217    1.418   .     S
Zn213  N240    2.020   .     S
Zn214  N239    2.020   .     S
C215   H231    1.086   .     S
C215   C225    1.381   .     A
C215   C217    1.386   .     A
C216   H232    1.086   .     S
C216   C226    1.381   .     A
C216   C218    1.386   .     A
C217   C219    1.392   .     A
C218   C220    1.392   .     A
C219   C221    1.397   .     A
C219   F243    1.360   .     S
C220   F244    1.360   .     S
C220   C222    1.397   .     A
C221   C227    1.416   .     A
C221   C223    1.423   .     A
C222   C228    1.416   .     A
C222   C224    1.423   .     A
C223   C225    1.412   .     A
C223   C674    1.394   1_554 S
C224   C226    1.412   .     A
C224   C673    1.394   .     S
C225   C230    1.396   .     A
C226   C229    1.396   .     A
C227   N245    1.437   .     S
C227   C679    1.392   1_554 S
C228   N248    1.437   .     S
C228   C680    1.392   .     S
C229   H233    1.085   .     S
C229   C677    1.392   .     S
C230   H234    1.085   .     S
C230   C678    1.392   1_554 S
C235   C386    1.335   .     S
C235   H387    1.088   .     S
H238   C386    1.088   .     S
N239   N290    1.274   .     S
N239   H291    1.029   .     S
H242   N290    1.029   .     S
N245   O246    1.302   .     A
N245   O247    1.302   .     A
N248   O250    1.301   .     A
N248   O249    1.302   .     A
O251   C255    1.279   .     A
O251   Zn263   1.957   .     S
O252   C256    1.279   .     A
O252   Zn264   1.957   .     S
O253   C255    1.287   .     A
O253   Zn264   1.976   .     S
O254   C256    1.287   .     A
O254   Zn263   1.976   .     S
C255   C285    1.401   .     S
C256   C286    1.401   .     S
O257   C261    1.287   .     A
O257   Zn263   1.989   .     S
O258   C262    1.287   .     A
O258   Zn264   1.989   .     S
O259   Zn264   2.016   .     S
O259   C261    1.286   .     A
O260   C262    1.286   .     A
O260   Zn263   2.016   .     S
C261   C268    1.418   .     S
C262   C267    1.418   .     S
Zn263  N290    2.020   .     S
Zn264  N289    2.020   .     S
C265   H281    1.086   .     S
C265   C275    1.381   .     A
C265   C267    1.386   .     A
C266   H282    1.086   .     S
C266   C276    1.381   .     A
C266   C268    1.386   .     A
C267   C269    1.392   .     A
C268   C270    1.392   .     A
C269   C271    1.397   .     A
C269   F293    1.360   .     S
C270   F294    1.360   .     S
C270   C272    1.397   .     A
C271   C277    1.416   .     A
C271   C273    1.423   .     A
C272   C278    1.416   .     A
C272   C274    1.423   .     A
C273   C275    1.412   .     A
C273   C724    1.394   1_554 S
C274   C276    1.412   .     A
C274   C723    1.394   .     S
C275   C280    1.396   .     A
C276   C279    1.396   .     A
C277   N295    1.437   .     S
C277   C729    1.392   1_554 S
C278   N298    1.437   .     S
C278   C730    1.392   .     S
C279   H283    1.085   .     S
C279   C727    1.392   .     S
C280   H284    1.085   .     S
C280   C728    1.392   1_554 S
C285   C436    1.335   .     S
C285   H437    1.088   .     S
H288   C436    1.088   .     S
N289   N190    1.274   1_655 S
N289   H191    1.029   1_655 S
H292   N190    1.029   1_655 S
N295   O296    1.302   .     A
N295   O297    1.302   .     A
N298   O300    1.301   .     A
N298   O299    1.302   .     A
O301   C305    1.279   .     A
O301   Zn313   1.957   .     S
O302   C306    1.279   .     A
O302   Zn314   1.957   .     S
O303   C305    1.287   .     A
O303   Zn314   1.976   .     S
O304   C306    1.287   .     A
O304   Zn313   1.976   .     S
C305   C335    1.401   .     S
C306   C336    1.401   .     S
O307   C311    1.287   .     A
O307   Zn313   1.989   .     S
O308   C312    1.287   .     A
O308   Zn314   1.989   .     S
O309   Zn314   2.016   .     S
O309   C311    1.286   .     A
O310   C312    1.286   .     A
O310   Zn313   2.016   .     S
C311   C318    1.418   .     S
C312   C317    1.418   .     S
Zn313  N340    2.020   .     S
Zn314  N339    2.020   .     S
C315   H331    1.086   .     S
C315   C325    1.381   .     A
C315   C317    1.386   .     A
C316   H332    1.086   .     S
C316   C326    1.381   .     A
C316   C318    1.386   .     A
C317   C319    1.392   .     A
C318   C320    1.392   .     A
C319   C321    1.397   .     A
C319   F343    1.360   .     S
C320   F344    1.360   .     S
C320   C322    1.397   .     A
C321   C327    1.416   .     A
C321   C323    1.423   .     A
C322   C328    1.416   .     A
C322   C324    1.423   .     A
C323   C325    1.412   .     A
C323   C774    1.394   1_554 S
C324   C326    1.412   .     A
C324   C773    1.394   .     S
C325   C330    1.396   .     A
C326   C329    1.396   .     A
C327   N345    1.437   .     S
C327   C779    1.392   1_554 S
C328   N348    1.437   .     S
C328   C780    1.392   .     S
C329   H333    1.085   .     S
C329   C777    1.392   .     S
C330   H334    1.085   .     S
C330   C778    1.392   1_554 S
C335   C36     1.335   1_565 S
C335   H37     1.088   1_565 S
H338   C36     1.088   1_565 S
N339   N390    1.274   .     S
N339   H391    1.029   .     S
N340   N439    1.274   1_455 S
N340   H442    1.029   1_455 S
H341   N439    1.029   1_455 S
H342   N390    1.029   .     S
N345   O346    1.302   .     A
N345   O347    1.302   .     A
N348   O350    1.301   .     A
N348   O349    1.302   .     A
O351   C355    1.279   .     A
O351   Zn363   1.957   .     S
O352   C356    1.279   .     A
O352   Zn364   1.957   .     S
O353   C355    1.287   .     A
O353   Zn364   1.976   .     S
O354   C356    1.287   .     A
O354   Zn363   1.976   .     S
C355   C385    1.401   .     S
C356   C386    1.401   .     S
O357   C361    1.287   .     A
O357   Zn363   1.989   .     S
O358   C362    1.287   .     A
O358   Zn364   1.989   .     S
O359   Zn364   2.016   .     S
O359   C361    1.286   .     A
O360   C362    1.286   .     A
O360   Zn363   2.016   .     S
C361   C368    1.418   .     S
C362   C367    1.418   .     S
Zn363  N390    2.020   .     S
Zn364  N389    2.020   .     S
C365   H381    1.086   .     S
C365   C375    1.381   .     A
C365   C367    1.386   .     A
C366   H382    1.086   .     S
C366   C376    1.381   .     A
C366   C368    1.386   .     A
C367   C369    1.392   .     A
C368   C370    1.392   .     A
C369   C371    1.397   .     A
C369   F393    1.360   .     S
C370   F394    1.360   .     S
C370   C372    1.397   .     A
C371   C377    1.416   .     A
C371   C373    1.423   .     A
C372   C378    1.416   .     A
C372   C374    1.423   .     A
C373   C375    1.412   .     A
C373   C824    1.394   1_554 S
C374   C376    1.412   .     A
C374   C823    1.394   .     S
C375   C380    1.396   .     A
C376   C379    1.396   .     A
C377   N395    1.437   .     S
C377   C829    1.392   1_554 S
C378   N398    1.437   .     S
C378   C830    1.392   .     S
C379   H383    1.085   .     S
C379   C827    1.392   .     S
C380   H384    1.085   .     S
C380   C828    1.392   1_554 S
C385   C86     1.335   1_565 S
C385   H87     1.088   1_565 S
H388   C86     1.088   1_565 S
N389   N440    1.274   .     S
N389   H441    1.029   .     S
H392   N440    1.029   .     S
N395   O396    1.302   .     A
N395   O397    1.302   .     A
N398   O400    1.301   .     A
N398   O399    1.302   .     A
O401   C405    1.279   .     A
O401   Zn413   1.957   .     S
O402   C406    1.279   .     A
O402   Zn414   1.957   .     S
O403   C405    1.287   .     A
O403   Zn414   1.976   .     S
O404   C406    1.287   .     A
O404   Zn413   1.976   .     S
C405   C435    1.401   .     S
C406   C436    1.401   .     S
O407   C411    1.287   .     A
O407   Zn413   1.989   .     S
O408   C412    1.287   .     A
O408   Zn414   1.989   .     S
O409   Zn414   2.016   .     S
O409   C411    1.286   .     A
O410   C412    1.286   .     A
O410   Zn413   2.016   .     S
C411   C418    1.418   .     S
C412   C417    1.418   .     S
Zn413  N440    2.020   .     S
Zn414  N439    2.020   .     S
C415   H431    1.086   .     S
C415   C425    1.381   .     A
C415   C417    1.386   .     A
C416   H432    1.086   .     S
C416   C426    1.381   .     A
C416   C418    1.386   .     A
C417   C419    1.392   .     A
C418   C420    1.392   .     A
C419   C421    1.397   .     A
C419   F443    1.360   .     S
C420   F444    1.360   .     S
C420   C422    1.397   .     A
C421   C427    1.416   .     A
C421   C423    1.423   .     A
C422   C428    1.416   .     A
C422   C424    1.423   .     A
C423   C425    1.412   .     A
C423   C874    1.394   1_554 S
C424   C426    1.412   .     A
C424   C873    1.394   .     S
C425   C430    1.396   .     A
C426   C429    1.396   .     A
C427   N445    1.437   .     S
C427   C879    1.392   1_554 S
C428   N448    1.437   .     S
C428   C880    1.392   .     S
C429   H433    1.085   .     S
C429   C877    1.392   .     S
C430   H434    1.085   .     S
C430   C878    1.392   1_554 S
C435   C136    1.335   1_565 S
C435   H137    1.088   1_565 S
H438   C136    1.088   1_565 S
N439   N340    1.274   1_655 S
N439   H341    1.029   1_655 S
H442   N340    1.029   1_655 S
N445   O446    1.302   .     A
N445   O447    1.302   .     A
N448   O450    1.301   .     A
N448   O449    1.302   .     A
O451   C455    1.279   .     A
O451   Zn463   1.957   .     S
O452   C456    1.279   .     A
O452   Zn464   1.957   .     S
O453   C455    1.287   .     A
O453   Zn464   1.976   .     S
O454   C456    1.287   .     A
O454   Zn463   1.976   .     S
C455   C485    1.401   .     S
C456   C486    1.401   .     S
O457   C461    1.287   .     A
O457   Zn463   1.989   .     S
O458   C462    1.287   .     A
O458   Zn464   1.989   .     S
O459   Zn464   2.016   .     S
O459   C461    1.286   .     A
O460   C462    1.286   .     A
O460   Zn463   2.016   .     S
C461   C468    1.418   .     S
C462   C467    1.418   .     S
Zn463  N490    2.020   .     S
Zn464  N489    2.020   .     S
C465   H481    1.086   .     S
C465   C475    1.381   .     A
C465   C467    1.386   .     A
C466   H482    1.086   .     S
C466   C476    1.381   .     A
C466   C468    1.386   .     A
C467   C469    1.392   .     A
C468   C470    1.392   .     A
C469   C471    1.397   .     A
C469   F493    1.360   .     S
C470   F494    1.360   .     S
C470   C472    1.397   .     A
C471   C477    1.416   .     A
C471   C473    1.423   .     A
C472   C478    1.416   .     A
C472   C474    1.423   .     A
C473   C475    1.412   .     A
C474   C476    1.412   .     A
C474   C23     1.394   1_556 S
C475   C480    1.396   .     A
C476   C479    1.396   .     A
C477   N495    1.437   .     S
C478   N498    1.437   .     S
C478   C30     1.392   1_556 S
C479   H483    1.085   .     S
C479   C27     1.392   1_556 S
C480   H484    1.085   .     S
C485   C636    1.335   .     S
C485   H637    1.088   .     S
C486   C785    1.335   1_545 S
C486   H788    1.088   1_545 S
H487   C785    1.088   1_545 S
H488   C636    1.088   .     S
N489   N540    1.274   .     S
N489   H541    1.029   .     S
N490   N589    1.274   1_455 S
N490   H592    1.029   1_455 S
H491   N589    1.029   1_455 S
H492   N540    1.029   .     S
N495   O496    1.302   .     A
N495   O497    1.302   .     A
N498   O500    1.301   .     A
N498   O499    1.302   .     A
O501   C505    1.279   .     A
O501   Zn513   1.957   .     S
O502   C506    1.279   .     A
O502   Zn514   1.957   .     S
O503   C505    1.287   .     A
O503   Zn514   1.976   .     S
O504   C506    1.287   .     A
O504   Zn513   1.976   .     S
C505   C535    1.401   .     S
C506   C536    1.401   .     S
O507   C511    1.287   .     A
O507   Zn513   1.989   .     S
O508   C512    1.287   .     A
O508   Zn514   1.989   .     S
O509   Zn514   2.016   .     S
O509   C511    1.286   .     A
O510   C512    1.286   .     A
O510   Zn513   2.016   .     S
C511   C518    1.418   .     S
C512   C517    1.418   .     S
Zn513  N540    2.020   .     S
Zn514  N539    2.020   .     S
C515   H531    1.086   .     S
C515   C525    1.381   .     A
C515   C517    1.386   .     A
C516   H532    1.086   .     S
C516   C526    1.381   .     A
C516   C518    1.386   .     A
C517   C519    1.392   .     A
C518   C520    1.392   .     A
C519   C521    1.397   .     A
C519   F543    1.360   .     S
C520   F544    1.360   .     S
C520   C522    1.397   .     A
C521   C527    1.416   .     A
C521   C523    1.423   .     A
C522   C528    1.416   .     A
C522   C524    1.423   .     A
C523   C525    1.412   .     A
C524   C526    1.412   .     A
C524   C73     1.394   1_556 S
C525   C530    1.396   .     A
C526   C529    1.396   .     A
C527   N545    1.437   .     S
C528   N548    1.437   .     S
C528   C80     1.392   1_556 S
C529   H533    1.085   .     S
C529   C77     1.392   1_556 S
C530   H534    1.085   .     S
C535   C686    1.335   .     S
C535   H687    1.088   .     S
C536   C835    1.335   1_545 S
C536   H838    1.088   1_545 S
H537   C835    1.088   1_545 S
H538   C686    1.088   .     S
N539   N590    1.274   .     S
N539   H591    1.029   .     S
H542   N590    1.029   .     S
N545   O546    1.302   .     A
N545   O547    1.302   .     A
N548   O550    1.301   .     A
N548   O549    1.302   .     A
O551   C555    1.279   .     A
O551   Zn563   1.957   .     S
O552   C556    1.279   .     A
O552   Zn564   1.957   .     S
O553   C555    1.287   .     A
O553   Zn564   1.976   .     S
O554   C556    1.287   .     A
O554   Zn563   1.976   .     S
C555   C585    1.401   .     S
C556   C586    1.401   .     S
O557   C561    1.287   .     A
O557   Zn563   1.989   .     S
O558   C562    1.287   .     A
O558   Zn564   1.989   .     S
O559   Zn564   2.016   .     S
O559   C561    1.286   .     A
O560   C562    1.286   .     A
O560   Zn563   2.016   .     S
C561   C568    1.418   .     S
C562   C567    1.418   .     S
Zn563  N590    2.020   .     S
Zn564  N589    2.020   .     S
C565   H581    1.086   .     S
C565   C575    1.381   .     A
C565   C567    1.386   .     A
C566   H582    1.086   .     S
C566   C576    1.381   .     A
C566   C568    1.386   .     A
C567   C569    1.392   .     A
C568   C570    1.392   .     A
C569   C571    1.397   .     A
C569   F593    1.360   .     S
C570   F594    1.360   .     S
C570   C572    1.397   .     A
C571   C577    1.416   .     A
C571   C573    1.423   .     A
C572   C578    1.416   .     A
C572   C574    1.423   .     A
C573   C575    1.412   .     A
C574   C576    1.412   .     A
C574   C123    1.394   1_556 S
C575   C580    1.396   .     A
C576   C579    1.396   .     A
C577   N595    1.437   .     S
C578   N598    1.437   .     S
C578   C130    1.392   1_556 S
C579   H583    1.085   .     S
C579   C127    1.392   1_556 S
C580   H584    1.085   .     S
C585   C736    1.335   .     S
C585   H737    1.088   .     S
C586   C885    1.335   1_545 S
C586   H888    1.088   1_545 S
H587   C885    1.088   1_545 S
H588   C736    1.088   .     S
N589   N490    1.274   1_655 S
N589   H491    1.029   1_655 S
H592   N490    1.029   1_655 S
N595   O596    1.302   .     A
N595   O597    1.302   .     A
N598   O600    1.301   .     A
N598   O599    1.302   .     A
O601   C605    1.279   .     A
O601   Zn613   1.957   .     S
O602   C606    1.279   .     A
O602   Zn614   1.957   .     S
O603   C605    1.287   .     A
O603   Zn614   1.976   .     S
O604   C606    1.287   .     A
O604   Zn613   1.976   .     S
C605   C635    1.401   .     S
C606   C636    1.401   .     S
O607   C611    1.287   .     A
O607   Zn613   1.989   .     S
O608   C612    1.287   .     A
O608   Zn614   1.989   .     S
O609   Zn614   2.016   .     S
O609   C611    1.286   .     A
O610   C612    1.286   .     A
O610   Zn613   2.016   .     S
C611   C618    1.418   .     S
C612   C617    1.418   .     S
Zn613  N640    2.020   .     S
Zn614  N639    2.020   .     S
C615   H631    1.086   .     S
C615   C625    1.381   .     A
C615   C617    1.386   .     A
C616   H632    1.086   .     S
C616   C626    1.381   .     A
C616   C618    1.386   .     A
C617   C619    1.392   .     A
C618   C620    1.392   .     A
C619   C621    1.397   .     A
C619   F643    1.360   .     S
C620   F644    1.360   .     S
C620   C622    1.397   .     A
C621   C627    1.416   .     A
C621   C623    1.423   .     A
C622   C628    1.416   .     A
C622   C624    1.423   .     A
C623   C625    1.412   .     A
C624   C626    1.412   .     A
C624   C173    1.394   1_556 S
C625   C630    1.396   .     A
C626   C629    1.396   .     A
C627   N645    1.437   .     S
C628   N648    1.437   .     S
C628   C180    1.392   1_556 S
C629   H633    1.085   .     S
C629   C177    1.392   1_556 S
C630   H634    1.085   .     S
C635   C786    1.335   .     S
C635   H787    1.088   .     S
H638   C786    1.088   .     S
N639   N690    1.274   .     S
N639   H691    1.029   .     S
N640   N739    1.274   1_455 S
N640   H742    1.029   1_455 S
H641   N739    1.029   1_455 S
H642   N690    1.029   .     S
N645   O646    1.302   .     A
N645   O647    1.302   .     A
N648   O650    1.301   .     A
N648   O649    1.302   .     A
O651   C655    1.279   .     A
O651   Zn663   1.957   .     S
O652   C656    1.279   .     A
O652   Zn664   1.957   .     S
O653   C655    1.287   .     A
O653   Zn664   1.976   .     S
O654   C656    1.287   .     A
O654   Zn663   1.976   .     S
C655   C685    1.401   .     S
C656   C686    1.401   .     S
O657   C661    1.287   .     A
O657   Zn663   1.989   .     S
O658   C662    1.287   .     A
O658   Zn664   1.989   .     S
O659   Zn664   2.016   .     S
O659   C661    1.286   .     A
O660   C662    1.286   .     A
O660   Zn663   2.016   .     S
C661   C668    1.418   .     S
C662   C667    1.418   .     S
Zn663  N690    2.020   .     S
Zn664  N689    2.020   .     S
C665   H681    1.086   .     S
C665   C675    1.381   .     A
C665   C667    1.386   .     A
C666   H682    1.086   .     S
C666   C676    1.381   .     A
C666   C668    1.386   .     A
C667   C669    1.392   .     A
C668   C670    1.392   .     A
C669   C671    1.397   .     A
C669   F693    1.360   .     S
C670   F694    1.360   .     S
C670   C672    1.397   .     A
C671   C677    1.416   .     A
C671   C673    1.423   .     A
C672   C678    1.416   .     A
C672   C674    1.423   .     A
C673   C675    1.412   .     A
C674   C676    1.412   .     A
C674   C223    1.394   1_556 S
C675   C680    1.396   .     A
C676   C679    1.396   .     A
C677   N695    1.437   .     S
C678   N698    1.437   .     S
C678   C230    1.392   1_556 S
C679   H683    1.085   .     S
C679   C227    1.392   1_556 S
C680   H684    1.085   .     S
C685   C836    1.335   .     S
C685   H837    1.088   .     S
H688   C836    1.088   .     S
N689   N740    1.274   .     S
N689   H741    1.029   .     S
H692   N740    1.029   .     S
N695   O696    1.302   .     A
N695   O697    1.302   .     A
N698   O700    1.301   .     A
N698   O699    1.302   .     A
O701   C705    1.279   .     A
O701   Zn713   1.957   .     S
O702   C706    1.279   .     A
O702   Zn714   1.957   .     S
O703   C705    1.287   .     A
O703   Zn714   1.976   .     S
O704   C706    1.287   .     A
O704   Zn713   1.976   .     S
C705   C735    1.401   .     S
C706   C736    1.401   .     S
O707   C711    1.287   .     A
O707   Zn713   1.989   .     S
O708   C712    1.287   .     A
O708   Zn714   1.989   .     S
O709   Zn714   2.016   .     S
O709   C711    1.286   .     A
O710   C712    1.286   .     A
O710   Zn713   2.016   .     S
C711   C718    1.418   .     S
C712   C717    1.418   .     S
Zn713  N740    2.020   .     S
Zn714  N739    2.020   .     S
C715   H731    1.086   .     S
C715   C725    1.381   .     A
C715   C717    1.386   .     A
C716   H732    1.086   .     S
C716   C726    1.381   .     A
C716   C718    1.386   .     A
C717   C719    1.392   .     A
C718   C720    1.392   .     A
C719   C721    1.397   .     A
C719   F743    1.360   .     S
C720   F744    1.360   .     S
C720   C722    1.397   .     A
C721   C727    1.416   .     A
C721   C723    1.423   .     A
C722   C728    1.416   .     A
C722   C724    1.423   .     A
C723   C725    1.412   .     A
C724   C726    1.412   .     A
C724   C273    1.394   1_556 S
C725   C730    1.396   .     A
C726   C729    1.396   .     A
C727   N745    1.437   .     S
C728   N748    1.437   .     S
C728   C280    1.392   1_556 S
C729   H733    1.085   .     S
C729   C277    1.392   1_556 S
C730   H734    1.085   .     S
C735   C886    1.335   .     S
C735   H887    1.088   .     S
H738   C886    1.088   .     S
N739   N640    1.274   1_655 S
N739   H641    1.029   1_655 S
H742   N640    1.029   1_655 S
N745   O746    1.302   .     A
N745   O747    1.302   .     A
N748   O750    1.301   .     A
N748   O749    1.302   .     A
O751   C755    1.279   .     A
O751   Zn763   1.957   .     S
O752   C756    1.279   .     A
O752   Zn764   1.957   .     S
O753   C755    1.287   .     A
O753   Zn764   1.976   .     S
O754   C756    1.287   .     A
O754   Zn763   1.976   .     S
C755   C785    1.401   .     S
C756   C786    1.401   .     S
O757   C761    1.287   .     A
O757   Zn763   1.989   .     S
O758   C762    1.287   .     A
O758   Zn764   1.989   .     S
O759   Zn764   2.016   .     S
O759   C761    1.286   .     A
O760   C762    1.286   .     A
O760   Zn763   2.016   .     S
C761   C768    1.418   .     S
C762   C767    1.418   .     S
Zn763  N790    2.020   .     S
Zn764  N789    2.020   .     S
C765   H781    1.086   .     S
C765   C775    1.381   .     A
C765   C767    1.386   .     A
C766   H782    1.086   .     S
C766   C776    1.381   .     A
C766   C768    1.386   .     A
C767   C769    1.392   .     A
C768   C770    1.392   .     A
C769   C771    1.397   .     A
C769   F793    1.360   .     S
C770   F794    1.360   .     S
C770   C772    1.397   .     A
C771   C777    1.416   .     A
C771   C773    1.423   .     A
C772   C778    1.416   .     A
C772   C774    1.423   .     A
C773   C775    1.412   .     A
C774   C776    1.412   .     A
C774   C323    1.394   1_556 S
C775   C780    1.396   .     A
C776   C779    1.396   .     A
C777   N795    1.437   .     S
C778   N798    1.437   .     S
C778   C330    1.392   1_556 S
C779   H783    1.085   .     S
C779   C327    1.392   1_556 S
C780   H784    1.085   .     S
C785   C486    1.335   1_565 S
C785   H487    1.088   1_565 S
H788   C486    1.088   1_565 S
N789   N840    1.274   .     S
N789   H841    1.029   .     S
N790   N889    1.274   1_455 S
N790   H892    1.029   1_455 S
H791   N889    1.029   1_455 S
H792   N840    1.029   .     S
N795   O796    1.302   .     A
N795   O797    1.302   .     A
N798   O800    1.301   .     A
N798   O799    1.302   .     A
O801   C805    1.279   .     A
O801   Zn813   1.957   .     S
O802   C806    1.279   .     A
O802   Zn814   1.957   .     S
O803   C805    1.287   .     A
O803   Zn814   1.976   .     S
O804   C806    1.287   .     A
O804   Zn813   1.976   .     S
C805   C835    1.401   .     S
C806   C836    1.401   .     S
O807   C811    1.287   .     A
O807   Zn813   1.989   .     S
O808   C812    1.287   .     A
O808   Zn814   1.989   .     S
O809   Zn814   2.016   .     S
O809   C811    1.286   .     A
O810   C812    1.286   .     A
O810   Zn813   2.016   .     S
C811   C818    1.418   .     S
C812   C817    1.418   .     S
Zn813  N840    2.020   .     S
Zn814  N839    2.020   .     S
C815   H831    1.086   .     S
C815   C825    1.381   .     A
C815   C817    1.386   .     A
C816   H832    1.086   .     S
C816   C826    1.381   .     A
C816   C818    1.386   .     A
C817   C819    1.392   .     A
C818   C820    1.392   .     A
C819   C821    1.397   .     A
C819   F843    1.360   .     S
C820   F844    1.360   .     S
C820   C822    1.397   .     A
C821   C827    1.416   .     A
C821   C823    1.423   .     A
C822   C828    1.416   .     A
C822   C824    1.423   .     A
C823   C825    1.412   .     A
C824   C826    1.412   .     A
C824   C373    1.394   1_556 S
C825   C830    1.396   .     A
C826   C829    1.396   .     A
C827   N845    1.437   .     S
C828   N848    1.437   .     S
C828   C380    1.392   1_556 S
C829   H833    1.085   .     S
C829   C377    1.392   1_556 S
C830   H834    1.085   .     S
C835   C536    1.335   1_565 S
C835   H537    1.088   1_565 S
H838   C536    1.088   1_565 S
N839   N890    1.274   .     S
N839   H891    1.029   .     S
H842   N890    1.029   .     S
N845   O846    1.302   .     A
N845   O847    1.302   .     A
N848   O850    1.301   .     A
N848   O849    1.302   .     A
O851   C855    1.279   .     A
O851   Zn863   1.957   .     S
O852   C856    1.279   .     A
O852   Zn864   1.957   .     S
O853   C855    1.287   .     A
O853   Zn864   1.976   .     S
O854   C856    1.287   .     A
O854   Zn863   1.976   .     S
C855   C885    1.401   .     S
C856   C886    1.401   .     S
O857   C861    1.287   .     A
O857   Zn863   1.989   .     S
O858   C862    1.287   .     A
O858   Zn864   1.989   .     S
O859   Zn864   2.016   .     S
O859   C861    1.286   .     A
O860   C862    1.286   .     A
O860   Zn863   2.016   .     S
C861   C868    1.418   .     S
C862   C867    1.418   .     S
Zn863  N890    2.020   .     S
Zn864  N889    2.020   .     S
C865   H881    1.086   .     S
C865   C875    1.381   .     A
C865   C867    1.386   .     A
C866   H882    1.086   .     S
C866   C876    1.381   .     A
C866   C868    1.386   .     A
C867   C869    1.392   .     A
C868   C870    1.392   .     A
C869   C871    1.397   .     A
C869   F893    1.360   .     S
C870   F894    1.360   .     S
C870   C872    1.397   .     A
C871   C877    1.416   .     A
C871   C873    1.423   .     A
C872   C878    1.416   .     A
C872   C874    1.423   .     A
C873   C875    1.412   .     A
C874   C876    1.412   .     A
C874   C423    1.394   1_556 S
C875   C880    1.396   .     A
C876   C879    1.396   .     A
C877   N895    1.437   .     S
C878   N898    1.437   .     S
C878   C430    1.392   1_556 S
C879   H883    1.085   .     S
C879   C427    1.392   1_556 S
C880   H884    1.085   .     S
C885   C586    1.335   1_565 S
C885   H587    1.088   1_565 S
H888   C586    1.088   1_565 S
N889   N790    1.274   1_655 S
N889   H791    1.029   1_655 S
H892   N790    1.029   1_655 S
N895   O896    1.302   .     A
N895   O897    1.302   .     A
N898   O900    1.301   .     A
N898   O899    1.302   .     A
