data_str_m3_o10_o17_pcu_sym.87
_audit_creation_date              2020-01-03
_audit_creation_method            'Materials Studio'
_symmetry_space_group_name_H-M    'P1'
_symmetry_Int_Tables_number       1
_symmetry_cell_setting            triclinic
loop_
_symmetry_equiv_pos_as_xyz
  x,y,z
_cell_length_a                    23.3570
_cell_length_b                    25.8331
_cell_length_c                    29.7816
_cell_angle_alpha                 91.7165
_cell_angle_beta                  86.0196
_cell_angle_gamma                 93.2848
loop_
_atom_site_label
_atom_site_type_symbol
_atom_site_fract_x
_atom_site_fract_y
_atom_site_fract_z
_atom_site_U_iso_or_equiv
_atom_site_adp_type
_atom_site_occupancy
O1     O     0.12975   0.24619   0.25298   0.00000  Uiso   1.00
O2     O     0.20358   0.08714   0.24701   0.00000  Uiso   1.00
O3     O     0.22613   0.23721   0.24518   0.00000  Uiso   1.00
O4     O     0.10720   0.09613   0.25481   0.00000  Uiso   1.00
C5     C     0.18167   0.26471   0.24887   0.00000  Uiso   1.00
C6     C     0.15166   0.06862   0.25113   0.00000  Uiso   1.00
O7     O     0.11847   0.17117   0.31997   0.00000  Uiso   1.00
O8     O     0.21486   0.16216   0.18002   0.00000  Uiso   1.00
O9     O     0.21485   0.16219   0.31217   0.00000  Uiso   1.00
O10    O     0.11848   0.17115   0.18782   0.00000  Uiso   1.00
C11    C     0.16750   0.16677   0.33632   0.00000  Uiso   1.00
C12    C     0.16583   0.16656   0.16368   0.00000  Uiso   1.00
Zn13   Zn    0.10231   0.17266   0.25521   0.00000  Uiso   1.00
Zn14   Zn    0.23102   0.16067   0.24479   0.00000  Uiso   1.00
C15    C     0.13557   0.12679   0.09416   0.00000  Uiso   1.00
C16    C     0.19775   0.20655   0.40584   0.00000  Uiso   1.00
C17    C     0.16404   0.16762   0.11620   0.00000  Uiso   1.00
C18    C     0.16929   0.16572   0.38380   0.00000  Uiso   1.00
C19    C     0.19203   0.20896   0.09350   0.00000  Uiso   1.00
C20    C     0.14130   0.12438   0.40650   0.00000  Uiso   1.00
C21    C     0.19137   0.21049   0.04676   0.00000  Uiso   1.00
C22    C     0.14193   0.12286   0.45324   0.00000  Uiso   1.00
C23    C     0.16543   0.16736   0.02351   0.00000  Uiso   1.00
C24    C     0.16787   0.16599   0.47649   0.00000  Uiso   1.00
C25    C     0.13717   0.12548   0.04740   0.00000  Uiso   1.00
C26    C     0.19613   0.20787   0.45260   0.00000  Uiso   1.00
C27    C     0.21733   0.25292   0.02262   0.00000  Uiso   1.00
C28    C     0.11595   0.08044   0.47738   0.00000  Uiso   1.00
C29    C     0.22067   0.25076   0.47578   0.00000  Uiso   1.00
C30    C     0.11262   0.08260   0.02422   0.00000  Uiso   1.00
C31    C     0.18975   0.31879   0.24812   0.00000  Uiso   1.00
C32    C     0.14359   0.01455   0.25188   0.00000  Uiso   1.00
N33    N     0.31678   0.15265   0.23783   0.00000  Uiso   1.00
N34    N     0.01656   0.18068   0.26217   0.00000  Uiso   1.00
F35    F     0.10891   0.08759   0.11862   0.00000  Uiso   1.00
F36    F     0.22440   0.24575   0.38138   0.00000  Uiso   1.00
F37    F     0.22085   0.24636   0.11754   0.00000  Uiso   1.00
F38    F     0.11249   0.08697   0.38245   0.00000  Uiso   1.00
N39    N     0.23788   0.29960   0.04500   0.00000  Uiso   1.00
O40    O     0.20187   0.32765   0.06886   0.00000  Uiso   1.00
O41    O     0.29021   0.31818   0.03595   0.00000  Uiso   1.00
N42    N     0.09537   0.03377   0.45501   0.00000  Uiso   1.00
O43    O     0.13137   0.00566   0.43119   0.00000  Uiso   1.00
O44    O     0.04299   0.01526   0.46401   0.00000  Uiso   1.00
F45    F     0.24594   0.29193   0.45317   0.00000  Uiso   1.00
F46    F     0.08734   0.04143   0.04683   0.00000  Uiso   1.00
F47    F     0.24525   0.00519   0.24343   0.00000  Uiso   1.00
F48    F     0.08808   0.32814   0.25657   0.00000  Uiso   1.00
F49    F     0.01008   0.11977   0.20912   0.00000  Uiso   1.00
F50    F     0.32325   0.21356   0.29088   0.00000  Uiso   1.00
O51    O     0.46308   0.24619   0.25298   0.00000  Uiso   1.00
O52    O     0.53692   0.08714   0.24701   0.00000  Uiso   1.00
O53    O     0.55946   0.23721   0.24518   0.00000  Uiso   1.00
O54    O     0.44054   0.09613   0.25481   0.00000  Uiso   1.00
C55    C     0.51501   0.26471   0.24887   0.00000  Uiso   1.00
C56    C     0.48500   0.06862   0.25113   0.00000  Uiso   1.00
O57    O     0.45181   0.17117   0.31997   0.00000  Uiso   1.00
O58    O     0.54819   0.16216   0.18002   0.00000  Uiso   1.00
O59    O     0.54819   0.16219   0.31217   0.00000  Uiso   1.00
O60    O     0.45181   0.17115   0.18782   0.00000  Uiso   1.00
C61    C     0.50083   0.16677   0.33632   0.00000  Uiso   1.00
C62    C     0.49917   0.16656   0.16368   0.00000  Uiso   1.00
Zn63   Zn    0.43565   0.17266   0.25521   0.00000  Uiso   1.00
Zn64   Zn    0.56435   0.16067   0.24479   0.00000  Uiso   1.00
C65    C     0.46890   0.12679   0.09416   0.00000  Uiso   1.00
C66    C     0.53108   0.20655   0.40584   0.00000  Uiso   1.00
C67    C     0.49738   0.16762   0.11620   0.00000  Uiso   1.00
C68    C     0.50262   0.16572   0.38380   0.00000  Uiso   1.00
C69    C     0.52536   0.20896   0.09350   0.00000  Uiso   1.00
C70    C     0.47463   0.12438   0.40650   0.00000  Uiso   1.00
C71    C     0.52471   0.21049   0.04676   0.00000  Uiso   1.00
C72    C     0.47527   0.12286   0.45324   0.00000  Uiso   1.00
C73    C     0.49877   0.16736   0.02351   0.00000  Uiso   1.00
C74    C     0.50120   0.16599   0.47649   0.00000  Uiso   1.00
C75    C     0.47050   0.12548   0.04740   0.00000  Uiso   1.00
C76    C     0.52947   0.20787   0.45260   0.00000  Uiso   1.00
C77    C     0.55066   0.25292   0.02262   0.00000  Uiso   1.00
C78    C     0.44929   0.08044   0.47738   0.00000  Uiso   1.00
C79    C     0.55400   0.25076   0.47578   0.00000  Uiso   1.00
C80    C     0.44595   0.08260   0.02422   0.00000  Uiso   1.00
C81    C     0.52308   0.31879   0.24812   0.00000  Uiso   1.00
C82    C     0.47692   0.01455   0.25188   0.00000  Uiso   1.00
N83    N     0.65011   0.15265   0.23783   0.00000  Uiso   1.00
N84    N     0.34989   0.18068   0.26217   0.00000  Uiso   1.00
F85    F     0.44225   0.08759   0.11862   0.00000  Uiso   1.00
F86    F     0.55774   0.24575   0.38138   0.00000  Uiso   1.00
F87    F     0.55419   0.24636   0.11754   0.00000  Uiso   1.00
F88    F     0.44582   0.08697   0.38245   0.00000  Uiso   1.00
N89    N     0.57121   0.29960   0.04500   0.00000  Uiso   1.00
O90    O     0.53520   0.32765   0.06886   0.00000  Uiso   1.00
O91    O     0.62355   0.31818   0.03595   0.00000  Uiso   1.00
N92    N     0.42870   0.03377   0.45501   0.00000  Uiso   1.00
O93    O     0.46470   0.00566   0.43119   0.00000  Uiso   1.00
O94    O     0.37632   0.01526   0.46401   0.00000  Uiso   1.00
F95    F     0.57927   0.29193   0.45317   0.00000  Uiso   1.00
F96    F     0.42067   0.04143   0.04683   0.00000  Uiso   1.00
F97    F     0.57859   0.00519   0.24343   0.00000  Uiso   1.00
F98    F     0.42141   0.32814   0.25657   0.00000  Uiso   1.00
F99    F     0.34342   0.11977   0.20912   0.00000  Uiso   1.00
F100   F     0.65658   0.21356   0.29088   0.00000  Uiso   1.00
O101   O     0.79642   0.24619   0.25298   0.00000  Uiso   1.00
O102   O     0.87025   0.08714   0.24701   0.00000  Uiso   1.00
O103   O     0.89280   0.23721   0.24518   0.00000  Uiso   1.00
O104   O     0.77387   0.09613   0.25481   0.00000  Uiso   1.00
C105   C     0.84834   0.26471   0.24887   0.00000  Uiso   1.00
C106   C     0.81833   0.06862   0.25113   0.00000  Uiso   1.00
O107   O     0.78514   0.17117   0.31997   0.00000  Uiso   1.00
O108   O     0.88153   0.16216   0.18002   0.00000  Uiso   1.00
O109   O     0.88152   0.16219   0.31217   0.00000  Uiso   1.00
O110   O     0.78515   0.17115   0.18782   0.00000  Uiso   1.00
C111   C     0.83417   0.16677   0.33632   0.00000  Uiso   1.00
C112   C     0.83250   0.16656   0.16368   0.00000  Uiso   1.00
Zn113  Zn    0.76898   0.17266   0.25521   0.00000  Uiso   1.00
Zn114  Zn    0.89769   0.16067   0.24479   0.00000  Uiso   1.00
C115   C     0.80223   0.12679   0.09416   0.00000  Uiso   1.00
C116   C     0.86442   0.20655   0.40584   0.00000  Uiso   1.00
C117   C     0.83071   0.16762   0.11620   0.00000  Uiso   1.00
C118   C     0.83595   0.16572   0.38380   0.00000  Uiso   1.00
C119   C     0.85870   0.20896   0.09350   0.00000  Uiso   1.00
C120   C     0.80796   0.12438   0.40650   0.00000  Uiso   1.00
C121   C     0.85804   0.21049   0.04676   0.00000  Uiso   1.00
C122   C     0.80860   0.12286   0.45324   0.00000  Uiso   1.00
C123   C     0.83210   0.16736   0.02351   0.00000  Uiso   1.00
C124   C     0.83454   0.16599   0.47649   0.00000  Uiso   1.00
C125   C     0.80384   0.12548   0.04740   0.00000  Uiso   1.00
C126   C     0.86280   0.20787   0.45260   0.00000  Uiso   1.00
C127   C     0.88400   0.25292   0.02262   0.00000  Uiso   1.00
C128   C     0.78262   0.08044   0.47738   0.00000  Uiso   1.00
C129   C     0.88734   0.25076   0.47578   0.00000  Uiso   1.00
C130   C     0.77929   0.08260   0.02422   0.00000  Uiso   1.00
C131   C     0.85641   0.31879   0.24812   0.00000  Uiso   1.00
C132   C     0.81025   0.01455   0.25188   0.00000  Uiso   1.00
N133   N     0.98344   0.15265   0.23783   0.00000  Uiso   1.00
N134   N     0.68322   0.18068   0.26217   0.00000  Uiso   1.00
F135   F     0.77558   0.08759   0.11862   0.00000  Uiso   1.00
F136   F     0.89107   0.24575   0.38138   0.00000  Uiso   1.00
F137   F     0.88752   0.24636   0.11754   0.00000  Uiso   1.00
F138   F     0.77916   0.08697   0.38245   0.00000  Uiso   1.00
N139   N     0.90455   0.29960   0.04500   0.00000  Uiso   1.00
O140   O     0.86854   0.32765   0.06886   0.00000  Uiso   1.00
O141   O     0.95688   0.31818   0.03595   0.00000  Uiso   1.00
N142   N     0.76204   0.03377   0.45501   0.00000  Uiso   1.00
O143   O     0.79804   0.00566   0.43119   0.00000  Uiso   1.00
O144   O     0.70965   0.01526   0.46401   0.00000  Uiso   1.00
F145   F     0.91260   0.29193   0.45317   0.00000  Uiso   1.00
F146   F     0.75400   0.04143   0.04683   0.00000  Uiso   1.00
F147   F     0.91192   0.00519   0.24343   0.00000  Uiso   1.00
F148   F     0.75475   0.32814   0.25657   0.00000  Uiso   1.00
F149   F     0.67675   0.11977   0.20912   0.00000  Uiso   1.00
F150   F     0.98992   0.21356   0.29088   0.00000  Uiso   1.00
O151   O     0.12975   0.57952   0.25298   0.00000  Uiso   1.00
O152   O     0.20358   0.42048   0.24701   0.00000  Uiso   1.00
O153   O     0.22613   0.57054   0.24518   0.00000  Uiso   1.00
O154   O     0.10720   0.42946   0.25481   0.00000  Uiso   1.00
C155   C     0.18167   0.59804   0.24887   0.00000  Uiso   1.00
C156   C     0.15166   0.40196   0.25113   0.00000  Uiso   1.00
O157   O     0.11847   0.50450   0.31997   0.00000  Uiso   1.00
O158   O     0.21486   0.49550   0.18002   0.00000  Uiso   1.00
O159   O     0.21485   0.49552   0.31217   0.00000  Uiso   1.00
O160   O     0.11848   0.50448   0.18782   0.00000  Uiso   1.00
C161   C     0.16750   0.50010   0.33632   0.00000  Uiso   1.00
C162   C     0.16583   0.49990   0.16368   0.00000  Uiso   1.00
Zn163  Zn    0.10231   0.50600   0.25521   0.00000  Uiso   1.00
Zn164  Zn    0.23102   0.49400   0.24479   0.00000  Uiso   1.00
C165   C     0.13557   0.46013   0.09416   0.00000  Uiso   1.00
C166   C     0.19775   0.53988   0.40584   0.00000  Uiso   1.00
C167   C     0.16404   0.50095   0.11620   0.00000  Uiso   1.00
C168   C     0.16929   0.49905   0.38380   0.00000  Uiso   1.00
C169   C     0.19203   0.54229   0.09350   0.00000  Uiso   1.00
C170   C     0.14130   0.45771   0.40650   0.00000  Uiso   1.00
C171   C     0.19137   0.54382   0.04676   0.00000  Uiso   1.00
C172   C     0.14193   0.45619   0.45324   0.00000  Uiso   1.00
C173   C     0.16543   0.50069   0.02351   0.00000  Uiso   1.00
C174   C     0.16787   0.49932   0.47649   0.00000  Uiso   1.00
C175   C     0.13717   0.45881   0.04740   0.00000  Uiso   1.00
C176   C     0.19613   0.54120   0.45260   0.00000  Uiso   1.00
C177   C     0.21733   0.58625   0.02262   0.00000  Uiso   1.00
C178   C     0.11595   0.41377   0.47738   0.00000  Uiso   1.00
C179   C     0.22067   0.58409   0.47578   0.00000  Uiso   1.00
C180   C     0.11262   0.41593   0.02422   0.00000  Uiso   1.00
C181   C     0.18975   0.65212   0.24812   0.00000  Uiso   1.00
C182   C     0.14359   0.34788   0.25188   0.00000  Uiso   1.00
N183   N     0.31678   0.48598   0.23783   0.00000  Uiso   1.00
N184   N     0.01656   0.51402   0.26217   0.00000  Uiso   1.00
F185   F     0.10891   0.42092   0.11862   0.00000  Uiso   1.00
F186   F     0.22440   0.57908   0.38138   0.00000  Uiso   1.00
F187   F     0.22085   0.57969   0.11754   0.00000  Uiso   1.00
F188   F     0.11249   0.42030   0.38245   0.00000  Uiso   1.00
N189   N     0.23788   0.63293   0.04500   0.00000  Uiso   1.00
O190   O     0.20187   0.66098   0.06886   0.00000  Uiso   1.00
O191   O     0.29021   0.65151   0.03595   0.00000  Uiso   1.00
N192   N     0.09537   0.36711   0.45501   0.00000  Uiso   1.00
O193   O     0.13137   0.33899   0.43119   0.00000  Uiso   1.00
O194   O     0.04299   0.34860   0.46401   0.00000  Uiso   1.00
F195   F     0.24594   0.62526   0.45317   0.00000  Uiso   1.00
F196   F     0.08734   0.37476   0.04683   0.00000  Uiso   1.00
F197   F     0.24525   0.33853   0.24343   0.00000  Uiso   1.00
F198   F     0.08808   0.66147   0.25657   0.00000  Uiso   1.00
F199   F     0.01008   0.45310   0.20912   0.00000  Uiso   1.00
F200   F     0.32325   0.54690   0.29088   0.00000  Uiso   1.00
O201   O     0.46308   0.57952   0.25298   0.00000  Uiso   1.00
O202   O     0.53692   0.42048   0.24701   0.00000  Uiso   1.00
O203   O     0.55946   0.57054   0.24518   0.00000  Uiso   1.00
O204   O     0.44054   0.42946   0.25481   0.00000  Uiso   1.00
C205   C     0.51501   0.59804   0.24887   0.00000  Uiso   1.00
C206   C     0.48500   0.40196   0.25113   0.00000  Uiso   1.00
O207   O     0.45181   0.50450   0.31997   0.00000  Uiso   1.00
O208   O     0.54819   0.49550   0.18002   0.00000  Uiso   1.00
O209   O     0.54819   0.49552   0.31217   0.00000  Uiso   1.00
O210   O     0.45181   0.50448   0.18782   0.00000  Uiso   1.00
C211   C     0.50083   0.50010   0.33632   0.00000  Uiso   1.00
C212   C     0.49917   0.49990   0.16368   0.00000  Uiso   1.00
Zn213  Zn    0.43565   0.50600   0.25521   0.00000  Uiso   1.00
Zn214  Zn    0.56435   0.49400   0.24479   0.00000  Uiso   1.00
C215   C     0.46890   0.46013   0.09416   0.00000  Uiso   1.00
C216   C     0.53108   0.53988   0.40584   0.00000  Uiso   1.00
C217   C     0.49738   0.50095   0.11620   0.00000  Uiso   1.00
C218   C     0.50262   0.49905   0.38380   0.00000  Uiso   1.00
C219   C     0.52536   0.54229   0.09350   0.00000  Uiso   1.00
C220   C     0.47463   0.45771   0.40650   0.00000  Uiso   1.00
C221   C     0.52471   0.54382   0.04676   0.00000  Uiso   1.00
C222   C     0.47527   0.45619   0.45324   0.00000  Uiso   1.00
C223   C     0.49877   0.50069   0.02351   0.00000  Uiso   1.00
C224   C     0.50120   0.49932   0.47649   0.00000  Uiso   1.00
C225   C     0.47050   0.45881   0.04740   0.00000  Uiso   1.00
C226   C     0.52947   0.54120   0.45260   0.00000  Uiso   1.00
C227   C     0.55066   0.58625   0.02262   0.00000  Uiso   1.00
C228   C     0.44929   0.41377   0.47738   0.00000  Uiso   1.00
C229   C     0.55400   0.58409   0.47578   0.00000  Uiso   1.00
C230   C     0.44595   0.41593   0.02422   0.00000  Uiso   1.00
C231   C     0.52308   0.65212   0.24812   0.00000  Uiso   1.00
C232   C     0.47692   0.34788   0.25188   0.00000  Uiso   1.00
N233   N     0.65011   0.48598   0.23783   0.00000  Uiso   1.00
N234   N     0.34989   0.51402   0.26217   0.00000  Uiso   1.00
F235   F     0.44225   0.42092   0.11862   0.00000  Uiso   1.00
F236   F     0.55774   0.57908   0.38138   0.00000  Uiso   1.00
F237   F     0.55419   0.57969   0.11754   0.00000  Uiso   1.00
F238   F     0.44582   0.42030   0.38245   0.00000  Uiso   1.00
N239   N     0.57121   0.63293   0.04500   0.00000  Uiso   1.00
O240   O     0.53520   0.66098   0.06886   0.00000  Uiso   1.00
O241   O     0.62355   0.65151   0.03595   0.00000  Uiso   1.00
N242   N     0.42870   0.36711   0.45501   0.00000  Uiso   1.00
O243   O     0.46470   0.33899   0.43119   0.00000  Uiso   1.00
O244   O     0.37632   0.34860   0.46401   0.00000  Uiso   1.00
F245   F     0.57927   0.62526   0.45317   0.00000  Uiso   1.00
F246   F     0.42067   0.37476   0.04683   0.00000  Uiso   1.00
F247   F     0.57859   0.33853   0.24343   0.00000  Uiso   1.00
F248   F     0.42141   0.66147   0.25657   0.00000  Uiso   1.00
F249   F     0.34342   0.45310   0.20912   0.00000  Uiso   1.00
F250   F     0.65658   0.54690   0.29088   0.00000  Uiso   1.00
O251   O     0.79642   0.57952   0.25298   0.00000  Uiso   1.00
O252   O     0.87025   0.42048   0.24701   0.00000  Uiso   1.00
O253   O     0.89280   0.57054   0.24518   0.00000  Uiso   1.00
O254   O     0.77387   0.42946   0.25481   0.00000  Uiso   1.00
C255   C     0.84834   0.59804   0.24887   0.00000  Uiso   1.00
C256   C     0.81833   0.40196   0.25113   0.00000  Uiso   1.00
O257   O     0.78514   0.50450   0.31997   0.00000  Uiso   1.00
O258   O     0.88153   0.49550   0.18002   0.00000  Uiso   1.00
O259   O     0.88152   0.49552   0.31217   0.00000  Uiso   1.00
O260   O     0.78515   0.50448   0.18782   0.00000  Uiso   1.00
C261   C     0.83417   0.50010   0.33632   0.00000  Uiso   1.00
C262   C     0.83250   0.49990   0.16368   0.00000  Uiso   1.00
Zn263  Zn    0.76898   0.50600   0.25521   0.00000  Uiso   1.00
Zn264  Zn    0.89769   0.49400   0.24479   0.00000  Uiso   1.00
C265   C     0.80223   0.46013   0.09416   0.00000  Uiso   1.00
C266   C     0.86442   0.53988   0.40584   0.00000  Uiso   1.00
C267   C     0.83071   0.50095   0.11620   0.00000  Uiso   1.00
C268   C     0.83595   0.49905   0.38380   0.00000  Uiso   1.00
C269   C     0.85870   0.54229   0.09350   0.00000  Uiso   1.00
C270   C     0.80796   0.45771   0.40650   0.00000  Uiso   1.00
C271   C     0.85804   0.54382   0.04676   0.00000  Uiso   1.00
C272   C     0.80860   0.45619   0.45324   0.00000  Uiso   1.00
C273   C     0.83210   0.50069   0.02351   0.00000  Uiso   1.00
C274   C     0.83454   0.49932   0.47649   0.00000  Uiso   1.00
C275   C     0.80384   0.45881   0.04740   0.00000  Uiso   1.00
C276   C     0.86280   0.54120   0.45260   0.00000  Uiso   1.00
C277   C     0.88400   0.58625   0.02262   0.00000  Uiso   1.00
C278   C     0.78262   0.41377   0.47738   0.00000  Uiso   1.00
C279   C     0.88734   0.58409   0.47578   0.00000  Uiso   1.00
C280   C     0.77929   0.41593   0.02422   0.00000  Uiso   1.00
C281   C     0.85641   0.65212   0.24812   0.00000  Uiso   1.00
C282   C     0.81025   0.34788   0.25188   0.00000  Uiso   1.00
N283   N     0.98344   0.48598   0.23783   0.00000  Uiso   1.00
N284   N     0.68322   0.51402   0.26217   0.00000  Uiso   1.00
F285   F     0.77558   0.42092   0.11862   0.00000  Uiso   1.00
F286   F     0.89107   0.57908   0.38138   0.00000  Uiso   1.00
F287   F     0.88752   0.57969   0.11754   0.00000  Uiso   1.00
F288   F     0.77916   0.42030   0.38245   0.00000  Uiso   1.00
N289   N     0.90455   0.63293   0.04500   0.00000  Uiso   1.00
O290   O     0.86854   0.66098   0.06886   0.00000  Uiso   1.00
O291   O     0.95688   0.65151   0.03595   0.00000  Uiso   1.00
N292   N     0.76204   0.36711   0.45501   0.00000  Uiso   1.00
O293   O     0.79804   0.33899   0.43119   0.00000  Uiso   1.00
O294   O     0.70965   0.34860   0.46401   0.00000  Uiso   1.00
F295   F     0.91260   0.62526   0.45317   0.00000  Uiso   1.00
F296   F     0.75400   0.37476   0.04683   0.00000  Uiso   1.00
F297   F     0.91192   0.33853   0.24343   0.00000  Uiso   1.00
F298   F     0.75475   0.66147   0.25657   0.00000  Uiso   1.00
F299   F     0.67675   0.45310   0.20912   0.00000  Uiso   1.00
F300   F     0.98992   0.54690   0.29088   0.00000  Uiso   1.00
O301   O     0.12975   0.91286   0.25298   0.00000  Uiso   1.00
O302   O     0.20358   0.75381   0.24701   0.00000  Uiso   1.00
O303   O     0.22613   0.90387   0.24518   0.00000  Uiso   1.00
O304   O     0.10720   0.76279   0.25481   0.00000  Uiso   1.00
C305   C     0.18167   0.93138   0.24887   0.00000  Uiso   1.00
C306   C     0.15166   0.73529   0.25113   0.00000  Uiso   1.00
O307   O     0.11847   0.83784   0.31997   0.00000  Uiso   1.00
O308   O     0.21486   0.82883   0.18002   0.00000  Uiso   1.00
O309   O     0.21485   0.82885   0.31217   0.00000  Uiso   1.00
O310   O     0.11848   0.83781   0.18782   0.00000  Uiso   1.00
C311   C     0.16750   0.83344   0.33632   0.00000  Uiso   1.00
C312   C     0.16583   0.83323   0.16368   0.00000  Uiso   1.00
Zn313  Zn    0.10231   0.83933   0.25521   0.00000  Uiso   1.00
Zn314  Zn    0.23102   0.82734   0.24479   0.00000  Uiso   1.00
C315   C     0.13557   0.79346   0.09416   0.00000  Uiso   1.00
C316   C     0.19775   0.87322   0.40584   0.00000  Uiso   1.00
C317   C     0.16404   0.83428   0.11620   0.00000  Uiso   1.00
C318   C     0.16929   0.83239   0.38380   0.00000  Uiso   1.00
C319   C     0.19203   0.87562   0.09350   0.00000  Uiso   1.00
C320   C     0.14130   0.79105   0.40650   0.00000  Uiso   1.00
C321   C     0.19137   0.87716   0.04676   0.00000  Uiso   1.00
C322   C     0.14193   0.78952   0.45324   0.00000  Uiso   1.00
C323   C     0.16543   0.83403   0.02351   0.00000  Uiso   1.00
C324   C     0.16787   0.83266   0.47649   0.00000  Uiso   1.00
C325   C     0.13717   0.79215   0.04740   0.00000  Uiso   1.00
C326   C     0.19613   0.87454   0.45260   0.00000  Uiso   1.00
C327   C     0.21733   0.91958   0.02262   0.00000  Uiso   1.00
C328   C     0.11595   0.74711   0.47738   0.00000  Uiso   1.00
C329   C     0.22067   0.91742   0.47578   0.00000  Uiso   1.00
C330   C     0.11262   0.74926   0.02422   0.00000  Uiso   1.00
C331   C     0.18975   0.98545   0.24812   0.00000  Uiso   1.00
C332   C     0.14359   0.68121   0.25188   0.00000  Uiso   1.00
N333   N     0.31678   0.81932   0.23783   0.00000  Uiso   1.00
N334   N     0.01656   0.84735   0.26217   0.00000  Uiso   1.00
F335   F     0.10891   0.75426   0.11862   0.00000  Uiso   1.00
F336   F     0.22440   0.91242   0.38138   0.00000  Uiso   1.00
F337   F     0.22085   0.91302   0.11754   0.00000  Uiso   1.00
F338   F     0.11249   0.75364   0.38245   0.00000  Uiso   1.00
N339   N     0.23788   0.96626   0.04500   0.00000  Uiso   1.00
O340   O     0.20187   0.99432   0.06886   0.00000  Uiso   1.00
O341   O     0.29021   0.98485   0.03595   0.00000  Uiso   1.00
N342   N     0.09537   0.70044   0.45501   0.00000  Uiso   1.00
O343   O     0.13137   0.67232   0.43119   0.00000  Uiso   1.00
O344   O     0.04299   0.68193   0.46401   0.00000  Uiso   1.00
F345   F     0.24594   0.95860   0.45317   0.00000  Uiso   1.00
F346   F     0.08734   0.70810   0.04683   0.00000  Uiso   1.00
F347   F     0.24525   0.67186   0.24343   0.00000  Uiso   1.00
F348   F     0.08808   0.99481   0.25657   0.00000  Uiso   1.00
F349   F     0.01008   0.78644   0.20912   0.00000  Uiso   1.00
F350   F     0.32325   0.88023   0.29088   0.00000  Uiso   1.00
O351   O     0.46308   0.91286   0.25298   0.00000  Uiso   1.00
O352   O     0.53692   0.75381   0.24701   0.00000  Uiso   1.00
O353   O     0.55946   0.90387   0.24518   0.00000  Uiso   1.00
O354   O     0.44054   0.76279   0.25481   0.00000  Uiso   1.00
C355   C     0.51501   0.93138   0.24887   0.00000  Uiso   1.00
C356   C     0.48500   0.73529   0.25113   0.00000  Uiso   1.00
O357   O     0.45181   0.83784   0.31997   0.00000  Uiso   1.00
O358   O     0.54819   0.82883   0.18002   0.00000  Uiso   1.00
O359   O     0.54819   0.82885   0.31217   0.00000  Uiso   1.00
O360   O     0.45181   0.83781   0.18782   0.00000  Uiso   1.00
C361   C     0.50083   0.83344   0.33632   0.00000  Uiso   1.00
C362   C     0.49917   0.83323   0.16368   0.00000  Uiso   1.00
Zn363  Zn    0.43565   0.83933   0.25521   0.00000  Uiso   1.00
Zn364  Zn    0.56435   0.82734   0.24479   0.00000  Uiso   1.00
C365   C     0.46890   0.79346   0.09416   0.00000  Uiso   1.00
C366   C     0.53108   0.87322   0.40584   0.00000  Uiso   1.00
C367   C     0.49738   0.83428   0.11620   0.00000  Uiso   1.00
C368   C     0.50262   0.83239   0.38380   0.00000  Uiso   1.00
C369   C     0.52536   0.87562   0.09350   0.00000  Uiso   1.00
C370   C     0.47463   0.79105   0.40650   0.00000  Uiso   1.00
C371   C     0.52471   0.87716   0.04676   0.00000  Uiso   1.00
C372   C     0.47527   0.78952   0.45324   0.00000  Uiso   1.00
C373   C     0.49877   0.83403   0.02351   0.00000  Uiso   1.00
C374   C     0.50120   0.83266   0.47649   0.00000  Uiso   1.00
C375   C     0.47050   0.79215   0.04740   0.00000  Uiso   1.00
C376   C     0.52947   0.87454   0.45260   0.00000  Uiso   1.00
C377   C     0.55066   0.91958   0.02262   0.00000  Uiso   1.00
C378   C     0.44929   0.74711   0.47738   0.00000  Uiso   1.00
C379   C     0.55400   0.91742   0.47578   0.00000  Uiso   1.00
C380   C     0.44595   0.74926   0.02422   0.00000  Uiso   1.00
C381   C     0.52308   0.98545   0.24812   0.00000  Uiso   1.00
C382   C     0.47692   0.68121   0.25188   0.00000  Uiso   1.00
N383   N     0.65011   0.81932   0.23783   0.00000  Uiso   1.00
N384   N     0.34989   0.84735   0.26217   0.00000  Uiso   1.00
F385   F     0.44225   0.75426   0.11862   0.00000  Uiso   1.00
F386   F     0.55774   0.91242   0.38138   0.00000  Uiso   1.00
F387   F     0.55419   0.91302   0.11754   0.00000  Uiso   1.00
F388   F     0.44582   0.75364   0.38245   0.00000  Uiso   1.00
N389   N     0.57121   0.96626   0.04500   0.00000  Uiso   1.00
O390   O     0.53520   0.99432   0.06886   0.00000  Uiso   1.00
O391   O     0.62355   0.98485   0.03595   0.00000  Uiso   1.00
N392   N     0.42870   0.70044   0.45501   0.00000  Uiso   1.00
O393   O     0.46470   0.67232   0.43119   0.00000  Uiso   1.00
O394   O     0.37632   0.68193   0.46401   0.00000  Uiso   1.00
F395   F     0.57927   0.95860   0.45317   0.00000  Uiso   1.00
F396   F     0.42067   0.70810   0.04683   0.00000  Uiso   1.00
F397   F     0.57859   0.67186   0.24343   0.00000  Uiso   1.00
F398   F     0.42141   0.99481   0.25657   0.00000  Uiso   1.00
F399   F     0.34342   0.78644   0.20912   0.00000  Uiso   1.00
F400   F     0.65658   0.88023   0.29088   0.00000  Uiso   1.00
O401   O     0.79642   0.91286   0.25298   0.00000  Uiso   1.00
O402   O     0.87025   0.75381   0.24701   0.00000  Uiso   1.00
O403   O     0.89280   0.90387   0.24518   0.00000  Uiso   1.00
O404   O     0.77387   0.76279   0.25481   0.00000  Uiso   1.00
C405   C     0.84834   0.93138   0.24887   0.00000  Uiso   1.00
C406   C     0.81833   0.73529   0.25113   0.00000  Uiso   1.00
O407   O     0.78514   0.83784   0.31997   0.00000  Uiso   1.00
O408   O     0.88153   0.82883   0.18002   0.00000  Uiso   1.00
O409   O     0.88152   0.82885   0.31217   0.00000  Uiso   1.00
O410   O     0.78515   0.83781   0.18782   0.00000  Uiso   1.00
C411   C     0.83417   0.83344   0.33632   0.00000  Uiso   1.00
C412   C     0.83250   0.83323   0.16368   0.00000  Uiso   1.00
Zn413  Zn    0.76898   0.83933   0.25521   0.00000  Uiso   1.00
Zn414  Zn    0.89769   0.82734   0.24479   0.00000  Uiso   1.00
C415   C     0.80223   0.79346   0.09416   0.00000  Uiso   1.00
C416   C     0.86442   0.87322   0.40584   0.00000  Uiso   1.00
C417   C     0.83071   0.83428   0.11620   0.00000  Uiso   1.00
C418   C     0.83595   0.83239   0.38380   0.00000  Uiso   1.00
C419   C     0.85870   0.87562   0.09350   0.00000  Uiso   1.00
C420   C     0.80796   0.79105   0.40650   0.00000  Uiso   1.00
C421   C     0.85804   0.87716   0.04676   0.00000  Uiso   1.00
C422   C     0.80860   0.78952   0.45324   0.00000  Uiso   1.00
C423   C     0.83210   0.83403   0.02351   0.00000  Uiso   1.00
C424   C     0.83454   0.83266   0.47649   0.00000  Uiso   1.00
C425   C     0.80384   0.79215   0.04740   0.00000  Uiso   1.00
C426   C     0.86280   0.87454   0.45260   0.00000  Uiso   1.00
C427   C     0.88400   0.91958   0.02262   0.00000  Uiso   1.00
C428   C     0.78262   0.74711   0.47738   0.00000  Uiso   1.00
C429   C     0.88734   0.91742   0.47578   0.00000  Uiso   1.00
C430   C     0.77929   0.74926   0.02422   0.00000  Uiso   1.00
C431   C     0.85641   0.98545   0.24812   0.00000  Uiso   1.00
C432   C     0.81025   0.68121   0.25188   0.00000  Uiso   1.00
N433   N     0.98344   0.81932   0.23783   0.00000  Uiso   1.00
N434   N     0.68322   0.84735   0.26217   0.00000  Uiso   1.00
F435   F     0.77558   0.75426   0.11862   0.00000  Uiso   1.00
F436   F     0.89107   0.91242   0.38138   0.00000  Uiso   1.00
F437   F     0.88752   0.91302   0.11754   0.00000  Uiso   1.00
F438   F     0.77916   0.75364   0.38245   0.00000  Uiso   1.00
N439   N     0.90455   0.96626   0.04500   0.00000  Uiso   1.00
O440   O     0.86854   0.99432   0.06886   0.00000  Uiso   1.00
O441   O     0.95688   0.98485   0.03595   0.00000  Uiso   1.00
N442   N     0.76204   0.70044   0.45501   0.00000  Uiso   1.00
O443   O     0.79804   0.67232   0.43119   0.00000  Uiso   1.00
O444   O     0.70965   0.68193   0.46401   0.00000  Uiso   1.00
F445   F     0.91260   0.95860   0.45317   0.00000  Uiso   1.00
F446   F     0.75400   0.70810   0.04683   0.00000  Uiso   1.00
F447   F     0.91192   0.67186   0.24343   0.00000  Uiso   1.00
F448   F     0.75475   0.99481   0.25657   0.00000  Uiso   1.00
F449   F     0.67675   0.78644   0.20912   0.00000  Uiso   1.00
F450   F     0.98992   0.88023   0.29088   0.00000  Uiso   1.00
O451   O     0.12975   0.24619   0.75298   0.00000  Uiso   1.00
O452   O     0.20358   0.08714   0.74701   0.00000  Uiso   1.00
O453   O     0.22613   0.23721   0.74518   0.00000  Uiso   1.00
O454   O     0.10720   0.09613   0.75481   0.00000  Uiso   1.00
C455   C     0.18167   0.26471   0.74887   0.00000  Uiso   1.00
C456   C     0.15166   0.06862   0.75113   0.00000  Uiso   1.00
O457   O     0.11847   0.17117   0.81997   0.00000  Uiso   1.00
O458   O     0.21486   0.16216   0.68002   0.00000  Uiso   1.00
O459   O     0.21485   0.16219   0.81217   0.00000  Uiso   1.00
O460   O     0.11848   0.17115   0.68782   0.00000  Uiso   1.00
C461   C     0.16750   0.16677   0.83632   0.00000  Uiso   1.00
C462   C     0.16583   0.16656   0.66368   0.00000  Uiso   1.00
Zn463  Zn    0.10231   0.17266   0.75521   0.00000  Uiso   1.00
Zn464  Zn    0.23102   0.16067   0.74479   0.00000  Uiso   1.00
C465   C     0.13557   0.12679   0.59416   0.00000  Uiso   1.00
C466   C     0.19775   0.20655   0.90584   0.00000  Uiso   1.00
C467   C     0.16404   0.16762   0.61620   0.00000  Uiso   1.00
C468   C     0.16929   0.16572   0.88380   0.00000  Uiso   1.00
C469   C     0.19203   0.20896   0.59350   0.00000  Uiso   1.00
C470   C     0.14130   0.12438   0.90650   0.00000  Uiso   1.00
C471   C     0.19137   0.21049   0.54676   0.00000  Uiso   1.00
C472   C     0.14193   0.12286   0.95324   0.00000  Uiso   1.00
C473   C     0.16543   0.16736   0.52351   0.00000  Uiso   1.00
C474   C     0.16787   0.16599   0.97649   0.00000  Uiso   1.00
C475   C     0.13717   0.12548   0.54740   0.00000  Uiso   1.00
C476   C     0.19613   0.20787   0.95260   0.00000  Uiso   1.00
C477   C     0.21733   0.25292   0.52262   0.00000  Uiso   1.00
C478   C     0.11595   0.08044   0.97738   0.00000  Uiso   1.00
C479   C     0.22067   0.25076   0.97578   0.00000  Uiso   1.00
C480   C     0.11262   0.08260   0.52422   0.00000  Uiso   1.00
C481   C     0.18975   0.31879   0.74812   0.00000  Uiso   1.00
C482   C     0.14359   0.01455   0.75188   0.00000  Uiso   1.00
N483   N     0.31678   0.15265   0.73783   0.00000  Uiso   1.00
N484   N     0.01656   0.18068   0.76217   0.00000  Uiso   1.00
F485   F     0.10891   0.08759   0.61862   0.00000  Uiso   1.00
F486   F     0.22440   0.24575   0.88138   0.00000  Uiso   1.00
F487   F     0.22085   0.24636   0.61754   0.00000  Uiso   1.00
F488   F     0.11249   0.08697   0.88245   0.00000  Uiso   1.00
N489   N     0.23788   0.29960   0.54500   0.00000  Uiso   1.00
O490   O     0.20187   0.32765   0.56886   0.00000  Uiso   1.00
O491   O     0.29021   0.31818   0.53595   0.00000  Uiso   1.00
N492   N     0.09537   0.03377   0.95501   0.00000  Uiso   1.00
O493   O     0.13137   0.00566   0.93119   0.00000  Uiso   1.00
O494   O     0.04299   0.01526   0.96401   0.00000  Uiso   1.00
F495   F     0.24594   0.29193   0.95317   0.00000  Uiso   1.00
F496   F     0.08734   0.04143   0.54683   0.00000  Uiso   1.00
F497   F     0.24525   0.00519   0.74343   0.00000  Uiso   1.00
F498   F     0.08808   0.32814   0.75657   0.00000  Uiso   1.00
F499   F     0.01008   0.11977   0.70912   0.00000  Uiso   1.00
F500   F     0.32325   0.21356   0.79088   0.00000  Uiso   1.00
O501   O     0.46308   0.24619   0.75298   0.00000  Uiso   1.00
O502   O     0.53692   0.08714   0.74701   0.00000  Uiso   1.00
O503   O     0.55946   0.23721   0.74518   0.00000  Uiso   1.00
O504   O     0.44054   0.09613   0.75481   0.00000  Uiso   1.00
C505   C     0.51501   0.26471   0.74887   0.00000  Uiso   1.00
C506   C     0.48500   0.06862   0.75113   0.00000  Uiso   1.00
O507   O     0.45181   0.17117   0.81997   0.00000  Uiso   1.00
O508   O     0.54819   0.16216   0.68002   0.00000  Uiso   1.00
O509   O     0.54819   0.16219   0.81217   0.00000  Uiso   1.00
O510   O     0.45181   0.17115   0.68782   0.00000  Uiso   1.00
C511   C     0.50083   0.16677   0.83632   0.00000  Uiso   1.00
C512   C     0.49917   0.16656   0.66368   0.00000  Uiso   1.00
Zn513  Zn    0.43565   0.17266   0.75521   0.00000  Uiso   1.00
Zn514  Zn    0.56435   0.16067   0.74479   0.00000  Uiso   1.00
C515   C     0.46890   0.12679   0.59416   0.00000  Uiso   1.00
C516   C     0.53108   0.20655   0.90584   0.00000  Uiso   1.00
C517   C     0.49738   0.16762   0.61620   0.00000  Uiso   1.00
C518   C     0.50262   0.16572   0.88380   0.00000  Uiso   1.00
C519   C     0.52536   0.20896   0.59350   0.00000  Uiso   1.00
C520   C     0.47463   0.12438   0.90650   0.00000  Uiso   1.00
C521   C     0.52471   0.21049   0.54676   0.00000  Uiso   1.00
C522   C     0.47527   0.12286   0.95324   0.00000  Uiso   1.00
C523   C     0.49877   0.16736   0.52351   0.00000  Uiso   1.00
C524   C     0.50120   0.16599   0.97649   0.00000  Uiso   1.00
C525   C     0.47050   0.12548   0.54740   0.00000  Uiso   1.00
C526   C     0.52947   0.20787   0.95260   0.00000  Uiso   1.00
C527   C     0.55066   0.25292   0.52262   0.00000  Uiso   1.00
C528   C     0.44929   0.08044   0.97738   0.00000  Uiso   1.00
C529   C     0.55400   0.25076   0.97578   0.00000  Uiso   1.00
C530   C     0.44595   0.08260   0.52422   0.00000  Uiso   1.00
C531   C     0.52308   0.31879   0.74812   0.00000  Uiso   1.00
C532   C     0.47692   0.01455   0.75188   0.00000  Uiso   1.00
N533   N     0.65011   0.15265   0.73783   0.00000  Uiso   1.00
N534   N     0.34989   0.18068   0.76217   0.00000  Uiso   1.00
F535   F     0.44225   0.08759   0.61862   0.00000  Uiso   1.00
F536   F     0.55774   0.24575   0.88138   0.00000  Uiso   1.00
F537   F     0.55419   0.24636   0.61754   0.00000  Uiso   1.00
F538   F     0.44582   0.08697   0.88245   0.00000  Uiso   1.00
N539   N     0.57121   0.29960   0.54500   0.00000  Uiso   1.00
O540   O     0.53520   0.32765   0.56886   0.00000  Uiso   1.00
O541   O     0.62355   0.31818   0.53595   0.00000  Uiso   1.00
N542   N     0.42870   0.03377   0.95501   0.00000  Uiso   1.00
O543   O     0.46470   0.00566   0.93119   0.00000  Uiso   1.00
O544   O     0.37632   0.01526   0.96401   0.00000  Uiso   1.00
F545   F     0.57927   0.29193   0.95317   0.00000  Uiso   1.00
F546   F     0.42067   0.04143   0.54683   0.00000  Uiso   1.00
F547   F     0.57859   0.00519   0.74343   0.00000  Uiso   1.00
F548   F     0.42141   0.32814   0.75657   0.00000  Uiso   1.00
F549   F     0.34342   0.11977   0.70912   0.00000  Uiso   1.00
F550   F     0.65658   0.21356   0.79088   0.00000  Uiso   1.00
O551   O     0.79642   0.24619   0.75298   0.00000  Uiso   1.00
O552   O     0.87025   0.08714   0.74701   0.00000  Uiso   1.00
O553   O     0.89280   0.23721   0.74518   0.00000  Uiso   1.00
O554   O     0.77387   0.09613   0.75481   0.00000  Uiso   1.00
C555   C     0.84834   0.26471   0.74887   0.00000  Uiso   1.00
C556   C     0.81833   0.06862   0.75113   0.00000  Uiso   1.00
O557   O     0.78514   0.17117   0.81997   0.00000  Uiso   1.00
O558   O     0.88153   0.16216   0.68002   0.00000  Uiso   1.00
O559   O     0.88152   0.16219   0.81217   0.00000  Uiso   1.00
O560   O     0.78515   0.17115   0.68782   0.00000  Uiso   1.00
C561   C     0.83417   0.16677   0.83632   0.00000  Uiso   1.00
C562   C     0.83250   0.16656   0.66368   0.00000  Uiso   1.00
Zn563  Zn    0.76898   0.17266   0.75521   0.00000  Uiso   1.00
Zn564  Zn    0.89769   0.16067   0.74479   0.00000  Uiso   1.00
C565   C     0.80223   0.12679   0.59416   0.00000  Uiso   1.00
C566   C     0.86442   0.20655   0.90584   0.00000  Uiso   1.00
C567   C     0.83071   0.16762   0.61620   0.00000  Uiso   1.00
C568   C     0.83595   0.16572   0.88380   0.00000  Uiso   1.00
C569   C     0.85870   0.20896   0.59350   0.00000  Uiso   1.00
C570   C     0.80796   0.12438   0.90650   0.00000  Uiso   1.00
C571   C     0.85804   0.21049   0.54676   0.00000  Uiso   1.00
C572   C     0.80860   0.12286   0.95324   0.00000  Uiso   1.00
C573   C     0.83210   0.16736   0.52351   0.00000  Uiso   1.00
C574   C     0.83454   0.16599   0.97649   0.00000  Uiso   1.00
C575   C     0.80384   0.12548   0.54740   0.00000  Uiso   1.00
C576   C     0.86280   0.20787   0.95260   0.00000  Uiso   1.00
C577   C     0.88400   0.25292   0.52262   0.00000  Uiso   1.00
C578   C     0.78262   0.08044   0.97738   0.00000  Uiso   1.00
C579   C     0.88734   0.25076   0.97578   0.00000  Uiso   1.00
C580   C     0.77929   0.08260   0.52422   0.00000  Uiso   1.00
C581   C     0.85641   0.31879   0.74812   0.00000  Uiso   1.00
C582   C     0.81025   0.01455   0.75188   0.00000  Uiso   1.00
N583   N     0.98344   0.15265   0.73783   0.00000  Uiso   1.00
N584   N     0.68322   0.18068   0.76217   0.00000  Uiso   1.00
F585   F     0.77558   0.08759   0.61862   0.00000  Uiso   1.00
F586   F     0.89107   0.24575   0.88138   0.00000  Uiso   1.00
F587   F     0.88752   0.24636   0.61754   0.00000  Uiso   1.00
F588   F     0.77916   0.08697   0.88245   0.00000  Uiso   1.00
N589   N     0.90455   0.29960   0.54500   0.00000  Uiso   1.00
O590   O     0.86854   0.32765   0.56886   0.00000  Uiso   1.00
O591   O     0.95688   0.31818   0.53595   0.00000  Uiso   1.00
N592   N     0.76204   0.03377   0.95501   0.00000  Uiso   1.00
O593   O     0.79804   0.00566   0.93119   0.00000  Uiso   1.00
O594   O     0.70965   0.01526   0.96401   0.00000  Uiso   1.00
F595   F     0.91260   0.29193   0.95317   0.00000  Uiso   1.00
F596   F     0.75400   0.04143   0.54683   0.00000  Uiso   1.00
F597   F     0.91192   0.00519   0.74343   0.00000  Uiso   1.00
F598   F     0.75475   0.32814   0.75657   0.00000  Uiso   1.00
F599   F     0.67675   0.11977   0.70912   0.00000  Uiso   1.00
F600   F     0.98992   0.21356   0.79088   0.00000  Uiso   1.00
O601   O     0.12975   0.57952   0.75298   0.00000  Uiso   1.00
O602   O     0.20358   0.42048   0.74701   0.00000  Uiso   1.00
O603   O     0.22613   0.57054   0.74518   0.00000  Uiso   1.00
O604   O     0.10720   0.42946   0.75481   0.00000  Uiso   1.00
C605   C     0.18167   0.59804   0.74887   0.00000  Uiso   1.00
C606   C     0.15166   0.40196   0.75113   0.00000  Uiso   1.00
O607   O     0.11847   0.50450   0.81997   0.00000  Uiso   1.00
O608   O     0.21486   0.49550   0.68002   0.00000  Uiso   1.00
O609   O     0.21485   0.49552   0.81217   0.00000  Uiso   1.00
O610   O     0.11848   0.50448   0.68782   0.00000  Uiso   1.00
C611   C     0.16750   0.50010   0.83632   0.00000  Uiso   1.00
C612   C     0.16583   0.49990   0.66368   0.00000  Uiso   1.00
Zn613  Zn    0.10231   0.50600   0.75521   0.00000  Uiso   1.00
Zn614  Zn    0.23102   0.49400   0.74479   0.00000  Uiso   1.00
C615   C     0.13557   0.46013   0.59416   0.00000  Uiso   1.00
C616   C     0.19775   0.53988   0.90584   0.00000  Uiso   1.00
C617   C     0.16404   0.50095   0.61620   0.00000  Uiso   1.00
C618   C     0.16929   0.49905   0.88380   0.00000  Uiso   1.00
C619   C     0.19203   0.54229   0.59350   0.00000  Uiso   1.00
C620   C     0.14130   0.45771   0.90650   0.00000  Uiso   1.00
C621   C     0.19137   0.54382   0.54676   0.00000  Uiso   1.00
C622   C     0.14193   0.45619   0.95324   0.00000  Uiso   1.00
C623   C     0.16543   0.50069   0.52351   0.00000  Uiso   1.00
C624   C     0.16787   0.49932   0.97649   0.00000  Uiso   1.00
C625   C     0.13717   0.45881   0.54740   0.00000  Uiso   1.00
C626   C     0.19613   0.54120   0.95260   0.00000  Uiso   1.00
C627   C     0.21733   0.58625   0.52262   0.00000  Uiso   1.00
C628   C     0.11595   0.41377   0.97738   0.00000  Uiso   1.00
C629   C     0.22067   0.58409   0.97578   0.00000  Uiso   1.00
C630   C     0.11262   0.41593   0.52422   0.00000  Uiso   1.00
C631   C     0.18975   0.65212   0.74812   0.00000  Uiso   1.00
C632   C     0.14359   0.34788   0.75188   0.00000  Uiso   1.00
N633   N     0.31678   0.48598   0.73783   0.00000  Uiso   1.00
N634   N     0.01656   0.51402   0.76217   0.00000  Uiso   1.00
F635   F     0.10891   0.42092   0.61862   0.00000  Uiso   1.00
F636   F     0.22440   0.57908   0.88138   0.00000  Uiso   1.00
F637   F     0.22085   0.57969   0.61754   0.00000  Uiso   1.00
F638   F     0.11249   0.42030   0.88245   0.00000  Uiso   1.00
N639   N     0.23788   0.63293   0.54500   0.00000  Uiso   1.00
O640   O     0.20187   0.66098   0.56886   0.00000  Uiso   1.00
O641   O     0.29021   0.65151   0.53595   0.00000  Uiso   1.00
N642   N     0.09537   0.36711   0.95501   0.00000  Uiso   1.00
O643   O     0.13137   0.33899   0.93119   0.00000  Uiso   1.00
O644   O     0.04299   0.34860   0.96401   0.00000  Uiso   1.00
F645   F     0.24594   0.62526   0.95317   0.00000  Uiso   1.00
F646   F     0.08734   0.37476   0.54683   0.00000  Uiso   1.00
F647   F     0.24525   0.33853   0.74343   0.00000  Uiso   1.00
F648   F     0.08808   0.66147   0.75657   0.00000  Uiso   1.00
F649   F     0.01008   0.45310   0.70912   0.00000  Uiso   1.00
F650   F     0.32325   0.54690   0.79088   0.00000  Uiso   1.00
O651   O     0.46308   0.57952   0.75298   0.00000  Uiso   1.00
O652   O     0.53692   0.42048   0.74701   0.00000  Uiso   1.00
O653   O     0.55946   0.57054   0.74518   0.00000  Uiso   1.00
O654   O     0.44054   0.42946   0.75481   0.00000  Uiso   1.00
C655   C     0.51501   0.59804   0.74887   0.00000  Uiso   1.00
C656   C     0.48500   0.40196   0.75113   0.00000  Uiso   1.00
O657   O     0.45181   0.50450   0.81997   0.00000  Uiso   1.00
O658   O     0.54819   0.49550   0.68002   0.00000  Uiso   1.00
O659   O     0.54819   0.49552   0.81217   0.00000  Uiso   1.00
O660   O     0.45181   0.50448   0.68782   0.00000  Uiso   1.00
C661   C     0.50083   0.50010   0.83632   0.00000  Uiso   1.00
C662   C     0.49917   0.49990   0.66368   0.00000  Uiso   1.00
Zn663  Zn    0.43565   0.50600   0.75521   0.00000  Uiso   1.00
Zn664  Zn    0.56435   0.49400   0.74479   0.00000  Uiso   1.00
C665   C     0.46890   0.46013   0.59416   0.00000  Uiso   1.00
C666   C     0.53108   0.53988   0.90584   0.00000  Uiso   1.00
C667   C     0.49738   0.50095   0.61620   0.00000  Uiso   1.00
C668   C     0.50262   0.49905   0.88380   0.00000  Uiso   1.00
C669   C     0.52536   0.54229   0.59350   0.00000  Uiso   1.00
C670   C     0.47463   0.45771   0.90650   0.00000  Uiso   1.00
C671   C     0.52471   0.54382   0.54676   0.00000  Uiso   1.00
C672   C     0.47527   0.45619   0.95324   0.00000  Uiso   1.00
C673   C     0.49877   0.50069   0.52351   0.00000  Uiso   1.00
C674   C     0.50120   0.49932   0.97649   0.00000  Uiso   1.00
C675   C     0.47050   0.45881   0.54740   0.00000  Uiso   1.00
C676   C     0.52947   0.54120   0.95260   0.00000  Uiso   1.00
C677   C     0.55066   0.58625   0.52262   0.00000  Uiso   1.00
C678   C     0.44929   0.41377   0.97738   0.00000  Uiso   1.00
C679   C     0.55400   0.58409   0.97578   0.00000  Uiso   1.00
C680   C     0.44595   0.41593   0.52422   0.00000  Uiso   1.00
C681   C     0.52308   0.65212   0.74812   0.00000  Uiso   1.00
C682   C     0.47692   0.34788   0.75188   0.00000  Uiso   1.00
N683   N     0.65011   0.48598   0.73783   0.00000  Uiso   1.00
N684   N     0.34989   0.51402   0.76217   0.00000  Uiso   1.00
F685   F     0.44225   0.42092   0.61862   0.00000  Uiso   1.00
F686   F     0.55774   0.57908   0.88138   0.00000  Uiso   1.00
F687   F     0.55419   0.57969   0.61754   0.00000  Uiso   1.00
F688   F     0.44582   0.42030   0.88245   0.00000  Uiso   1.00
N689   N     0.57121   0.63293   0.54500   0.00000  Uiso   1.00
O690   O     0.53520   0.66098   0.56886   0.00000  Uiso   1.00
O691   O     0.62355   0.65151   0.53595   0.00000  Uiso   1.00
N692   N     0.42870   0.36711   0.95501   0.00000  Uiso   1.00
O693   O     0.46470   0.33899   0.93119   0.00000  Uiso   1.00
O694   O     0.37632   0.34860   0.96401   0.00000  Uiso   1.00
F695   F     0.57927   0.62526   0.95317   0.00000  Uiso   1.00
F696   F     0.42067   0.37476   0.54683   0.00000  Uiso   1.00
F697   F     0.57859   0.33853   0.74343   0.00000  Uiso   1.00
F698   F     0.42141   0.66147   0.75657   0.00000  Uiso   1.00
F699   F     0.34342   0.45310   0.70912   0.00000  Uiso   1.00
F700   F     0.65658   0.54690   0.79088   0.00000  Uiso   1.00
O701   O     0.79642   0.57952   0.75298   0.00000  Uiso   1.00
O702   O     0.87025   0.42048   0.74701   0.00000  Uiso   1.00
O703   O     0.89280   0.57054   0.74518   0.00000  Uiso   1.00
O704   O     0.77387   0.42946   0.75481   0.00000  Uiso   1.00
C705   C     0.84834   0.59804   0.74887   0.00000  Uiso   1.00
C706   C     0.81833   0.40196   0.75113   0.00000  Uiso   1.00
O707   O     0.78514   0.50450   0.81997   0.00000  Uiso   1.00
O708   O     0.88153   0.49550   0.68002   0.00000  Uiso   1.00
O709   O     0.88152   0.49552   0.81217   0.00000  Uiso   1.00
O710   O     0.78515   0.50448   0.68782   0.00000  Uiso   1.00
C711   C     0.83417   0.50010   0.83632   0.00000  Uiso   1.00
C712   C     0.83250   0.49990   0.66368   0.00000  Uiso   1.00
Zn713  Zn    0.76898   0.50600   0.75521   0.00000  Uiso   1.00
Zn714  Zn    0.89769   0.49400   0.74479   0.00000  Uiso   1.00
C715   C     0.80223   0.46013   0.59416   0.00000  Uiso   1.00
C716   C     0.86442   0.53988   0.90584   0.00000  Uiso   1.00
C717   C     0.83071   0.50095   0.61620   0.00000  Uiso   1.00
C718   C     0.83595   0.49905   0.88380   0.00000  Uiso   1.00
C719   C     0.85870   0.54229   0.59350   0.00000  Uiso   1.00
C720   C     0.80796   0.45771   0.90650   0.00000  Uiso   1.00
C721   C     0.85804   0.54382   0.54676   0.00000  Uiso   1.00
C722   C     0.80860   0.45619   0.95324   0.00000  Uiso   1.00
C723   C     0.83210   0.50069   0.52351   0.00000  Uiso   1.00
C724   C     0.83454   0.49932   0.97649   0.00000  Uiso   1.00
C725   C     0.80384   0.45881   0.54740   0.00000  Uiso   1.00
C726   C     0.86280   0.54120   0.95260   0.00000  Uiso   1.00
C727   C     0.88400   0.58625   0.52262   0.00000  Uiso   1.00
C728   C     0.78262   0.41377   0.97738   0.00000  Uiso   1.00
C729   C     0.88734   0.58409   0.97578   0.00000  Uiso   1.00
C730   C     0.77929   0.41593   0.52422   0.00000  Uiso   1.00
C731   C     0.85641   0.65212   0.74812   0.00000  Uiso   1.00
C732   C     0.81025   0.34788   0.75188   0.00000  Uiso   1.00
N733   N     0.98344   0.48598   0.73783   0.00000  Uiso   1.00
N734   N     0.68322   0.51402   0.76217   0.00000  Uiso   1.00
F735   F     0.77558   0.42092   0.61862   0.00000  Uiso   1.00
F736   F     0.89107   0.57908   0.88138   0.00000  Uiso   1.00
F737   F     0.88752   0.57969   0.61754   0.00000  Uiso   1.00
F738   F     0.77916   0.42030   0.88245   0.00000  Uiso   1.00
N739   N     0.90455   0.63293   0.54500   0.00000  Uiso   1.00
O740   O     0.86854   0.66098   0.56886   0.00000  Uiso   1.00
O741   O     0.95688   0.65151   0.53595   0.00000  Uiso   1.00
N742   N     0.76204   0.36711   0.95501   0.00000  Uiso   1.00
O743   O     0.79804   0.33899   0.93119   0.00000  Uiso   1.00
O744   O     0.70965   0.34860   0.96401   0.00000  Uiso   1.00
F745   F     0.91260   0.62526   0.95317   0.00000  Uiso   1.00
F746   F     0.75400   0.37476   0.54683   0.00000  Uiso   1.00
F747   F     0.91192   0.33853   0.74343   0.00000  Uiso   1.00
F748   F     0.75475   0.66147   0.75657   0.00000  Uiso   1.00
F749   F     0.67675   0.45310   0.70912   0.00000  Uiso   1.00
F750   F     0.98992   0.54690   0.79088   0.00000  Uiso   1.00
O751   O     0.12975   0.91286   0.75298   0.00000  Uiso   1.00
O752   O     0.20358   0.75381   0.74701   0.00000  Uiso   1.00
O753   O     0.22613   0.90387   0.74518   0.00000  Uiso   1.00
O754   O     0.10720   0.76279   0.75481   0.00000  Uiso   1.00
C755   C     0.18167   0.93138   0.74887   0.00000  Uiso   1.00
C756   C     0.15166   0.73529   0.75113   0.00000  Uiso   1.00
O757   O     0.11847   0.83784   0.81997   0.00000  Uiso   1.00
O758   O     0.21486   0.82883   0.68002   0.00000  Uiso   1.00
O759   O     0.21485   0.82885   0.81217   0.00000  Uiso   1.00
O760   O     0.11848   0.83781   0.68782   0.00000  Uiso   1.00
C761   C     0.16750   0.83344   0.83632   0.00000  Uiso   1.00
C762   C     0.16583   0.83323   0.66368   0.00000  Uiso   1.00
Zn763  Zn    0.10231   0.83933   0.75521   0.00000  Uiso   1.00
Zn764  Zn    0.23102   0.82734   0.74479   0.00000  Uiso   1.00
C765   C     0.13557   0.79346   0.59416   0.00000  Uiso   1.00
C766   C     0.19775   0.87322   0.90584   0.00000  Uiso   1.00
C767   C     0.16404   0.83428   0.61620   0.00000  Uiso   1.00
C768   C     0.16929   0.83239   0.88380   0.00000  Uiso   1.00
C769   C     0.19203   0.87562   0.59350   0.00000  Uiso   1.00
C770   C     0.14130   0.79105   0.90650   0.00000  Uiso   1.00
C771   C     0.19137   0.87716   0.54676   0.00000  Uiso   1.00
C772   C     0.14193   0.78952   0.95324   0.00000  Uiso   1.00
C773   C     0.16543   0.83403   0.52351   0.00000  Uiso   1.00
C774   C     0.16787   0.83266   0.97649   0.00000  Uiso   1.00
C775   C     0.13717   0.79215   0.54740   0.00000  Uiso   1.00
C776   C     0.19613   0.87454   0.95260   0.00000  Uiso   1.00
C777   C     0.21733   0.91958   0.52262   0.00000  Uiso   1.00
C778   C     0.11595   0.74711   0.97738   0.00000  Uiso   1.00
C779   C     0.22067   0.91742   0.97578   0.00000  Uiso   1.00
C780   C     0.11262   0.74926   0.52422   0.00000  Uiso   1.00
C781   C     0.18975   0.98545   0.74812   0.00000  Uiso   1.00
C782   C     0.14359   0.68121   0.75188   0.00000  Uiso   1.00
N783   N     0.31678   0.81932   0.73783   0.00000  Uiso   1.00
N784   N     0.01656   0.84735   0.76217   0.00000  Uiso   1.00
F785   F     0.10891   0.75426   0.61862   0.00000  Uiso   1.00
F786   F     0.22440   0.91242   0.88138   0.00000  Uiso   1.00
F787   F     0.22085   0.91302   0.61754   0.00000  Uiso   1.00
F788   F     0.11249   0.75364   0.88245   0.00000  Uiso   1.00
N789   N     0.23788   0.96626   0.54500   0.00000  Uiso   1.00
O790   O     0.20187   0.99432   0.56886   0.00000  Uiso   1.00
O791   O     0.29021   0.98485   0.53595   0.00000  Uiso   1.00
N792   N     0.09537   0.70044   0.95501   0.00000  Uiso   1.00
O793   O     0.13137   0.67232   0.93119   0.00000  Uiso   1.00
O794   O     0.04299   0.68193   0.96401   0.00000  Uiso   1.00
F795   F     0.24594   0.95860   0.95317   0.00000  Uiso   1.00
F796   F     0.08734   0.70810   0.54683   0.00000  Uiso   1.00
F797   F     0.24525   0.67186   0.74343   0.00000  Uiso   1.00
F798   F     0.08808   0.99481   0.75657   0.00000  Uiso   1.00
F799   F     0.01008   0.78644   0.70912   0.00000  Uiso   1.00
F800   F     0.32325   0.88023   0.79088   0.00000  Uiso   1.00
O801   O     0.46308   0.91286   0.75298   0.00000  Uiso   1.00
O802   O     0.53692   0.75381   0.74701   0.00000  Uiso   1.00
O803   O     0.55946   0.90387   0.74518   0.00000  Uiso   1.00
O804   O     0.44054   0.76279   0.75481   0.00000  Uiso   1.00
C805   C     0.51501   0.93138   0.74887   0.00000  Uiso   1.00
C806   C     0.48500   0.73529   0.75113   0.00000  Uiso   1.00
O807   O     0.45181   0.83784   0.81997   0.00000  Uiso   1.00
O808   O     0.54819   0.82883   0.68002   0.00000  Uiso   1.00
O809   O     0.54819   0.82885   0.81217   0.00000  Uiso   1.00
O810   O     0.45181   0.83781   0.68782   0.00000  Uiso   1.00
C811   C     0.50083   0.83344   0.83632   0.00000  Uiso   1.00
C812   C     0.49917   0.83323   0.66368   0.00000  Uiso   1.00
Zn813  Zn    0.43565   0.83933   0.75521   0.00000  Uiso   1.00
Zn814  Zn    0.56435   0.82734   0.74479   0.00000  Uiso   1.00
C815   C     0.46890   0.79346   0.59416   0.00000  Uiso   1.00
C816   C     0.53108   0.87322   0.90584   0.00000  Uiso   1.00
C817   C     0.49738   0.83428   0.61620   0.00000  Uiso   1.00
C818   C     0.50262   0.83239   0.88380   0.00000  Uiso   1.00
C819   C     0.52536   0.87562   0.59350   0.00000  Uiso   1.00
C820   C     0.47463   0.79105   0.90650   0.00000  Uiso   1.00
C821   C     0.52471   0.87716   0.54676   0.00000  Uiso   1.00
C822   C     0.47527   0.78952   0.95324   0.00000  Uiso   1.00
C823   C     0.49877   0.83403   0.52351   0.00000  Uiso   1.00
C824   C     0.50120   0.83266   0.97649   0.00000  Uiso   1.00
C825   C     0.47050   0.79215   0.54740   0.00000  Uiso   1.00
C826   C     0.52947   0.87454   0.95260   0.00000  Uiso   1.00
C827   C     0.55066   0.91958   0.52262   0.00000  Uiso   1.00
C828   C     0.44929   0.74711   0.97738   0.00000  Uiso   1.00
C829   C     0.55400   0.91742   0.97578   0.00000  Uiso   1.00
C830   C     0.44595   0.74926   0.52422   0.00000  Uiso   1.00
C831   C     0.52308   0.98545   0.74812   0.00000  Uiso   1.00
C832   C     0.47692   0.68121   0.75188   0.00000  Uiso   1.00
N833   N     0.65011   0.81932   0.73783   0.00000  Uiso   1.00
N834   N     0.34989   0.84735   0.76217   0.00000  Uiso   1.00
F835   F     0.44225   0.75426   0.61862   0.00000  Uiso   1.00
F836   F     0.55774   0.91242   0.88138   0.00000  Uiso   1.00
F837   F     0.55419   0.91302   0.61754   0.00000  Uiso   1.00
F838   F     0.44582   0.75364   0.88245   0.00000  Uiso   1.00
N839   N     0.57121   0.96626   0.54500   0.00000  Uiso   1.00
O840   O     0.53520   0.99432   0.56886   0.00000  Uiso   1.00
O841   O     0.62355   0.98485   0.53595   0.00000  Uiso   1.00
N842   N     0.42870   0.70044   0.95501   0.00000  Uiso   1.00
O843   O     0.46470   0.67232   0.93119   0.00000  Uiso   1.00
O844   O     0.37632   0.68193   0.96401   0.00000  Uiso   1.00
F845   F     0.57927   0.95860   0.95317   0.00000  Uiso   1.00
F846   F     0.42067   0.70810   0.54683   0.00000  Uiso   1.00
F847   F     0.57859   0.67186   0.74343   0.00000  Uiso   1.00
F848   F     0.42141   0.99481   0.75657   0.00000  Uiso   1.00
F849   F     0.34342   0.78644   0.70912   0.00000  Uiso   1.00
F850   F     0.65658   0.88023   0.79088   0.00000  Uiso   1.00
O851   O     0.79642   0.91286   0.75298   0.00000  Uiso   1.00
O852   O     0.87025   0.75381   0.74701   0.00000  Uiso   1.00
O853   O     0.89280   0.90387   0.74518   0.00000  Uiso   1.00
O854   O     0.77387   0.76279   0.75481   0.00000  Uiso   1.00
C855   C     0.84834   0.93138   0.74887   0.00000  Uiso   1.00
C856   C     0.81833   0.73529   0.75113   0.00000  Uiso   1.00
O857   O     0.78514   0.83784   0.81997   0.00000  Uiso   1.00
O858   O     0.88153   0.82883   0.68002   0.00000  Uiso   1.00
O859   O     0.88152   0.82885   0.81217   0.00000  Uiso   1.00
O860   O     0.78515   0.83781   0.68782   0.00000  Uiso   1.00
C861   C     0.83417   0.83344   0.83632   0.00000  Uiso   1.00
C862   C     0.83250   0.83323   0.66368   0.00000  Uiso   1.00
Zn863  Zn    0.76898   0.83933   0.75521   0.00000  Uiso   1.00
Zn864  Zn    0.89769   0.82734   0.74479   0.00000  Uiso   1.00
C865   C     0.80223   0.79346   0.59416   0.00000  Uiso   1.00
C866   C     0.86442   0.87322   0.90584   0.00000  Uiso   1.00
C867   C     0.83071   0.83428   0.61620   0.00000  Uiso   1.00
C868   C     0.83595   0.83239   0.88380   0.00000  Uiso   1.00
C869   C     0.85870   0.87562   0.59350   0.00000  Uiso   1.00
C870   C     0.80796   0.79105   0.90650   0.00000  Uiso   1.00
C871   C     0.85804   0.87716   0.54676   0.00000  Uiso   1.00
C872   C     0.80860   0.78952   0.95324   0.00000  Uiso   1.00
C873   C     0.83210   0.83403   0.52351   0.00000  Uiso   1.00
C874   C     0.83454   0.83266   0.97649   0.00000  Uiso   1.00
C875   C     0.80384   0.79215   0.54740   0.00000  Uiso   1.00
C876   C     0.86280   0.87454   0.95260   0.00000  Uiso   1.00
C877   C     0.88400   0.91958   0.52262   0.00000  Uiso   1.00
C878   C     0.78262   0.74711   0.97738   0.00000  Uiso   1.00
C879   C     0.88734   0.91742   0.97578   0.00000  Uiso   1.00
C880   C     0.77929   0.74926   0.52422   0.00000  Uiso   1.00
C881   C     0.85641   0.98545   0.74812   0.00000  Uiso   1.00
C882   C     0.81025   0.68121   0.75188   0.00000  Uiso   1.00
N883   N     0.98344   0.81932   0.73783   0.00000  Uiso   1.00
N884   N     0.68322   0.84735   0.76217   0.00000  Uiso   1.00
F885   F     0.77558   0.75426   0.61862   0.00000  Uiso   1.00
F886   F     0.89107   0.91242   0.88138   0.00000  Uiso   1.00
F887   F     0.88752   0.91302   0.61754   0.00000  Uiso   1.00
F888   F     0.77916   0.75364   0.88245   0.00000  Uiso   1.00
N889   N     0.90455   0.96626   0.54500   0.00000  Uiso   1.00
O890   O     0.86854   0.99432   0.56886   0.00000  Uiso   1.00
O891   O     0.95688   0.98485   0.53595   0.00000  Uiso   1.00
N892   N     0.76204   0.70044   0.95501   0.00000  Uiso   1.00
O893   O     0.79804   0.67232   0.93119   0.00000  Uiso   1.00
O894   O     0.70965   0.68193   0.96401   0.00000  Uiso   1.00
F895   F     0.91260   0.95860   0.95317   0.00000  Uiso   1.00
F896   F     0.75400   0.70810   0.54683   0.00000  Uiso   1.00
F897   F     0.91192   0.67186   0.74343   0.00000  Uiso   1.00
F898   F     0.75475   0.99481   0.75657   0.00000  Uiso   1.00
F899   F     0.67675   0.78644   0.70912   0.00000  Uiso   1.00
F900   F     0.98992   0.88023   0.79088   0.00000  Uiso   1.00
loop_
_geom_bond_atom_site_label_1
_geom_bond_atom_site_label_2
_geom_bond_distance
_geom_bond_site_symmetry_2
_ccdc_geom_bond_type
O1     C5      1.277   .     A
O1     Zn13    1.971   .     S
O2     C6      1.277   .     A
O2     Zn14    1.971   .     S
O3     Zn14    1.987   .     S
O3     C5      1.288   .     A
O4     C6      1.288   .     A
O4     Zn13    1.987   .     S
C5     C31     1.400   .     S
C6     C32     1.400   .     S
O7     C11     1.287   .     A
O7     Zn13    1.993   .     S
O8     C12     1.287   .     A
O8     Zn14    1.993   .     S
O9     Zn14    2.016   .     S
O9     C11     1.286   .     A
O10    C12     1.286   .     A
O10    Zn13    2.016   .     S
C11    C18     1.419   .     S
C12    C17     1.419   .     S
Zn13   N34     2.021   .     S
Zn14   N33     2.021   .     S
C15    C25     1.390   .     A
C15    F35     1.361   .     S
C15    C17     1.387   .     A
C16    F36     1.361   .     S
C16    C26     1.390   .     A
C16    C18     1.387   .     A
C17    C19     1.388   .     A
C18    C20     1.388   .     A
C19    F37     1.360   .     S
C19    C21     1.395   .     A
C20    C22     1.395   .     A
C20    F38     1.360   .     S
C21    C27     1.413   .     A
C21    C23     1.422   .     A
C22    C28     1.413   .     A
C22    C24     1.422   .     A
C23    C25     1.418   .     A
C23    C474    1.397   1_554 S
C24    C26     1.418   .     A
C24    C473    1.397   .     S
C25    C30     1.403   .     A
C26    C29     1.403   .     A
C27    N39     1.435   .     S
C27    C479    1.391   1_554 S
C28    N42     1.435   .     S
C28    C480    1.391   .     S
C29    F45     1.360   .     S
C29    C477    1.391   .     S
C30    F46     1.360   .     S
C30    C478    1.391   1_554 S
C31    C182    1.346   .     S
C31    F197    1.365   .     S
C32    C331    1.346   1_545 S
C32    F348    1.365   1_545 S
N33    N84     1.277   .     S
N33    F99     1.335   .     S
N34    N133    1.277   1_455 S
N34    F150    1.335   1_455 S
N39    O41     1.301   .     A
N39    O40     1.301   .     A
N42    O44     1.301   .     A
N42    O43     1.302   .     A
F47    C331    1.365   1_545 S
F48    C182    1.365   .     S
F49    N133    1.335   1_455 S
F50    N84     1.335   .     S
O51    C55     1.277   .     A
O51    Zn63    1.971   .     S
O52    C56     1.277   .     A
O52    Zn64    1.971   .     S
O53    Zn64    1.987   .     S
O53    C55     1.288   .     A
O54    C56     1.288   .     A
O54    Zn63    1.987   .     S
C55    C81     1.400   .     S
C56    C82     1.400   .     S
O57    C61     1.287   .     A
O57    Zn63    1.993   .     S
O58    C62     1.287   .     A
O58    Zn64    1.993   .     S
O59    Zn64    2.016   .     S
O59    C61     1.286   .     A
O60    C62     1.286   .     A
O60    Zn63    2.016   .     S
C61    C68     1.419   .     S
C62    C67     1.419   .     S
Zn63   N84     2.021   .     S
Zn64   N83     2.021   .     S
C65    C75     1.390   .     A
C65    F85     1.361   .     S
C65    C67     1.387   .     A
C66    F86     1.361   .     S
C66    C76     1.390   .     A
C66    C68     1.387   .     A
C67    C69     1.388   .     A
C68    C70     1.388   .     A
C69    F87     1.360   .     S
C69    C71     1.395   .     A
C70    C72     1.395   .     A
C70    F88     1.360   .     S
C71    C77     1.413   .     A
C71    C73     1.422   .     A
C72    C78     1.413   .     A
C72    C74     1.422   .     A
C73    C75     1.418   .     A
C73    C524    1.397   1_554 S
C74    C76     1.418   .     A
C74    C523    1.397   .     S
C75    C80     1.403   .     A
C76    C79     1.403   .     A
C77    N89     1.435   .     S
C77    C529    1.391   1_554 S
C78    N92     1.435   .     S
C78    C530    1.391   .     S
C79    F95     1.360   .     S
C79    C527    1.391   .     S
C80    F96     1.360   .     S
C80    C528    1.391   1_554 S
C81    C232    1.346   .     S
C81    F247    1.365   .     S
C82    C381    1.346   1_545 S
C82    F398    1.365   1_545 S
N83    N134    1.277   .     S
N83    F149    1.335   .     S
N89    O91     1.301   .     A
N89    O90     1.301   .     A
N92    O94     1.301   .     A
N92    O93     1.302   .     A
F97    C381    1.365   1_545 S
F98    C232    1.365   .     S
F100   N134    1.335   .     S
O101   C105    1.277   .     A
O101   Zn113   1.971   .     S
O102   C106    1.277   .     A
O102   Zn114   1.971   .     S
O103   Zn114   1.987   .     S
O103   C105    1.288   .     A
O104   C106    1.288   .     A
O104   Zn113   1.987   .     S
C105   C131    1.400   .     S
C106   C132    1.400   .     S
O107   C111    1.287   .     A
O107   Zn113   1.993   .     S
O108   C112    1.287   .     A
O108   Zn114   1.993   .     S
O109   Zn114   2.016   .     S
O109   C111    1.286   .     A
O110   C112    1.286   .     A
O110   Zn113   2.016   .     S
C111   C118    1.419   .     S
C112   C117    1.419   .     S
Zn113  N134    2.021   .     S
Zn114  N133    2.021   .     S
C115   C125    1.390   .     A
C115   F135    1.361   .     S
C115   C117    1.387   .     A
C116   F136    1.361   .     S
C116   C126    1.390   .     A
C116   C118    1.387   .     A
C117   C119    1.388   .     A
C118   C120    1.388   .     A
C119   F137    1.360   .     S
C119   C121    1.395   .     A
C120   C122    1.395   .     A
C120   F138    1.360   .     S
C121   C127    1.413   .     A
C121   C123    1.422   .     A
C122   C128    1.413   .     A
C122   C124    1.422   .     A
C123   C125    1.418   .     A
C123   C574    1.397   1_554 S
C124   C126    1.418   .     A
C124   C573    1.397   .     S
C125   C130    1.403   .     A
C126   C129    1.403   .     A
C127   N139    1.435   .     S
C127   C579    1.391   1_554 S
C128   N142    1.435   .     S
C128   C580    1.391   .     S
C129   F145    1.360   .     S
C129   C577    1.391   .     S
C130   F146    1.360   .     S
C130   C578    1.391   1_554 S
C131   C282    1.346   .     S
C131   F297    1.365   .     S
C132   C431    1.346   1_545 S
C132   F448    1.365   1_545 S
N133   N34     1.277   1_655 S
N133   F49     1.335   1_655 S
N139   O141    1.301   .     A
N139   O140    1.301   .     A
N142   O144    1.301   .     A
N142   O143    1.302   .     A
F147   C431    1.365   1_545 S
F148   C282    1.365   .     S
F150   N34     1.335   1_655 S
O151   C155    1.277   .     A
O151   Zn163   1.971   .     S
O152   C156    1.277   .     A
O152   Zn164   1.971   .     S
O153   Zn164   1.987   .     S
O153   C155    1.288   .     A
O154   C156    1.288   .     A
O154   Zn163   1.987   .     S
C155   C181    1.400   .     S
C156   C182    1.400   .     S
O157   C161    1.287   .     A
O157   Zn163   1.993   .     S
O158   C162    1.287   .     A
O158   Zn164   1.993   .     S
O159   Zn164   2.016   .     S
O159   C161    1.286   .     A
O160   C162    1.286   .     A
O160   Zn163   2.016   .     S
C161   C168    1.419   .     S
C162   C167    1.419   .     S
Zn163  N184    2.021   .     S
Zn164  N183    2.021   .     S
C165   C175    1.390   .     A
C165   F185    1.361   .     S
C165   C167    1.387   .     A
C166   F186    1.361   .     S
C166   C176    1.390   .     A
C166   C168    1.387   .     A
C167   C169    1.388   .     A
C168   C170    1.388   .     A
C169   F187    1.360   .     S
C169   C171    1.395   .     A
C170   C172    1.395   .     A
C170   F188    1.360   .     S
C171   C177    1.413   .     A
C171   C173    1.422   .     A
C172   C178    1.413   .     A
C172   C174    1.422   .     A
C173   C175    1.418   .     A
C173   C624    1.397   1_554 S
C174   C176    1.418   .     A
C174   C623    1.397   .     S
C175   C180    1.403   .     A
C176   C179    1.403   .     A
C177   N189    1.435   .     S
C177   C629    1.391   1_554 S
C178   N192    1.435   .     S
C178   C630    1.391   .     S
C179   F195    1.360   .     S
C179   C627    1.391   .     S
C180   F196    1.360   .     S
C180   C628    1.391   1_554 S
C181   C332    1.346   .     S
C181   F347    1.365   .     S
N183   N234    1.277   .     S
N183   F249    1.335   .     S
N184   N283    1.277   1_455 S
N184   F300    1.335   1_455 S
N189   O191    1.301   .     A
N189   O190    1.301   .     A
N192   O194    1.301   .     A
N192   O193    1.302   .     A
F198   C332    1.365   .     S
F199   N283    1.335   1_455 S
F200   N234    1.335   .     S
O201   C205    1.277   .     A
O201   Zn213   1.971   .     S
O202   C206    1.277   .     A
O202   Zn214   1.971   .     S
O203   Zn214   1.987   .     S
O203   C205    1.288   .     A
O204   C206    1.288   .     A
O204   Zn213   1.987   .     S
C205   C231    1.400   .     S
C206   C232    1.400   .     S
O207   C211    1.287   .     A
O207   Zn213   1.993   .     S
O208   C212    1.287   .     A
O208   Zn214   1.993   .     S
O209   Zn214   2.016   .     S
O209   C211    1.286   .     A
O210   C212    1.286   .     A
O210   Zn213   2.016   .     S
C211   C218    1.419   .     S
C212   C217    1.419   .     S
Zn213  N234    2.021   .     S
Zn214  N233    2.021   .     S
C215   C225    1.390   .     A
C215   F235    1.361   .     S
C215   C217    1.387   .     A
C216   F236    1.361   .     S
C216   C226    1.390   .     A
C216   C218    1.387   .     A
C217   C219    1.388   .     A
C218   C220    1.388   .     A
C219   F237    1.360   .     S
C219   C221    1.395   .     A
C220   C222    1.395   .     A
C220   F238    1.360   .     S
C221   C227    1.413   .     A
C221   C223    1.422   .     A
C222   C228    1.413   .     A
C222   C224    1.422   .     A
C223   C225    1.418   .     A
C223   C674    1.397   1_554 S
C224   C226    1.418   .     A
C224   C673    1.397   .     S
C225   C230    1.403   .     A
C226   C229    1.403   .     A
C227   N239    1.435   .     S
C227   C679    1.391   1_554 S
C228   N242    1.435   .     S
C228   C680    1.391   .     S
C229   F245    1.360   .     S
C229   C677    1.391   .     S
C230   F246    1.360   .     S
C230   C678    1.391   1_554 S
C231   C382    1.346   .     S
C231   F397    1.365   .     S
N233   N284    1.277   .     S
N233   F299    1.335   .     S
N239   O241    1.301   .     A
N239   O240    1.301   .     A
N242   O244    1.301   .     A
N242   O243    1.302   .     A
F248   C382    1.365   .     S
F250   N284    1.335   .     S
O251   C255    1.277   .     A
O251   Zn263   1.971   .     S
O252   C256    1.277   .     A
O252   Zn264   1.971   .     S
O253   Zn264   1.987   .     S
O253   C255    1.288   .     A
O254   C256    1.288   .     A
O254   Zn263   1.987   .     S
C255   C281    1.400   .     S
C256   C282    1.400   .     S
O257   C261    1.287   .     A
O257   Zn263   1.993   .     S
O258   C262    1.287   .     A
O258   Zn264   1.993   .     S
O259   Zn264   2.016   .     S
O259   C261    1.286   .     A
O260   C262    1.286   .     A
O260   Zn263   2.016   .     S
C261   C268    1.419   .     S
C262   C267    1.419   .     S
Zn263  N284    2.021   .     S
Zn264  N283    2.021   .     S
C265   C275    1.390   .     A
C265   F285    1.361   .     S
C265   C267    1.387   .     A
C266   F286    1.361   .     S
C266   C276    1.390   .     A
C266   C268    1.387   .     A
C267   C269    1.388   .     A
C268   C270    1.388   .     A
C269   F287    1.360   .     S
C269   C271    1.395   .     A
C270   C272    1.395   .     A
C270   F288    1.360   .     S
C271   C277    1.413   .     A
C271   C273    1.422   .     A
C272   C278    1.413   .     A
C272   C274    1.422   .     A
C273   C275    1.418   .     A
C273   C724    1.397   1_554 S
C274   C276    1.418   .     A
C274   C723    1.397   .     S
C275   C280    1.403   .     A
C276   C279    1.403   .     A
C277   N289    1.435   .     S
C277   C729    1.391   1_554 S
C278   N292    1.435   .     S
C278   C730    1.391   .     S
C279   F295    1.360   .     S
C279   C727    1.391   .     S
C280   F296    1.360   .     S
C280   C728    1.391   1_554 S
C281   C432    1.346   .     S
C281   F447    1.365   .     S
N283   N184    1.277   1_655 S
N283   F199    1.335   1_655 S
N289   O291    1.301   .     A
N289   O290    1.301   .     A
N292   O294    1.301   .     A
N292   O293    1.302   .     A
F298   C432    1.365   .     S
F300   N184    1.335   1_655 S
O301   C305    1.277   .     A
O301   Zn313   1.971   .     S
O302   C306    1.277   .     A
O302   Zn314   1.971   .     S
O303   Zn314   1.987   .     S
O303   C305    1.288   .     A
O304   C306    1.288   .     A
O304   Zn313   1.987   .     S
C305   C331    1.400   .     S
C306   C332    1.400   .     S
O307   C311    1.287   .     A
O307   Zn313   1.993   .     S
O308   C312    1.287   .     A
O308   Zn314   1.993   .     S
O309   Zn314   2.016   .     S
O309   C311    1.286   .     A
O310   C312    1.286   .     A
O310   Zn313   2.016   .     S
C311   C318    1.419   .     S
C312   C317    1.419   .     S
Zn313  N334    2.021   .     S
Zn314  N333    2.021   .     S
C315   C325    1.390   .     A
C315   F335    1.361   .     S
C315   C317    1.387   .     A
C316   F336    1.361   .     S
C316   C326    1.390   .     A
C316   C318    1.387   .     A
C317   C319    1.388   .     A
C318   C320    1.388   .     A
C319   F337    1.360   .     S
C319   C321    1.395   .     A
C320   C322    1.395   .     A
C320   F338    1.360   .     S
C321   C327    1.413   .     A
C321   C323    1.422   .     A
C322   C328    1.413   .     A
C322   C324    1.422   .     A
C323   C325    1.418   .     A
C323   C774    1.397   1_554 S
C324   C326    1.418   .     A
C324   C773    1.397   .     S
C325   C330    1.403   .     A
C326   C329    1.403   .     A
C327   N339    1.435   .     S
C327   C779    1.391   1_554 S
C328   N342    1.435   .     S
C328   C780    1.391   .     S
C329   F345    1.360   .     S
C329   C777    1.391   .     S
C330   F346    1.360   .     S
C330   C778    1.391   1_554 S
C331   C32     1.346   1_565 S
C331   F47     1.365   1_565 S
N333   N384    1.277   .     S
N333   F399    1.335   .     S
N334   N433    1.277   1_455 S
N334   F450    1.335   1_455 S
N339   O341    1.301   .     A
N339   O340    1.301   .     A
N342   O344    1.301   .     A
N342   O343    1.302   .     A
F348   C32     1.365   1_565 S
F349   N433    1.335   1_455 S
F350   N384    1.335   .     S
O351   C355    1.277   .     A
O351   Zn363   1.971   .     S
O352   C356    1.277   .     A
O352   Zn364   1.971   .     S
O353   Zn364   1.987   .     S
O353   C355    1.288   .     A
O354   C356    1.288   .     A
O354   Zn363   1.987   .     S
C355   C381    1.400   .     S
C356   C382    1.400   .     S
O357   C361    1.287   .     A
O357   Zn363   1.993   .     S
O358   C362    1.287   .     A
O358   Zn364   1.993   .     S
O359   Zn364   2.016   .     S
O359   C361    1.286   .     A
O360   C362    1.286   .     A
O360   Zn363   2.016   .     S
C361   C368    1.419   .     S
C362   C367    1.419   .     S
Zn363  N384    2.021   .     S
Zn364  N383    2.021   .     S
C365   C375    1.390   .     A
C365   F385    1.361   .     S
C365   C367    1.387   .     A
C366   F386    1.361   .     S
C366   C376    1.390   .     A
C366   C368    1.387   .     A
C367   C369    1.388   .     A
C368   C370    1.388   .     A
C369   F387    1.360   .     S
C369   C371    1.395   .     A
C370   C372    1.395   .     A
C370   F388    1.360   .     S
C371   C377    1.413   .     A
C371   C373    1.422   .     A
C372   C378    1.413   .     A
C372   C374    1.422   .     A
C373   C375    1.418   .     A
C373   C824    1.397   1_554 S
C374   C376    1.418   .     A
C374   C823    1.397   .     S
C375   C380    1.403   .     A
C376   C379    1.403   .     A
C377   N389    1.435   .     S
C377   C829    1.391   1_554 S
C378   N392    1.435   .     S
C378   C830    1.391   .     S
C379   F395    1.360   .     S
C379   C827    1.391   .     S
C380   F396    1.360   .     S
C380   C828    1.391   1_554 S
C381   C82     1.346   1_565 S
C381   F97     1.365   1_565 S
N383   N434    1.277   .     S
N383   F449    1.335   .     S
N389   O391    1.301   .     A
N389   O390    1.301   .     A
N392   O394    1.301   .     A
N392   O393    1.302   .     A
F398   C82     1.365   1_565 S
F400   N434    1.335   .     S
O401   C405    1.277   .     A
O401   Zn413   1.971   .     S
O402   C406    1.277   .     A
O402   Zn414   1.971   .     S
O403   Zn414   1.987   .     S
O403   C405    1.288   .     A
O404   C406    1.288   .     A
O404   Zn413   1.987   .     S
C405   C431    1.400   .     S
C406   C432    1.400   .     S
O407   C411    1.287   .     A
O407   Zn413   1.993   .     S
O408   C412    1.287   .     A
O408   Zn414   1.993   .     S
O409   Zn414   2.016   .     S
O409   C411    1.286   .     A
O410   C412    1.286   .     A
O410   Zn413   2.016   .     S
C411   C418    1.419   .     S
C412   C417    1.419   .     S
Zn413  N434    2.021   .     S
Zn414  N433    2.021   .     S
C415   C425    1.390   .     A
C415   F435    1.361   .     S
C415   C417    1.387   .     A
C416   F436    1.361   .     S
C416   C426    1.390   .     A
C416   C418    1.387   .     A
C417   C419    1.388   .     A
C418   C420    1.388   .     A
C419   F437    1.360   .     S
C419   C421    1.395   .     A
C420   C422    1.395   .     A
C420   F438    1.360   .     S
C421   C427    1.413   .     A
C421   C423    1.422   .     A
C422   C428    1.413   .     A
C422   C424    1.422   .     A
C423   C425    1.418   .     A
C423   C874    1.397   1_554 S
C424   C426    1.418   .     A
C424   C873    1.397   .     S
C425   C430    1.403   .     A
C426   C429    1.403   .     A
C427   N439    1.435   .     S
C427   C879    1.391   1_554 S
C428   N442    1.435   .     S
C428   C880    1.391   .     S
C429   F445    1.360   .     S
C429   C877    1.391   .     S
C430   F446    1.360   .     S
C430   C878    1.391   1_554 S
C431   C132    1.346   1_565 S
C431   F147    1.365   1_565 S
N433   N334    1.277   1_655 S
N433   F349    1.335   1_655 S
N439   O441    1.301   .     A
N439   O440    1.301   .     A
N442   O444    1.301   .     A
N442   O443    1.302   .     A
F448   C132    1.365   1_565 S
F450   N334    1.335   1_655 S
O451   C455    1.277   .     A
O451   Zn463   1.971   .     S
O452   C456    1.277   .     A
O452   Zn464   1.971   .     S
O453   Zn464   1.987   .     S
O453   C455    1.288   .     A
O454   C456    1.288   .     A
O454   Zn463   1.987   .     S
C455   C481    1.400   .     S
C456   C482    1.400   .     S
O457   C461    1.287   .     A
O457   Zn463   1.993   .     S
O458   C462    1.287   .     A
O458   Zn464   1.993   .     S
O459   Zn464   2.016   .     S
O459   C461    1.286   .     A
O460   C462    1.286   .     A
O460   Zn463   2.016   .     S
C461   C468    1.419   .     S
C462   C467    1.419   .     S
Zn463  N484    2.021   .     S
Zn464  N483    2.021   .     S
C465   C475    1.390   .     A
C465   F485    1.361   .     S
C465   C467    1.387   .     A
C466   F486    1.361   .     S
C466   C476    1.390   .     A
C466   C468    1.387   .     A
C467   C469    1.388   .     A
C468   C470    1.388   .     A
C469   F487    1.360   .     S
C469   C471    1.395   .     A
C470   C472    1.395   .     A
C470   F488    1.360   .     S
C471   C477    1.413   .     A
C471   C473    1.422   .     A
C472   C478    1.413   .     A
C472   C474    1.422   .     A
C473   C475    1.418   .     A
C474   C476    1.418   .     A
C474   C23     1.397   1_556 S
C475   C480    1.403   .     A
C476   C479    1.403   .     A
C477   N489    1.435   .     S
C478   N492    1.435   .     S
C478   C30     1.391   1_556 S
C479   F495    1.360   .     S
C479   C27     1.391   1_556 S
C480   F496    1.360   .     S
C481   C632    1.346   .     S
C481   F647    1.365   .     S
C482   C781    1.346   1_545 S
C482   F798    1.365   1_545 S
N483   N534    1.277   .     S
N483   F549    1.335   .     S
N484   N583    1.277   1_455 S
N484   F600    1.335   1_455 S
N489   O491    1.301   .     A
N489   O490    1.301   .     A
N492   O494    1.301   .     A
N492   O493    1.302   .     A
F497   C781    1.365   1_545 S
F498   C632    1.365   .     S
F499   N583    1.335   1_455 S
F500   N534    1.335   .     S
O501   C505    1.277   .     A
O501   Zn513   1.971   .     S
O502   C506    1.277   .     A
O502   Zn514   1.971   .     S
O503   Zn514   1.987   .     S
O503   C505    1.288   .     A
O504   C506    1.288   .     A
O504   Zn513   1.987   .     S
C505   C531    1.400   .     S
C506   C532    1.400   .     S
O507   C511    1.287   .     A
O507   Zn513   1.993   .     S
O508   C512    1.287   .     A
O508   Zn514   1.993   .     S
O509   Zn514   2.016   .     S
O509   C511    1.286   .     A
O510   C512    1.286   .     A
O510   Zn513   2.016   .     S
C511   C518    1.419   .     S
C512   C517    1.419   .     S
Zn513  N534    2.021   .     S
Zn514  N533    2.021   .     S
C515   C525    1.390   .     A
C515   F535    1.361   .     S
C515   C517    1.387   .     A
C516   F536    1.361   .     S
C516   C526    1.390   .     A
C516   C518    1.387   .     A
C517   C519    1.388   .     A
C518   C520    1.388   .     A
C519   F537    1.360   .     S
C519   C521    1.395   .     A
C520   C522    1.395   .     A
C520   F538    1.360   .     S
C521   C527    1.413   .     A
C521   C523    1.422   .     A
C522   C528    1.413   .     A
C522   C524    1.422   .     A
C523   C525    1.418   .     A
C524   C526    1.418   .     A
C524   C73     1.397   1_556 S
C525   C530    1.403   .     A
C526   C529    1.403   .     A
C527   N539    1.435   .     S
C528   N542    1.435   .     S
C528   C80     1.391   1_556 S
C529   F545    1.360   .     S
C529   C77     1.391   1_556 S
C530   F546    1.360   .     S
C531   C682    1.346   .     S
C531   F697    1.365   .     S
C532   C831    1.346   1_545 S
C532   F848    1.365   1_545 S
N533   N584    1.277   .     S
N533   F599    1.335   .     S
N539   O541    1.301   .     A
N539   O540    1.301   .     A
N542   O544    1.301   .     A
N542   O543    1.302   .     A
F547   C831    1.365   1_545 S
F548   C682    1.365   .     S
F550   N584    1.335   .     S
O551   C555    1.277   .     A
O551   Zn563   1.971   .     S
O552   C556    1.277   .     A
O552   Zn564   1.971   .     S
O553   Zn564   1.987   .     S
O553   C555    1.288   .     A
O554   C556    1.288   .     A
O554   Zn563   1.987   .     S
C555   C581    1.400   .     S
C556   C582    1.400   .     S
O557   C561    1.287   .     A
O557   Zn563   1.993   .     S
O558   C562    1.287   .     A
O558   Zn564   1.993   .     S
O559   Zn564   2.016   .     S
O559   C561    1.286   .     A
O560   C562    1.286   .     A
O560   Zn563   2.016   .     S
C561   C568    1.419   .     S
C562   C567    1.419   .     S
Zn563  N584    2.021   .     S
Zn564  N583    2.021   .     S
C565   C575    1.390   .     A
C565   F585    1.361   .     S
C565   C567    1.387   .     A
C566   F586    1.361   .     S
C566   C576    1.390   .     A
C566   C568    1.387   .     A
C567   C569    1.388   .     A
C568   C570    1.388   .     A
C569   F587    1.360   .     S
C569   C571    1.395   .     A
C570   C572    1.395   .     A
C570   F588    1.360   .     S
C571   C577    1.413   .     A
C571   C573    1.422   .     A
C572   C578    1.413   .     A
C572   C574    1.422   .     A
C573   C575    1.418   .     A
C574   C576    1.418   .     A
C574   C123    1.397   1_556 S
C575   C580    1.403   .     A
C576   C579    1.403   .     A
C577   N589    1.435   .     S
C578   N592    1.435   .     S
C578   C130    1.391   1_556 S
C579   F595    1.360   .     S
C579   C127    1.391   1_556 S
C580   F596    1.360   .     S
C581   C732    1.346   .     S
C581   F747    1.365   .     S
C582   C881    1.346   1_545 S
C582   F898    1.365   1_545 S
N583   N484    1.277   1_655 S
N583   F499    1.335   1_655 S
N589   O591    1.301   .     A
N589   O590    1.301   .     A
N592   O594    1.301   .     A
N592   O593    1.302   .     A
F597   C881    1.365   1_545 S
F598   C732    1.365   .     S
F600   N484    1.335   1_655 S
O601   C605    1.277   .     A
O601   Zn613   1.971   .     S
O602   C606    1.277   .     A
O602   Zn614   1.971   .     S
O603   Zn614   1.987   .     S
O603   C605    1.288   .     A
O604   C606    1.288   .     A
O604   Zn613   1.987   .     S
C605   C631    1.400   .     S
C606   C632    1.400   .     S
O607   C611    1.287   .     A
O607   Zn613   1.993   .     S
O608   C612    1.287   .     A
O608   Zn614   1.993   .     S
O609   Zn614   2.016   .     S
O609   C611    1.286   .     A
O610   C612    1.286   .     A
O610   Zn613   2.016   .     S
C611   C618    1.419   .     S
C612   C617    1.419   .     S
Zn613  N634    2.021   .     S
Zn614  N633    2.021   .     S
C615   C625    1.390   .     A
C615   F635    1.361   .     S
C615   C617    1.387   .     A
C616   F636    1.361   .     S
C616   C626    1.390   .     A
C616   C618    1.387   .     A
C617   C619    1.388   .     A
C618   C620    1.388   .     A
C619   F637    1.360   .     S
C619   C621    1.395   .     A
C620   C622    1.395   .     A
C620   F638    1.360   .     S
C621   C627    1.413   .     A
C621   C623    1.422   .     A
C622   C628    1.413   .     A
C622   C624    1.422   .     A
C623   C625    1.418   .     A
C624   C626    1.418   .     A
C624   C173    1.397   1_556 S
C625   C630    1.403   .     A
C626   C629    1.403   .     A
C627   N639    1.435   .     S
C628   N642    1.435   .     S
C628   C180    1.391   1_556 S
C629   F645    1.360   .     S
C629   C177    1.391   1_556 S
C630   F646    1.360   .     S
C631   C782    1.346   .     S
C631   F797    1.365   .     S
N633   N684    1.277   .     S
N633   F699    1.335   .     S
N634   N733    1.277   1_455 S
N634   F750    1.335   1_455 S
N639   O641    1.301   .     A
N639   O640    1.301   .     A
N642   O644    1.301   .     A
N642   O643    1.302   .     A
F648   C782    1.365   .     S
F649   N733    1.335   1_455 S
F650   N684    1.335   .     S
O651   C655    1.277   .     A
O651   Zn663   1.971   .     S
O652   C656    1.277   .     A
O652   Zn664   1.971   .     S
O653   Zn664   1.987   .     S
O653   C655    1.288   .     A
O654   C656    1.288   .     A
O654   Zn663   1.987   .     S
C655   C681    1.400   .     S
C656   C682    1.400   .     S
O657   C661    1.287   .     A
O657   Zn663   1.993   .     S
O658   C662    1.287   .     A
O658   Zn664   1.993   .     S
O659   Zn664   2.016   .     S
O659   C661    1.286   .     A
O660   C662    1.286   .     A
O660   Zn663   2.016   .     S
C661   C668    1.419   .     S
C662   C667    1.419   .     S
Zn663  N684    2.021   .     S
Zn664  N683    2.021   .     S
C665   C675    1.390   .     A
C665   F685    1.361   .     S
C665   C667    1.387   .     A
C666   F686    1.361   .     S
C666   C676    1.390   .     A
C666   C668    1.387   .     A
C667   C669    1.388   .     A
C668   C670    1.388   .     A
C669   F687    1.360   .     S
C669   C671    1.395   .     A
C670   C672    1.395   .     A
C670   F688    1.360   .     S
C671   C677    1.413   .     A
C671   C673    1.422   .     A
C672   C678    1.413   .     A
C672   C674    1.422   .     A
C673   C675    1.418   .     A
C674   C676    1.418   .     A
C674   C223    1.397   1_556 S
C675   C680    1.403   .     A
C676   C679    1.403   .     A
C677   N689    1.435   .     S
C678   N692    1.435   .     S
C678   C230    1.391   1_556 S
C679   F695    1.360   .     S
C679   C227    1.391   1_556 S
C680   F696    1.360   .     S
C681   C832    1.346   .     S
C681   F847    1.365   .     S
N683   N734    1.277   .     S
N683   F749    1.335   .     S
N689   O691    1.301   .     A
N689   O690    1.301   .     A
N692   O694    1.301   .     A
N692   O693    1.302   .     A
F698   C832    1.365   .     S
F700   N734    1.335   .     S
O701   C705    1.277   .     A
O701   Zn713   1.971   .     S
O702   C706    1.277   .     A
O702   Zn714   1.971   .     S
O703   Zn714   1.987   .     S
O703   C705    1.288   .     A
O704   C706    1.288   .     A
O704   Zn713   1.987   .     S
C705   C731    1.400   .     S
C706   C732    1.400   .     S
O707   C711    1.287   .     A
O707   Zn713   1.993   .     S
O708   C712    1.287   .     A
O708   Zn714   1.993   .     S
O709   Zn714   2.016   .     S
O709   C711    1.286   .     A
O710   C712    1.286   .     A
O710   Zn713   2.016   .     S
C711   C718    1.419   .     S
C712   C717    1.419   .     S
Zn713  N734    2.021   .     S
Zn714  N733    2.021   .     S
C715   C725    1.390   .     A
C715   F735    1.361   .     S
C715   C717    1.387   .     A
C716   F736    1.361   .     S
C716   C726    1.390   .     A
C716   C718    1.387   .     A
C717   C719    1.388   .     A
C718   C720    1.388   .     A
C719   F737    1.360   .     S
C719   C721    1.395   .     A
C720   C722    1.395   .     A
C720   F738    1.360   .     S
C721   C727    1.413   .     A
C721   C723    1.422   .     A
C722   C728    1.413   .     A
C722   C724    1.422   .     A
C723   C725    1.418   .     A
C724   C726    1.418   .     A
C724   C273    1.397   1_556 S
C725   C730    1.403   .     A
C726   C729    1.403   .     A
C727   N739    1.435   .     S
C728   N742    1.435   .     S
C728   C280    1.391   1_556 S
C729   F745    1.360   .     S
C729   C277    1.391   1_556 S
C730   F746    1.360   .     S
C731   C882    1.346   .     S
C731   F897    1.365   .     S
N733   N634    1.277   1_655 S
N733   F649    1.335   1_655 S
N739   O741    1.301   .     A
N739   O740    1.301   .     A
N742   O744    1.301   .     A
N742   O743    1.302   .     A
F748   C882    1.365   .     S
F750   N634    1.335   1_655 S
O751   C755    1.277   .     A
O751   Zn763   1.971   .     S
O752   C756    1.277   .     A
O752   Zn764   1.971   .     S
O753   Zn764   1.987   .     S
O753   C755    1.288   .     A
O754   C756    1.288   .     A
O754   Zn763   1.987   .     S
C755   C781    1.400   .     S
C756   C782    1.400   .     S
O757   C761    1.287   .     A
O757   Zn763   1.993   .     S
O758   C762    1.287   .     A
O758   Zn764   1.993   .     S
O759   Zn764   2.016   .     S
O759   C761    1.286   .     A
O760   C762    1.286   .     A
O760   Zn763   2.016   .     S
C761   C768    1.419   .     S
C762   C767    1.419   .     S
Zn763  N784    2.021   .     S
Zn764  N783    2.021   .     S
C765   C775    1.390   .     A
C765   F785    1.361   .     S
C765   C767    1.387   .     A
C766   F786    1.361   .     S
C766   C776    1.390   .     A
C766   C768    1.387   .     A
C767   C769    1.388   .     A
C768   C770    1.388   .     A
C769   F787    1.360   .     S
C769   C771    1.395   .     A
C770   C772    1.395   .     A
C770   F788    1.360   .     S
C771   C777    1.413   .     A
C771   C773    1.422   .     A
C772   C778    1.413   .     A
C772   C774    1.422   .     A
C773   C775    1.418   .     A
C774   C776    1.418   .     A
C774   C323    1.397   1_556 S
C775   C780    1.403   .     A
C776   C779    1.403   .     A
C777   N789    1.435   .     S
C778   N792    1.435   .     S
C778   C330    1.391   1_556 S
C779   F795    1.360   .     S
C779   C327    1.391   1_556 S
C780   F796    1.360   .     S
C781   C482    1.346   1_565 S
C781   F497    1.365   1_565 S
N783   N834    1.277   .     S
N783   F849    1.335   .     S
N784   N883    1.277   1_455 S
N784   F900    1.335   1_455 S
N789   O791    1.301   .     A
N789   O790    1.301   .     A
N792   O794    1.301   .     A
N792   O793    1.302   .     A
F798   C482    1.365   1_565 S
F799   N883    1.335   1_455 S
F800   N834    1.335   .     S
O801   C805    1.277   .     A
O801   Zn813   1.971   .     S
O802   C806    1.277   .     A
O802   Zn814   1.971   .     S
O803   Zn814   1.987   .     S
O803   C805    1.288   .     A
O804   C806    1.288   .     A
O804   Zn813   1.987   .     S
C805   C831    1.400   .     S
C806   C832    1.400   .     S
O807   C811    1.287   .     A
O807   Zn813   1.993   .     S
O808   C812    1.287   .     A
O808   Zn814   1.993   .     S
O809   Zn814   2.016   .     S
O809   C811    1.286   .     A
O810   C812    1.286   .     A
O810   Zn813   2.016   .     S
C811   C818    1.419   .     S
C812   C817    1.419   .     S
Zn813  N834    2.021   .     S
Zn814  N833    2.021   .     S
C815   C825    1.390   .     A
C815   F835    1.361   .     S
C815   C817    1.387   .     A
C816   F836    1.361   .     S
C816   C826    1.390   .     A
C816   C818    1.387   .     A
C817   C819    1.388   .     A
C818   C820    1.388   .     A
C819   F837    1.360   .     S
C819   C821    1.395   .     A
C820   C822    1.395   .     A
C820   F838    1.360   .     S
C821   C827    1.413   .     A
C821   C823    1.422   .     A
C822   C828    1.413   .     A
C822   C824    1.422   .     A
C823   C825    1.418   .     A
C824   C826    1.418   .     A
C824   C373    1.397   1_556 S
C825   C830    1.403   .     A
C826   C829    1.403   .     A
C827   N839    1.435   .     S
C828   N842    1.435   .     S
C828   C380    1.391   1_556 S
C829   F845    1.360   .     S
C829   C377    1.391   1_556 S
C830   F846    1.360   .     S
C831   C532    1.346   1_565 S
C831   F547    1.365   1_565 S
N833   N884    1.277   .     S
N833   F899    1.335   .     S
N839   O841    1.301   .     A
N839   O840    1.301   .     A
N842   O844    1.301   .     A
N842   O843    1.302   .     A
F848   C532    1.365   1_565 S
F850   N884    1.335   .     S
O851   C855    1.277   .     A
O851   Zn863   1.971   .     S
O852   C856    1.277   .     A
O852   Zn864   1.971   .     S
O853   Zn864   1.987   .     S
O853   C855    1.288   .     A
O854   C856    1.288   .     A
O854   Zn863   1.987   .     S
C855   C881    1.400   .     S
C856   C882    1.400   .     S
O857   C861    1.287   .     A
O857   Zn863   1.993   .     S
O858   C862    1.287   .     A
O858   Zn864   1.993   .     S
O859   Zn864   2.016   .     S
O859   C861    1.286   .     A
O860   C862    1.286   .     A
O860   Zn863   2.016   .     S
C861   C868    1.419   .     S
C862   C867    1.419   .     S
Zn863  N884    2.021   .     S
Zn864  N883    2.021   .     S
C865   C875    1.390   .     A
C865   F885    1.361   .     S
C865   C867    1.387   .     A
C866   F886    1.361   .     S
C866   C876    1.390   .     A
C866   C868    1.387   .     A
C867   C869    1.388   .     A
C868   C870    1.388   .     A
C869   F887    1.360   .     S
C869   C871    1.395   .     A
C870   C872    1.395   .     A
C870   F888    1.360   .     S
C871   C877    1.413   .     A
C871   C873    1.422   .     A
C872   C878    1.413   .     A
C872   C874    1.422   .     A
C873   C875    1.418   .     A
C874   C876    1.418   .     A
C874   C423    1.397   1_556 S
C875   C880    1.403   .     A
C876   C879    1.403   .     A
C877   N889    1.435   .     S
C878   N892    1.435   .     S
C878   C430    1.391   1_556 S
C879   F895    1.360   .     S
C879   C427    1.391   1_556 S
C880   F896    1.360   .     S
C881   C582    1.346   1_565 S
C881   F597    1.365   1_565 S
N883   N784    1.277   1_655 S
N883   F799    1.335   1_655 S
N889   O891    1.301   .     A
N889   O890    1.301   .     A
N892   O894    1.301   .     A
N892   O893    1.302   .     A
F898   C582    1.365   1_565 S
F900   N784    1.335   1_655 S
