data_str_m3_o10_o16_pcu_sym.25
_audit_creation_date              2020-01-03
_audit_creation_method            'Materials Studio'
_symmetry_space_group_name_H-M    'P1'
_symmetry_Int_Tables_number       1
_symmetry_cell_setting            triclinic
loop_
_symmetry_equiv_pos_as_xyz
  x,y,z
_cell_length_a                    23.3371
_cell_length_b                    25.7103
_cell_length_c                    25.0450
_cell_angle_alpha                 92.0513
_cell_angle_beta                  102.9024
_cell_angle_gamma                 93.8902
loop_
_atom_site_label
_atom_site_type_symbol
_atom_site_fract_x
_atom_site_fract_y
_atom_site_fract_z
_atom_site_U_iso_or_equiv
_atom_site_adp_type
_atom_site_occupancy
C1     C     0.01487   0.26492   0.24871   0.00000  Uiso   1.00
C2     C     0.05789   0.17195   0.41398   0.00000  Uiso   1.00
C3     C     0.02268   0.31943   0.24803   0.00000  Uiso   1.00
C4     C     0.03664   0.16718   0.35462   0.00000  Uiso   1.00
C5     C     0.31084   0.01395   0.25250   0.00000  Uiso   1.00
C6     C     0.31854   0.06843   0.25149   0.00000  Uiso   1.00
C7     C     0.29605   0.16106   0.14593   0.00000  Uiso   1.00
C8     C     0.24044   0.06268   0.03205   0.00000  Uiso   1.00
C9     C     0.27010   0.14089   0.09116   0.00000  Uiso   1.00
C10    C     0.03254   0.20935   0.44206   0.00000  Uiso   1.00
C11    C     0.05315   0.22037   0.49788   0.00000  Uiso   1.00
C12    C     0.12638   0.15755   0.49935   0.00000  Uiso   1.00
C13    C     0.10065   0.19561   0.02631   0.00000  Uiso   1.00
C14    C     0.10330   0.14269   0.44340   0.00000  Uiso   1.00
C15    C     0.17719   0.13493   0.02579   0.00000  Uiso   1.00
C16    C     0.18880   0.08521   0.00689   0.00000  Uiso   1.00
C17    C     0.15292   0.06323   0.45814   0.00000  Uiso   1.00
C18    C     0.12742   0.09908   0.42111   0.00000  Uiso   1.00
C19    C     0.21923   0.16309   0.06604   0.00000  Uiso   1.00
C20    C     0.28118   0.09064   0.07438   0.00000  Uiso   1.00
H21    H     0.31936   0.07210   0.09595   0.00000  Uiso   1.00
H22    H     0.03316   0.24918   0.01891   0.00000  Uiso   1.00
H23    H     0.06528   0.00310   0.24373   0.00000  Uiso   1.00
H24    H     0.21530   0.18466   0.41108   0.00000  Uiso   1.00
H25    H     0.26825   0.33028   0.25683   0.00000  Uiso   1.00
H26    H     0.15719   0.12312   0.21197   0.00000  Uiso   1.00
H27    H     0.17585   0.21210   0.28523   0.00000  Uiso   1.00
H28    H     0.16385   0.02634   0.44207   0.00000  Uiso   1.00
H29    H     0.24985   0.02443   0.01821   0.00000  Uiso   1.00
H30    H     0.21235   0.20223   0.07961   0.00000  Uiso   1.00
H31    H     0.33055   0.23121   0.42039   0.00000  Uiso   1.00
H32    H     0.11594   0.20525   0.06983   0.00000  Uiso   1.00
N33    N     0.14493   0.15223   0.23543   0.00000  Uiso   1.00
N34    N     0.18840   0.18110   0.26458   0.00000  Uiso   1.00
O35    O     0.29769   0.24629   0.25358   0.00000  Uiso   1.00
O36    O     0.14312   0.08719   0.31903   0.00000  Uiso   1.00
O37    O     0.18997   0.17477   0.37432   0.00000  Uiso   1.00
O38    O     0.05742   0.23704   0.24424   0.00000  Uiso   1.00
O39    O     0.31490   0.17358   0.33380   0.00000  Uiso   1.00
O40    O     0.07463   0.16433   0.32446   0.00000  Uiso   1.00
O41    O     0.27592   0.09629   0.25577   0.00000  Uiso   1.00
O42    O     0.03565   0.08704   0.24643   0.00000  Uiso   1.00
O43    O     0.25870   0.16901   0.17554   0.00000  Uiso   1.00
O44    O     0.01843   0.15976   0.16620   0.00000  Uiso   1.00
O45    O     0.23070   0.08475   0.39205   0.00000  Uiso   1.00
S46    S     0.17364   0.11016   0.37479   0.00000  Uiso   1.00
Zn47   Zn    0.27119   0.17284   0.25624   0.00000  Uiso   1.00
Zn48   Zn    0.06214   0.16049   0.24377   0.00000  Uiso   1.00
C49    C     0.34820   0.26492   0.24871   0.00000  Uiso   1.00
C50    C     0.39122   0.17195   0.41398   0.00000  Uiso   1.00
C51    C     0.35602   0.31943   0.24803   0.00000  Uiso   1.00
C52    C     0.36998   0.16718   0.35462   0.00000  Uiso   1.00
C53    C     0.64417   0.01395   0.25250   0.00000  Uiso   1.00
C54    C     0.65187   0.06843   0.25149   0.00000  Uiso   1.00
C55    C     0.62938   0.16106   0.14593   0.00000  Uiso   1.00
C56    C     0.57377   0.06268   0.03205   0.00000  Uiso   1.00
C57    C     0.60344   0.14089   0.09116   0.00000  Uiso   1.00
C58    C     0.36587   0.20935   0.44206   0.00000  Uiso   1.00
C59    C     0.38649   0.22037   0.49788   0.00000  Uiso   1.00
C60    C     0.45971   0.15755   0.49935   0.00000  Uiso   1.00
C61    C     0.43398   0.19561   0.02631   0.00000  Uiso   1.00
C62    C     0.43663   0.14269   0.44340   0.00000  Uiso   1.00
C63    C     0.51052   0.13493   0.02579   0.00000  Uiso   1.00
C64    C     0.52214   0.08521   0.00689   0.00000  Uiso   1.00
C65    C     0.48626   0.06323   0.45814   0.00000  Uiso   1.00
C66    C     0.46075   0.09908   0.42111   0.00000  Uiso   1.00
C67    C     0.55256   0.16309   0.06604   0.00000  Uiso   1.00
C68    C     0.61452   0.09064   0.07438   0.00000  Uiso   1.00
H69    H     0.65270   0.07210   0.09595   0.00000  Uiso   1.00
H70    H     0.36649   0.24918   0.01891   0.00000  Uiso   1.00
H71    H     0.39862   0.00310   0.24373   0.00000  Uiso   1.00
H72    H     0.54864   0.18466   0.41108   0.00000  Uiso   1.00
H73    H     0.60158   0.33028   0.25683   0.00000  Uiso   1.00
H74    H     0.49052   0.12312   0.21197   0.00000  Uiso   1.00
H75    H     0.50919   0.21210   0.28523   0.00000  Uiso   1.00
H76    H     0.49719   0.02634   0.44207   0.00000  Uiso   1.00
H77    H     0.58319   0.02443   0.01821   0.00000  Uiso   1.00
H78    H     0.54569   0.20223   0.07961   0.00000  Uiso   1.00
H79    H     0.66388   0.23121   0.42039   0.00000  Uiso   1.00
H80    H     0.44927   0.20525   0.06983   0.00000  Uiso   1.00
N81    N     0.47827   0.15223   0.23543   0.00000  Uiso   1.00
N82    N     0.52173   0.18110   0.26458   0.00000  Uiso   1.00
O83    O     0.63102   0.24629   0.25358   0.00000  Uiso   1.00
O84    O     0.47645   0.08719   0.31903   0.00000  Uiso   1.00
O85    O     0.52330   0.17477   0.37432   0.00000  Uiso   1.00
O86    O     0.39075   0.23704   0.24424   0.00000  Uiso   1.00
O87    O     0.64823   0.17358   0.33380   0.00000  Uiso   1.00
O88    O     0.40796   0.16433   0.32446   0.00000  Uiso   1.00
O89    O     0.60925   0.09629   0.25577   0.00000  Uiso   1.00
O90    O     0.36898   0.08704   0.24643   0.00000  Uiso   1.00
O91    O     0.59204   0.16901   0.17554   0.00000  Uiso   1.00
O92    O     0.35177   0.15976   0.16620   0.00000  Uiso   1.00
O93    O     0.56403   0.08475   0.39205   0.00000  Uiso   1.00
S94    S     0.50697   0.11016   0.37479   0.00000  Uiso   1.00
Zn95   Zn    0.60453   0.17284   0.25624   0.00000  Uiso   1.00
Zn96   Zn    0.39547   0.16049   0.24377   0.00000  Uiso   1.00
C97    C     0.68153   0.26492   0.24871   0.00000  Uiso   1.00
C98    C     0.72456   0.17195   0.41398   0.00000  Uiso   1.00
C99    C     0.68935   0.31943   0.24803   0.00000  Uiso   1.00
C100   C     0.70331   0.16718   0.35462   0.00000  Uiso   1.00
C101   C     0.97750   0.01395   0.25250   0.00000  Uiso   1.00
C102   C     0.98520   0.06843   0.25149   0.00000  Uiso   1.00
C103   C     0.96272   0.16106   0.14593   0.00000  Uiso   1.00
C104   C     0.90710   0.06268   0.03205   0.00000  Uiso   1.00
C105   C     0.93677   0.14089   0.09116   0.00000  Uiso   1.00
C106   C     0.69920   0.20935   0.44206   0.00000  Uiso   1.00
C107   C     0.71982   0.22037   0.49788   0.00000  Uiso   1.00
C108   C     0.79304   0.15755   0.49935   0.00000  Uiso   1.00
C109   C     0.76732   0.19561   0.02631   0.00000  Uiso   1.00
C110   C     0.76997   0.14269   0.44340   0.00000  Uiso   1.00
C111   C     0.84386   0.13493   0.02579   0.00000  Uiso   1.00
C112   C     0.85547   0.08521   0.00689   0.00000  Uiso   1.00
C113   C     0.81959   0.06323   0.45814   0.00000  Uiso   1.00
C114   C     0.79409   0.09908   0.42111   0.00000  Uiso   1.00
C115   C     0.88589   0.16309   0.06604   0.00000  Uiso   1.00
C116   C     0.94785   0.09064   0.07438   0.00000  Uiso   1.00
H117   H     0.98603   0.07210   0.09595   0.00000  Uiso   1.00
H118   H     0.69983   0.24918   0.01891   0.00000  Uiso   1.00
H119   H     0.73195   0.00310   0.24373   0.00000  Uiso   1.00
H120   H     0.88197   0.18466   0.41108   0.00000  Uiso   1.00
H121   H     0.93491   0.33028   0.25683   0.00000  Uiso   1.00
H122   H     0.82385   0.12312   0.21197   0.00000  Uiso   1.00
H123   H     0.84252   0.21210   0.28523   0.00000  Uiso   1.00
H124   H     0.83052   0.02634   0.44207   0.00000  Uiso   1.00
H125   H     0.91652   0.02443   0.01821   0.00000  Uiso   1.00
H126   H     0.87902   0.20223   0.07961   0.00000  Uiso   1.00
H127   H     0.99721   0.23121   0.42039   0.00000  Uiso   1.00
H128   H     0.78260   0.20525   0.06983   0.00000  Uiso   1.00
N129   N     0.81160   0.15223   0.23543   0.00000  Uiso   1.00
N130   N     0.85507   0.18110   0.26458   0.00000  Uiso   1.00
O131   O     0.96435   0.24629   0.25358   0.00000  Uiso   1.00
O132   O     0.80978   0.08719   0.31903   0.00000  Uiso   1.00
O133   O     0.85664   0.17477   0.37432   0.00000  Uiso   1.00
O134   O     0.72408   0.23704   0.24424   0.00000  Uiso   1.00
O135   O     0.98157   0.17358   0.33380   0.00000  Uiso   1.00
O136   O     0.74130   0.16433   0.32446   0.00000  Uiso   1.00
O137   O     0.94258   0.09629   0.25577   0.00000  Uiso   1.00
O138   O     0.70231   0.08704   0.24643   0.00000  Uiso   1.00
O139   O     0.92537   0.16901   0.17554   0.00000  Uiso   1.00
O140   O     0.68510   0.15976   0.16620   0.00000  Uiso   1.00
O141   O     0.89736   0.08475   0.39205   0.00000  Uiso   1.00
S142   S     0.84030   0.11016   0.37479   0.00000  Uiso   1.00
Zn143  Zn    0.93786   0.17284   0.25624   0.00000  Uiso   1.00
Zn144  Zn    0.72881   0.16049   0.24377   0.00000  Uiso   1.00
C145   C     0.01487   0.59825   0.24871   0.00000  Uiso   1.00
C146   C     0.05789   0.50529   0.41398   0.00000  Uiso   1.00
C147   C     0.02268   0.65276   0.24803   0.00000  Uiso   1.00
C148   C     0.03664   0.50052   0.35462   0.00000  Uiso   1.00
C149   C     0.31084   0.34728   0.25250   0.00000  Uiso   1.00
C150   C     0.31854   0.40176   0.25149   0.00000  Uiso   1.00
C151   C     0.29605   0.49439   0.14593   0.00000  Uiso   1.00
C152   C     0.24044   0.39601   0.03205   0.00000  Uiso   1.00
C153   C     0.27010   0.47422   0.09116   0.00000  Uiso   1.00
C154   C     0.03254   0.54268   0.44206   0.00000  Uiso   1.00
C155   C     0.05315   0.55371   0.49788   0.00000  Uiso   1.00
C156   C     0.12638   0.49088   0.49935   0.00000  Uiso   1.00
C157   C     0.10065   0.52895   0.02631   0.00000  Uiso   1.00
C158   C     0.10330   0.47602   0.44340   0.00000  Uiso   1.00
C159   C     0.17719   0.46827   0.02579   0.00000  Uiso   1.00
C160   C     0.18880   0.41854   0.00689   0.00000  Uiso   1.00
C161   C     0.15292   0.39656   0.45814   0.00000  Uiso   1.00
C162   C     0.12742   0.43242   0.42111   0.00000  Uiso   1.00
C163   C     0.21923   0.49642   0.06604   0.00000  Uiso   1.00
C164   C     0.28118   0.42397   0.07438   0.00000  Uiso   1.00
H165   H     0.31936   0.40544   0.09595   0.00000  Uiso   1.00
H166   H     0.03316   0.58252   0.01891   0.00000  Uiso   1.00
H167   H     0.06528   0.33643   0.24373   0.00000  Uiso   1.00
H168   H     0.21530   0.51799   0.41108   0.00000  Uiso   1.00
H169   H     0.26825   0.66361   0.25683   0.00000  Uiso   1.00
H170   H     0.15719   0.45645   0.21197   0.00000  Uiso   1.00
H171   H     0.17585   0.54543   0.28523   0.00000  Uiso   1.00
H172   H     0.16385   0.35967   0.44207   0.00000  Uiso   1.00
H173   H     0.24985   0.35777   0.01821   0.00000  Uiso   1.00
H174   H     0.21235   0.53556   0.07961   0.00000  Uiso   1.00
H175   H     0.33055   0.56454   0.42039   0.00000  Uiso   1.00
H176   H     0.11594   0.53859   0.06983   0.00000  Uiso   1.00
N177   N     0.14493   0.48556   0.23543   0.00000  Uiso   1.00
N178   N     0.18840   0.51444   0.26458   0.00000  Uiso   1.00
O179   O     0.29769   0.57963   0.25358   0.00000  Uiso   1.00
O180   O     0.14312   0.42052   0.31903   0.00000  Uiso   1.00
O181   O     0.18997   0.50810   0.37432   0.00000  Uiso   1.00
O182   O     0.05742   0.57038   0.24424   0.00000  Uiso   1.00
O183   O     0.31490   0.50691   0.33380   0.00000  Uiso   1.00
O184   O     0.07463   0.49766   0.32446   0.00000  Uiso   1.00
O185   O     0.27592   0.42962   0.25577   0.00000  Uiso   1.00
O186   O     0.03565   0.42037   0.24643   0.00000  Uiso   1.00
O187   O     0.25870   0.50234   0.17554   0.00000  Uiso   1.00
O188   O     0.01843   0.49309   0.16620   0.00000  Uiso   1.00
O189   O     0.23070   0.41808   0.39205   0.00000  Uiso   1.00
S190   S     0.17364   0.44349   0.37479   0.00000  Uiso   1.00
Zn191  Zn    0.27119   0.50618   0.25624   0.00000  Uiso   1.00
Zn192  Zn    0.06214   0.49382   0.24377   0.00000  Uiso   1.00
C193   C     0.34820   0.59825   0.24871   0.00000  Uiso   1.00
C194   C     0.39122   0.50529   0.41398   0.00000  Uiso   1.00
C195   C     0.35602   0.65276   0.24803   0.00000  Uiso   1.00
C196   C     0.36998   0.50052   0.35462   0.00000  Uiso   1.00
C197   C     0.64417   0.34728   0.25250   0.00000  Uiso   1.00
C198   C     0.65187   0.40176   0.25149   0.00000  Uiso   1.00
C199   C     0.62938   0.49439   0.14593   0.00000  Uiso   1.00
C200   C     0.57377   0.39601   0.03205   0.00000  Uiso   1.00
C201   C     0.60344   0.47422   0.09116   0.00000  Uiso   1.00
C202   C     0.36587   0.54268   0.44206   0.00000  Uiso   1.00
C203   C     0.38649   0.55371   0.49788   0.00000  Uiso   1.00
C204   C     0.45971   0.49088   0.49935   0.00000  Uiso   1.00
C205   C     0.43398   0.52895   0.02631   0.00000  Uiso   1.00
C206   C     0.43663   0.47602   0.44340   0.00000  Uiso   1.00
C207   C     0.51052   0.46827   0.02579   0.00000  Uiso   1.00
C208   C     0.52214   0.41854   0.00689   0.00000  Uiso   1.00
C209   C     0.48626   0.39656   0.45814   0.00000  Uiso   1.00
C210   C     0.46075   0.43242   0.42111   0.00000  Uiso   1.00
C211   C     0.55256   0.49642   0.06604   0.00000  Uiso   1.00
C212   C     0.61452   0.42397   0.07438   0.00000  Uiso   1.00
H213   H     0.65270   0.40544   0.09595   0.00000  Uiso   1.00
H214   H     0.36649   0.58252   0.01891   0.00000  Uiso   1.00
H215   H     0.39862   0.33643   0.24373   0.00000  Uiso   1.00
H216   H     0.54864   0.51799   0.41108   0.00000  Uiso   1.00
H217   H     0.60158   0.66361   0.25683   0.00000  Uiso   1.00
H218   H     0.49052   0.45645   0.21197   0.00000  Uiso   1.00
H219   H     0.50919   0.54543   0.28523   0.00000  Uiso   1.00
H220   H     0.49719   0.35967   0.44207   0.00000  Uiso   1.00
H221   H     0.58319   0.35777   0.01821   0.00000  Uiso   1.00
H222   H     0.54569   0.53556   0.07961   0.00000  Uiso   1.00
H223   H     0.66388   0.56454   0.42039   0.00000  Uiso   1.00
H224   H     0.44927   0.53859   0.06983   0.00000  Uiso   1.00
N225   N     0.47827   0.48556   0.23543   0.00000  Uiso   1.00
N226   N     0.52173   0.51444   0.26458   0.00000  Uiso   1.00
O227   O     0.63102   0.57963   0.25358   0.00000  Uiso   1.00
O228   O     0.47645   0.42052   0.31903   0.00000  Uiso   1.00
O229   O     0.52330   0.50810   0.37432   0.00000  Uiso   1.00
O230   O     0.39075   0.57038   0.24424   0.00000  Uiso   1.00
O231   O     0.64823   0.50691   0.33380   0.00000  Uiso   1.00
O232   O     0.40796   0.49766   0.32446   0.00000  Uiso   1.00
O233   O     0.60925   0.42962   0.25577   0.00000  Uiso   1.00
O234   O     0.36898   0.42037   0.24643   0.00000  Uiso   1.00
O235   O     0.59204   0.50234   0.17554   0.00000  Uiso   1.00
O236   O     0.35177   0.49309   0.16620   0.00000  Uiso   1.00
O237   O     0.56403   0.41808   0.39205   0.00000  Uiso   1.00
S238   S     0.50697   0.44349   0.37479   0.00000  Uiso   1.00
Zn239  Zn    0.60453   0.50618   0.25624   0.00000  Uiso   1.00
Zn240  Zn    0.39547   0.49382   0.24377   0.00000  Uiso   1.00
C241   C     0.68153   0.59825   0.24871   0.00000  Uiso   1.00
C242   C     0.72456   0.50529   0.41398   0.00000  Uiso   1.00
C243   C     0.68935   0.65276   0.24803   0.00000  Uiso   1.00
C244   C     0.70331   0.50052   0.35462   0.00000  Uiso   1.00
C245   C     0.97750   0.34728   0.25250   0.00000  Uiso   1.00
C246   C     0.98520   0.40176   0.25149   0.00000  Uiso   1.00
C247   C     0.96272   0.49439   0.14593   0.00000  Uiso   1.00
C248   C     0.90710   0.39601   0.03205   0.00000  Uiso   1.00
C249   C     0.93677   0.47422   0.09116   0.00000  Uiso   1.00
C250   C     0.69920   0.54268   0.44206   0.00000  Uiso   1.00
C251   C     0.71982   0.55371   0.49788   0.00000  Uiso   1.00
C252   C     0.79304   0.49088   0.49935   0.00000  Uiso   1.00
C253   C     0.76732   0.52895   0.02631   0.00000  Uiso   1.00
C254   C     0.76997   0.47602   0.44340   0.00000  Uiso   1.00
C255   C     0.84386   0.46827   0.02579   0.00000  Uiso   1.00
C256   C     0.85547   0.41854   0.00689   0.00000  Uiso   1.00
C257   C     0.81959   0.39656   0.45814   0.00000  Uiso   1.00
C258   C     0.79409   0.43242   0.42111   0.00000  Uiso   1.00
C259   C     0.88589   0.49642   0.06604   0.00000  Uiso   1.00
C260   C     0.94785   0.42397   0.07438   0.00000  Uiso   1.00
H261   H     0.98603   0.40544   0.09595   0.00000  Uiso   1.00
H262   H     0.69983   0.58252   0.01891   0.00000  Uiso   1.00
H263   H     0.73195   0.33643   0.24373   0.00000  Uiso   1.00
H264   H     0.88197   0.51799   0.41108   0.00000  Uiso   1.00
H265   H     0.93491   0.66361   0.25683   0.00000  Uiso   1.00
H266   H     0.82385   0.45645   0.21197   0.00000  Uiso   1.00
H267   H     0.84252   0.54543   0.28523   0.00000  Uiso   1.00
H268   H     0.83052   0.35967   0.44207   0.00000  Uiso   1.00
H269   H     0.91652   0.35777   0.01821   0.00000  Uiso   1.00
H270   H     0.87902   0.53556   0.07961   0.00000  Uiso   1.00
H271   H     0.99721   0.56454   0.42039   0.00000  Uiso   1.00
H272   H     0.78260   0.53859   0.06983   0.00000  Uiso   1.00
N273   N     0.81160   0.48556   0.23543   0.00000  Uiso   1.00
N274   N     0.85507   0.51444   0.26458   0.00000  Uiso   1.00
O275   O     0.96435   0.57963   0.25358   0.00000  Uiso   1.00
O276   O     0.80978   0.42052   0.31903   0.00000  Uiso   1.00
O277   O     0.85664   0.50810   0.37432   0.00000  Uiso   1.00
O278   O     0.72408   0.57038   0.24424   0.00000  Uiso   1.00
O279   O     0.98157   0.50691   0.33380   0.00000  Uiso   1.00
O280   O     0.74130   0.49766   0.32446   0.00000  Uiso   1.00
O281   O     0.94258   0.42962   0.25577   0.00000  Uiso   1.00
O282   O     0.70231   0.42037   0.24643   0.00000  Uiso   1.00
O283   O     0.92537   0.50234   0.17554   0.00000  Uiso   1.00
O284   O     0.68510   0.49309   0.16620   0.00000  Uiso   1.00
O285   O     0.89736   0.41808   0.39205   0.00000  Uiso   1.00
S286   S     0.84030   0.44349   0.37479   0.00000  Uiso   1.00
Zn287  Zn    0.93786   0.50618   0.25624   0.00000  Uiso   1.00
Zn288  Zn    0.72881   0.49382   0.24377   0.00000  Uiso   1.00
C289   C     0.01487   0.93159   0.24871   0.00000  Uiso   1.00
C290   C     0.05789   0.83862   0.41398   0.00000  Uiso   1.00
C291   C     0.02268   0.98609   0.24803   0.00000  Uiso   1.00
C292   C     0.03664   0.83385   0.35462   0.00000  Uiso   1.00
C293   C     0.31084   0.68062   0.25250   0.00000  Uiso   1.00
C294   C     0.31854   0.73509   0.25149   0.00000  Uiso   1.00
C295   C     0.29605   0.82773   0.14593   0.00000  Uiso   1.00
C296   C     0.24044   0.72934   0.03205   0.00000  Uiso   1.00
C297   C     0.27010   0.80755   0.09116   0.00000  Uiso   1.00
C298   C     0.03254   0.87602   0.44206   0.00000  Uiso   1.00
C299   C     0.05315   0.88704   0.49788   0.00000  Uiso   1.00
C300   C     0.12638   0.82421   0.49935   0.00000  Uiso   1.00
C301   C     0.10065   0.86228   0.02631   0.00000  Uiso   1.00
C302   C     0.10330   0.80936   0.44340   0.00000  Uiso   1.00
C303   C     0.17719   0.80160   0.02579   0.00000  Uiso   1.00
C304   C     0.18880   0.75187   0.00689   0.00000  Uiso   1.00
C305   C     0.15292   0.72989   0.45814   0.00000  Uiso   1.00
C306   C     0.12742   0.76575   0.42111   0.00000  Uiso   1.00
C307   C     0.21923   0.82975   0.06604   0.00000  Uiso   1.00
C308   C     0.28118   0.75730   0.07438   0.00000  Uiso   1.00
H309   H     0.31936   0.73877   0.09595   0.00000  Uiso   1.00
H310   H     0.03316   0.91585   0.01891   0.00000  Uiso   1.00
H311   H     0.06528   0.66977   0.24373   0.00000  Uiso   1.00
H312   H     0.21530   0.85133   0.41108   0.00000  Uiso   1.00
H313   H     0.26825   0.99695   0.25683   0.00000  Uiso   1.00
H314   H     0.15719   0.78978   0.21197   0.00000  Uiso   1.00
H315   H     0.17585   0.87876   0.28523   0.00000  Uiso   1.00
H316   H     0.16385   0.69300   0.44207   0.00000  Uiso   1.00
H317   H     0.24985   0.69110   0.01821   0.00000  Uiso   1.00
H318   H     0.21235   0.86890   0.07961   0.00000  Uiso   1.00
H319   H     0.33055   0.89788   0.42039   0.00000  Uiso   1.00
H320   H     0.11594   0.87192   0.06983   0.00000  Uiso   1.00
N321   N     0.14493   0.81890   0.23543   0.00000  Uiso   1.00
N322   N     0.18840   0.84777   0.26458   0.00000  Uiso   1.00
O323   O     0.29769   0.91296   0.25358   0.00000  Uiso   1.00
O324   O     0.14312   0.75385   0.31903   0.00000  Uiso   1.00
O325   O     0.18997   0.84143   0.37432   0.00000  Uiso   1.00
O326   O     0.05742   0.90371   0.24424   0.00000  Uiso   1.00
O327   O     0.31490   0.84024   0.33380   0.00000  Uiso   1.00
O328   O     0.07463   0.83099   0.32446   0.00000  Uiso   1.00
O329   O     0.27592   0.76296   0.25577   0.00000  Uiso   1.00
O330   O     0.03565   0.75371   0.24643   0.00000  Uiso   1.00
O331   O     0.25870   0.83567   0.17554   0.00000  Uiso   1.00
O332   O     0.01843   0.82642   0.16620   0.00000  Uiso   1.00
O333   O     0.23070   0.75142   0.39205   0.00000  Uiso   1.00
S334   S     0.17364   0.77682   0.37479   0.00000  Uiso   1.00
Zn335  Zn    0.27119   0.83951   0.25624   0.00000  Uiso   1.00
Zn336  Zn    0.06214   0.82716   0.24377   0.00000  Uiso   1.00
C337   C     0.34820   0.93159   0.24871   0.00000  Uiso   1.00
C338   C     0.39122   0.83862   0.41398   0.00000  Uiso   1.00
C339   C     0.35602   0.98609   0.24803   0.00000  Uiso   1.00
C340   C     0.36998   0.83385   0.35462   0.00000  Uiso   1.00
C341   C     0.64417   0.68062   0.25250   0.00000  Uiso   1.00
C342   C     0.65187   0.73509   0.25149   0.00000  Uiso   1.00
C343   C     0.62938   0.82773   0.14593   0.00000  Uiso   1.00
C344   C     0.57377   0.72934   0.03205   0.00000  Uiso   1.00
C345   C     0.60344   0.80755   0.09116   0.00000  Uiso   1.00
C346   C     0.36587   0.87602   0.44206   0.00000  Uiso   1.00
C347   C     0.38649   0.88704   0.49788   0.00000  Uiso   1.00
C348   C     0.45971   0.82421   0.49935   0.00000  Uiso   1.00
C349   C     0.43398   0.86228   0.02631   0.00000  Uiso   1.00
C350   C     0.43663   0.80936   0.44340   0.00000  Uiso   1.00
C351   C     0.51052   0.80160   0.02579   0.00000  Uiso   1.00
C352   C     0.52214   0.75187   0.00689   0.00000  Uiso   1.00
C353   C     0.48626   0.72989   0.45814   0.00000  Uiso   1.00
C354   C     0.46075   0.76575   0.42111   0.00000  Uiso   1.00
C355   C     0.55256   0.82975   0.06604   0.00000  Uiso   1.00
C356   C     0.61452   0.75730   0.07438   0.00000  Uiso   1.00
H357   H     0.65270   0.73877   0.09595   0.00000  Uiso   1.00
H358   H     0.36649   0.91585   0.01891   0.00000  Uiso   1.00
H359   H     0.39862   0.66977   0.24373   0.00000  Uiso   1.00
H360   H     0.54864   0.85133   0.41108   0.00000  Uiso   1.00
H361   H     0.60158   0.99695   0.25683   0.00000  Uiso   1.00
H362   H     0.49052   0.78978   0.21197   0.00000  Uiso   1.00
H363   H     0.50919   0.87876   0.28523   0.00000  Uiso   1.00
H364   H     0.49719   0.69300   0.44207   0.00000  Uiso   1.00
H365   H     0.58319   0.69110   0.01821   0.00000  Uiso   1.00
H366   H     0.54569   0.86890   0.07961   0.00000  Uiso   1.00
H367   H     0.66388   0.89788   0.42039   0.00000  Uiso   1.00
H368   H     0.44927   0.87192   0.06983   0.00000  Uiso   1.00
N369   N     0.47827   0.81890   0.23543   0.00000  Uiso   1.00
N370   N     0.52173   0.84777   0.26458   0.00000  Uiso   1.00
O371   O     0.63102   0.91296   0.25358   0.00000  Uiso   1.00
O372   O     0.47645   0.75385   0.31903   0.00000  Uiso   1.00
O373   O     0.52330   0.84143   0.37432   0.00000  Uiso   1.00
O374   O     0.39075   0.90371   0.24424   0.00000  Uiso   1.00
O375   O     0.64823   0.84024   0.33380   0.00000  Uiso   1.00
O376   O     0.40796   0.83099   0.32446   0.00000  Uiso   1.00
O377   O     0.60925   0.76296   0.25577   0.00000  Uiso   1.00
O378   O     0.36898   0.75371   0.24643   0.00000  Uiso   1.00
O379   O     0.59204   0.83567   0.17554   0.00000  Uiso   1.00
O380   O     0.35177   0.82642   0.16620   0.00000  Uiso   1.00
O381   O     0.56403   0.75142   0.39205   0.00000  Uiso   1.00
S382   S     0.50697   0.77682   0.37479   0.00000  Uiso   1.00
Zn383  Zn    0.60453   0.83951   0.25624   0.00000  Uiso   1.00
Zn384  Zn    0.39547   0.82716   0.24377   0.00000  Uiso   1.00
C385   C     0.68153   0.93159   0.24871   0.00000  Uiso   1.00
C386   C     0.72456   0.83862   0.41398   0.00000  Uiso   1.00
C387   C     0.68935   0.98609   0.24803   0.00000  Uiso   1.00
C388   C     0.70331   0.83385   0.35462   0.00000  Uiso   1.00
C389   C     0.97750   0.68062   0.25250   0.00000  Uiso   1.00
C390   C     0.98520   0.73509   0.25149   0.00000  Uiso   1.00
C391   C     0.96272   0.82773   0.14593   0.00000  Uiso   1.00
C392   C     0.90710   0.72934   0.03205   0.00000  Uiso   1.00
C393   C     0.93677   0.80755   0.09116   0.00000  Uiso   1.00
C394   C     0.69920   0.87602   0.44206   0.00000  Uiso   1.00
C395   C     0.71982   0.88704   0.49788   0.00000  Uiso   1.00
C396   C     0.79304   0.82421   0.49935   0.00000  Uiso   1.00
C397   C     0.76732   0.86228   0.02631   0.00000  Uiso   1.00
C398   C     0.76997   0.80936   0.44340   0.00000  Uiso   1.00
C399   C     0.84386   0.80160   0.02579   0.00000  Uiso   1.00
C400   C     0.85547   0.75187   0.00689   0.00000  Uiso   1.00
C401   C     0.81959   0.72989   0.45814   0.00000  Uiso   1.00
C402   C     0.79409   0.76575   0.42111   0.00000  Uiso   1.00
C403   C     0.88589   0.82975   0.06604   0.00000  Uiso   1.00
C404   C     0.94785   0.75730   0.07438   0.00000  Uiso   1.00
H405   H     0.98603   0.73877   0.09595   0.00000  Uiso   1.00
H406   H     0.69983   0.91585   0.01891   0.00000  Uiso   1.00
H407   H     0.73195   0.66977   0.24373   0.00000  Uiso   1.00
H408   H     0.88197   0.85133   0.41108   0.00000  Uiso   1.00
H409   H     0.93491   0.99695   0.25683   0.00000  Uiso   1.00
H410   H     0.82385   0.78978   0.21197   0.00000  Uiso   1.00
H411   H     0.84252   0.87876   0.28523   0.00000  Uiso   1.00
H412   H     0.83052   0.69300   0.44207   0.00000  Uiso   1.00
H413   H     0.91652   0.69110   0.01821   0.00000  Uiso   1.00
H414   H     0.87902   0.86890   0.07961   0.00000  Uiso   1.00
H415   H     0.99721   0.89788   0.42039   0.00000  Uiso   1.00
H416   H     0.78260   0.87192   0.06983   0.00000  Uiso   1.00
N417   N     0.81160   0.81890   0.23543   0.00000  Uiso   1.00
N418   N     0.85507   0.84777   0.26458   0.00000  Uiso   1.00
O419   O     0.96435   0.91296   0.25358   0.00000  Uiso   1.00
O420   O     0.80978   0.75385   0.31903   0.00000  Uiso   1.00
O421   O     0.85664   0.84143   0.37432   0.00000  Uiso   1.00
O422   O     0.72408   0.90371   0.24424   0.00000  Uiso   1.00
O423   O     0.98157   0.84024   0.33380   0.00000  Uiso   1.00
O424   O     0.74130   0.83099   0.32446   0.00000  Uiso   1.00
O425   O     0.94258   0.76296   0.25577   0.00000  Uiso   1.00
O426   O     0.70231   0.75371   0.24643   0.00000  Uiso   1.00
O427   O     0.92537   0.83567   0.17554   0.00000  Uiso   1.00
O428   O     0.68510   0.82642   0.16620   0.00000  Uiso   1.00
O429   O     0.89736   0.75142   0.39205   0.00000  Uiso   1.00
S430   S     0.84030   0.77682   0.37479   0.00000  Uiso   1.00
Zn431  Zn    0.93786   0.83951   0.25624   0.00000  Uiso   1.00
Zn432  Zn    0.72881   0.82716   0.24377   0.00000  Uiso   1.00
C433   C     0.01487   0.26492   0.74871   0.00000  Uiso   1.00
C434   C     0.05789   0.17195   0.91398   0.00000  Uiso   1.00
C435   C     0.02268   0.31943   0.74803   0.00000  Uiso   1.00
C436   C     0.03664   0.16718   0.85462   0.00000  Uiso   1.00
C437   C     0.31084   0.01395   0.75250   0.00000  Uiso   1.00
C438   C     0.31854   0.06843   0.75149   0.00000  Uiso   1.00
C439   C     0.29605   0.16106   0.64593   0.00000  Uiso   1.00
C440   C     0.24044   0.06268   0.53205   0.00000  Uiso   1.00
C441   C     0.27010   0.14089   0.59116   0.00000  Uiso   1.00
C442   C     0.03254   0.20935   0.94206   0.00000  Uiso   1.00
C443   C     0.05315   0.22037   0.99788   0.00000  Uiso   1.00
C444   C     0.12638   0.15755   0.99935   0.00000  Uiso   1.00
C445   C     0.10065   0.19561   0.52631   0.00000  Uiso   1.00
C446   C     0.10330   0.14269   0.94340   0.00000  Uiso   1.00
C447   C     0.17719   0.13493   0.52579   0.00000  Uiso   1.00
C448   C     0.18880   0.08521   0.50689   0.00000  Uiso   1.00
C449   C     0.15292   0.06323   0.95814   0.00000  Uiso   1.00
C450   C     0.12742   0.09908   0.92111   0.00000  Uiso   1.00
C451   C     0.21923   0.16309   0.56604   0.00000  Uiso   1.00
C452   C     0.28118   0.09064   0.57438   0.00000  Uiso   1.00
H453   H     0.31936   0.07210   0.59595   0.00000  Uiso   1.00
H454   H     0.03316   0.24918   0.51891   0.00000  Uiso   1.00
H455   H     0.06528   0.00310   0.74373   0.00000  Uiso   1.00
H456   H     0.21530   0.18466   0.91108   0.00000  Uiso   1.00
H457   H     0.26825   0.33028   0.75683   0.00000  Uiso   1.00
H458   H     0.15719   0.12312   0.71197   0.00000  Uiso   1.00
H459   H     0.17585   0.21210   0.78523   0.00000  Uiso   1.00
H460   H     0.16385   0.02634   0.94207   0.00000  Uiso   1.00
H461   H     0.24985   0.02443   0.51821   0.00000  Uiso   1.00
H462   H     0.21235   0.20223   0.57961   0.00000  Uiso   1.00
H463   H     0.33055   0.23121   0.92039   0.00000  Uiso   1.00
H464   H     0.11594   0.20525   0.56983   0.00000  Uiso   1.00
N465   N     0.14493   0.15223   0.73543   0.00000  Uiso   1.00
N466   N     0.18840   0.18110   0.76458   0.00000  Uiso   1.00
O467   O     0.29769   0.24629   0.75358   0.00000  Uiso   1.00
O468   O     0.14312   0.08719   0.81903   0.00000  Uiso   1.00
O469   O     0.18997   0.17477   0.87432   0.00000  Uiso   1.00
O470   O     0.05742   0.23704   0.74424   0.00000  Uiso   1.00
O471   O     0.31490   0.17358   0.83380   0.00000  Uiso   1.00
O472   O     0.07463   0.16433   0.82446   0.00000  Uiso   1.00
O473   O     0.27592   0.09629   0.75577   0.00000  Uiso   1.00
O474   O     0.03565   0.08704   0.74643   0.00000  Uiso   1.00
O475   O     0.25870   0.16901   0.67554   0.00000  Uiso   1.00
O476   O     0.01843   0.15976   0.66620   0.00000  Uiso   1.00
O477   O     0.23070   0.08475   0.89205   0.00000  Uiso   1.00
S478   S     0.17364   0.11016   0.87479   0.00000  Uiso   1.00
Zn479  Zn    0.27119   0.17284   0.75624   0.00000  Uiso   1.00
Zn480  Zn    0.06214   0.16049   0.74377   0.00000  Uiso   1.00
C481   C     0.34820   0.26492   0.74871   0.00000  Uiso   1.00
C482   C     0.39122   0.17195   0.91398   0.00000  Uiso   1.00
C483   C     0.35602   0.31943   0.74803   0.00000  Uiso   1.00
C484   C     0.36998   0.16718   0.85462   0.00000  Uiso   1.00
C485   C     0.64417   0.01395   0.75250   0.00000  Uiso   1.00
C486   C     0.65187   0.06843   0.75149   0.00000  Uiso   1.00
C487   C     0.62938   0.16106   0.64593   0.00000  Uiso   1.00
C488   C     0.57377   0.06268   0.53205   0.00000  Uiso   1.00
C489   C     0.60344   0.14089   0.59116   0.00000  Uiso   1.00
C490   C     0.36587   0.20935   0.94206   0.00000  Uiso   1.00
C491   C     0.38649   0.22037   0.99788   0.00000  Uiso   1.00
C492   C     0.45971   0.15755   0.99935   0.00000  Uiso   1.00
C493   C     0.43398   0.19561   0.52631   0.00000  Uiso   1.00
C494   C     0.43663   0.14269   0.94340   0.00000  Uiso   1.00
C495   C     0.51052   0.13493   0.52579   0.00000  Uiso   1.00
C496   C     0.52214   0.08521   0.50689   0.00000  Uiso   1.00
C497   C     0.48626   0.06323   0.95814   0.00000  Uiso   1.00
C498   C     0.46075   0.09908   0.92111   0.00000  Uiso   1.00
C499   C     0.55256   0.16309   0.56604   0.00000  Uiso   1.00
C500   C     0.61452   0.09064   0.57438   0.00000  Uiso   1.00
H501   H     0.65270   0.07210   0.59595   0.00000  Uiso   1.00
H502   H     0.36649   0.24918   0.51891   0.00000  Uiso   1.00
H503   H     0.39862   0.00310   0.74373   0.00000  Uiso   1.00
H504   H     0.54864   0.18466   0.91108   0.00000  Uiso   1.00
H505   H     0.60158   0.33028   0.75683   0.00000  Uiso   1.00
H506   H     0.49052   0.12312   0.71197   0.00000  Uiso   1.00
H507   H     0.50919   0.21210   0.78523   0.00000  Uiso   1.00
H508   H     0.49719   0.02634   0.94207   0.00000  Uiso   1.00
H509   H     0.58319   0.02443   0.51821   0.00000  Uiso   1.00
H510   H     0.54569   0.20223   0.57961   0.00000  Uiso   1.00
H511   H     0.66388   0.23121   0.92039   0.00000  Uiso   1.00
H512   H     0.44927   0.20525   0.56983   0.00000  Uiso   1.00
N513   N     0.47827   0.15223   0.73543   0.00000  Uiso   1.00
N514   N     0.52173   0.18110   0.76458   0.00000  Uiso   1.00
O515   O     0.63102   0.24629   0.75358   0.00000  Uiso   1.00
O516   O     0.47645   0.08719   0.81903   0.00000  Uiso   1.00
O517   O     0.52330   0.17477   0.87432   0.00000  Uiso   1.00
O518   O     0.39075   0.23704   0.74424   0.00000  Uiso   1.00
O519   O     0.64823   0.17358   0.83380   0.00000  Uiso   1.00
O520   O     0.40796   0.16433   0.82446   0.00000  Uiso   1.00
O521   O     0.60925   0.09629   0.75577   0.00000  Uiso   1.00
O522   O     0.36898   0.08704   0.74643   0.00000  Uiso   1.00
O523   O     0.59204   0.16901   0.67554   0.00000  Uiso   1.00
O524   O     0.35177   0.15976   0.66620   0.00000  Uiso   1.00
O525   O     0.56403   0.08475   0.89205   0.00000  Uiso   1.00
S526   S     0.50697   0.11016   0.87479   0.00000  Uiso   1.00
Zn527  Zn    0.60453   0.17284   0.75624   0.00000  Uiso   1.00
Zn528  Zn    0.39547   0.16049   0.74377   0.00000  Uiso   1.00
C529   C     0.68153   0.26492   0.74871   0.00000  Uiso   1.00
C530   C     0.72456   0.17195   0.91398   0.00000  Uiso   1.00
C531   C     0.68935   0.31943   0.74803   0.00000  Uiso   1.00
C532   C     0.70331   0.16718   0.85462   0.00000  Uiso   1.00
C533   C     0.97750   0.01395   0.75250   0.00000  Uiso   1.00
C534   C     0.98520   0.06843   0.75149   0.00000  Uiso   1.00
C535   C     0.96272   0.16106   0.64593   0.00000  Uiso   1.00
C536   C     0.90710   0.06268   0.53205   0.00000  Uiso   1.00
C537   C     0.93677   0.14089   0.59116   0.00000  Uiso   1.00
C538   C     0.69920   0.20935   0.94206   0.00000  Uiso   1.00
C539   C     0.71982   0.22037   0.99788   0.00000  Uiso   1.00
C540   C     0.79304   0.15755   0.99935   0.00000  Uiso   1.00
C541   C     0.76732   0.19561   0.52631   0.00000  Uiso   1.00
C542   C     0.76997   0.14269   0.94340   0.00000  Uiso   1.00
C543   C     0.84386   0.13493   0.52579   0.00000  Uiso   1.00
C544   C     0.85547   0.08521   0.50689   0.00000  Uiso   1.00
C545   C     0.81959   0.06323   0.95814   0.00000  Uiso   1.00
C546   C     0.79409   0.09908   0.92111   0.00000  Uiso   1.00
C547   C     0.88589   0.16309   0.56604   0.00000  Uiso   1.00
C548   C     0.94785   0.09064   0.57438   0.00000  Uiso   1.00
H549   H     0.98603   0.07210   0.59595   0.00000  Uiso   1.00
H550   H     0.69983   0.24918   0.51891   0.00000  Uiso   1.00
H551   H     0.73195   0.00310   0.74373   0.00000  Uiso   1.00
H552   H     0.88197   0.18466   0.91108   0.00000  Uiso   1.00
H553   H     0.93491   0.33028   0.75683   0.00000  Uiso   1.00
H554   H     0.82385   0.12312   0.71197   0.00000  Uiso   1.00
H555   H     0.84252   0.21210   0.78523   0.00000  Uiso   1.00
H556   H     0.83052   0.02634   0.94207   0.00000  Uiso   1.00
H557   H     0.91652   0.02443   0.51821   0.00000  Uiso   1.00
H558   H     0.87902   0.20223   0.57961   0.00000  Uiso   1.00
H559   H     0.99721   0.23121   0.92039   0.00000  Uiso   1.00
H560   H     0.78260   0.20525   0.56983   0.00000  Uiso   1.00
N561   N     0.81160   0.15223   0.73543   0.00000  Uiso   1.00
N562   N     0.85507   0.18110   0.76458   0.00000  Uiso   1.00
O563   O     0.96435   0.24629   0.75358   0.00000  Uiso   1.00
O564   O     0.80978   0.08719   0.81903   0.00000  Uiso   1.00
O565   O     0.85664   0.17477   0.87432   0.00000  Uiso   1.00
O566   O     0.72408   0.23704   0.74424   0.00000  Uiso   1.00
O567   O     0.98157   0.17358   0.83380   0.00000  Uiso   1.00
O568   O     0.74130   0.16433   0.82446   0.00000  Uiso   1.00
O569   O     0.94258   0.09629   0.75577   0.00000  Uiso   1.00
O570   O     0.70231   0.08704   0.74643   0.00000  Uiso   1.00
O571   O     0.92537   0.16901   0.67554   0.00000  Uiso   1.00
O572   O     0.68510   0.15976   0.66620   0.00000  Uiso   1.00
O573   O     0.89736   0.08475   0.89205   0.00000  Uiso   1.00
S574   S     0.84030   0.11016   0.87479   0.00000  Uiso   1.00
Zn575  Zn    0.93786   0.17284   0.75624   0.00000  Uiso   1.00
Zn576  Zn    0.72881   0.16049   0.74377   0.00000  Uiso   1.00
C577   C     0.01487   0.59825   0.74871   0.00000  Uiso   1.00
C578   C     0.05789   0.50529   0.91398   0.00000  Uiso   1.00
C579   C     0.02268   0.65276   0.74803   0.00000  Uiso   1.00
C580   C     0.03664   0.50052   0.85462   0.00000  Uiso   1.00
C581   C     0.31084   0.34728   0.75250   0.00000  Uiso   1.00
C582   C     0.31854   0.40176   0.75149   0.00000  Uiso   1.00
C583   C     0.29605   0.49439   0.64593   0.00000  Uiso   1.00
C584   C     0.24044   0.39601   0.53205   0.00000  Uiso   1.00
C585   C     0.27010   0.47422   0.59116   0.00000  Uiso   1.00
C586   C     0.03254   0.54268   0.94206   0.00000  Uiso   1.00
C587   C     0.05315   0.55371   0.99788   0.00000  Uiso   1.00
C588   C     0.12638   0.49088   0.99935   0.00000  Uiso   1.00
C589   C     0.10065   0.52895   0.52631   0.00000  Uiso   1.00
C590   C     0.10330   0.47602   0.94340   0.00000  Uiso   1.00
C591   C     0.17719   0.46827   0.52579   0.00000  Uiso   1.00
C592   C     0.18880   0.41854   0.50689   0.00000  Uiso   1.00
C593   C     0.15292   0.39656   0.95814   0.00000  Uiso   1.00
C594   C     0.12742   0.43242   0.92111   0.00000  Uiso   1.00
C595   C     0.21923   0.49642   0.56604   0.00000  Uiso   1.00
C596   C     0.28118   0.42397   0.57438   0.00000  Uiso   1.00
H597   H     0.31936   0.40544   0.59595   0.00000  Uiso   1.00
H598   H     0.03316   0.58252   0.51891   0.00000  Uiso   1.00
H599   H     0.06528   0.33643   0.74373   0.00000  Uiso   1.00
H600   H     0.21530   0.51799   0.91108   0.00000  Uiso   1.00
H601   H     0.26825   0.66361   0.75683   0.00000  Uiso   1.00
H602   H     0.15719   0.45645   0.71197   0.00000  Uiso   1.00
H603   H     0.17585   0.54543   0.78523   0.00000  Uiso   1.00
H604   H     0.16385   0.35967   0.94207   0.00000  Uiso   1.00
H605   H     0.24985   0.35777   0.51821   0.00000  Uiso   1.00
H606   H     0.21235   0.53556   0.57961   0.00000  Uiso   1.00
H607   H     0.33055   0.56454   0.92039   0.00000  Uiso   1.00
H608   H     0.11594   0.53859   0.56983   0.00000  Uiso   1.00
N609   N     0.14493   0.48556   0.73543   0.00000  Uiso   1.00
N610   N     0.18840   0.51444   0.76458   0.00000  Uiso   1.00
O611   O     0.29769   0.57963   0.75358   0.00000  Uiso   1.00
O612   O     0.14312   0.42052   0.81903   0.00000  Uiso   1.00
O613   O     0.18997   0.50810   0.87432   0.00000  Uiso   1.00
O614   O     0.05742   0.57038   0.74424   0.00000  Uiso   1.00
O615   O     0.31490   0.50691   0.83380   0.00000  Uiso   1.00
O616   O     0.07463   0.49766   0.82446   0.00000  Uiso   1.00
O617   O     0.27592   0.42962   0.75577   0.00000  Uiso   1.00
O618   O     0.03565   0.42037   0.74643   0.00000  Uiso   1.00
O619   O     0.25870   0.50234   0.67554   0.00000  Uiso   1.00
O620   O     0.01843   0.49309   0.66620   0.00000  Uiso   1.00
O621   O     0.23070   0.41808   0.89205   0.00000  Uiso   1.00
S622   S     0.17364   0.44349   0.87479   0.00000  Uiso   1.00
Zn623  Zn    0.27119   0.50618   0.75624   0.00000  Uiso   1.00
Zn624  Zn    0.06214   0.49382   0.74377   0.00000  Uiso   1.00
C625   C     0.34820   0.59825   0.74871   0.00000  Uiso   1.00
C626   C     0.39122   0.50529   0.91398   0.00000  Uiso   1.00
C627   C     0.35602   0.65276   0.74803   0.00000  Uiso   1.00
C628   C     0.36998   0.50052   0.85462   0.00000  Uiso   1.00
C629   C     0.64417   0.34728   0.75250   0.00000  Uiso   1.00
C630   C     0.65187   0.40176   0.75149   0.00000  Uiso   1.00
C631   C     0.62938   0.49439   0.64593   0.00000  Uiso   1.00
C632   C     0.57377   0.39601   0.53205   0.00000  Uiso   1.00
C633   C     0.60344   0.47422   0.59116   0.00000  Uiso   1.00
C634   C     0.36587   0.54268   0.94206   0.00000  Uiso   1.00
C635   C     0.38649   0.55371   0.99788   0.00000  Uiso   1.00
C636   C     0.45971   0.49088   0.99935   0.00000  Uiso   1.00
C637   C     0.43398   0.52895   0.52631   0.00000  Uiso   1.00
C638   C     0.43663   0.47602   0.94340   0.00000  Uiso   1.00
C639   C     0.51052   0.46827   0.52579   0.00000  Uiso   1.00
C640   C     0.52214   0.41854   0.50689   0.00000  Uiso   1.00
C641   C     0.48626   0.39656   0.95814   0.00000  Uiso   1.00
C642   C     0.46075   0.43242   0.92111   0.00000  Uiso   1.00
C643   C     0.55256   0.49642   0.56604   0.00000  Uiso   1.00
C644   C     0.61452   0.42397   0.57438   0.00000  Uiso   1.00
H645   H     0.65270   0.40544   0.59595   0.00000  Uiso   1.00
H646   H     0.36649   0.58252   0.51891   0.00000  Uiso   1.00
H647   H     0.39862   0.33643   0.74373   0.00000  Uiso   1.00
H648   H     0.54864   0.51799   0.91108   0.00000  Uiso   1.00
H649   H     0.60158   0.66361   0.75683   0.00000  Uiso   1.00
H650   H     0.49052   0.45645   0.71197   0.00000  Uiso   1.00
H651   H     0.50919   0.54543   0.78523   0.00000  Uiso   1.00
H652   H     0.49719   0.35967   0.94207   0.00000  Uiso   1.00
H653   H     0.58319   0.35777   0.51821   0.00000  Uiso   1.00
H654   H     0.54569   0.53556   0.57961   0.00000  Uiso   1.00
H655   H     0.66388   0.56454   0.92039   0.00000  Uiso   1.00
H656   H     0.44927   0.53859   0.56983   0.00000  Uiso   1.00
N657   N     0.47827   0.48556   0.73543   0.00000  Uiso   1.00
N658   N     0.52173   0.51444   0.76458   0.00000  Uiso   1.00
O659   O     0.63102   0.57963   0.75358   0.00000  Uiso   1.00
O660   O     0.47645   0.42052   0.81903   0.00000  Uiso   1.00
O661   O     0.52330   0.50810   0.87432   0.00000  Uiso   1.00
O662   O     0.39075   0.57038   0.74424   0.00000  Uiso   1.00
O663   O     0.64823   0.50691   0.83380   0.00000  Uiso   1.00
O664   O     0.40796   0.49766   0.82446   0.00000  Uiso   1.00
O665   O     0.60925   0.42962   0.75577   0.00000  Uiso   1.00
O666   O     0.36898   0.42037   0.74643   0.00000  Uiso   1.00
O667   O     0.59204   0.50234   0.67554   0.00000  Uiso   1.00
O668   O     0.35177   0.49309   0.66620   0.00000  Uiso   1.00
O669   O     0.56403   0.41808   0.89205   0.00000  Uiso   1.00
S670   S     0.50697   0.44349   0.87479   0.00000  Uiso   1.00
Zn671  Zn    0.60453   0.50618   0.75624   0.00000  Uiso   1.00
Zn672  Zn    0.39547   0.49382   0.74377   0.00000  Uiso   1.00
C673   C     0.68153   0.59825   0.74871   0.00000  Uiso   1.00
C674   C     0.72456   0.50529   0.91398   0.00000  Uiso   1.00
C675   C     0.68935   0.65276   0.74803   0.00000  Uiso   1.00
C676   C     0.70331   0.50052   0.85462   0.00000  Uiso   1.00
C677   C     0.97750   0.34728   0.75250   0.00000  Uiso   1.00
C678   C     0.98520   0.40176   0.75149   0.00000  Uiso   1.00
C679   C     0.96272   0.49439   0.64593   0.00000  Uiso   1.00
C680   C     0.90710   0.39601   0.53205   0.00000  Uiso   1.00
C681   C     0.93677   0.47422   0.59116   0.00000  Uiso   1.00
C682   C     0.69920   0.54268   0.94206   0.00000  Uiso   1.00
C683   C     0.71982   0.55371   0.99788   0.00000  Uiso   1.00
C684   C     0.79304   0.49088   0.99935   0.00000  Uiso   1.00
C685   C     0.76732   0.52895   0.52631   0.00000  Uiso   1.00
C686   C     0.76997   0.47602   0.94340   0.00000  Uiso   1.00
C687   C     0.84386   0.46827   0.52579   0.00000  Uiso   1.00
C688   C     0.85547   0.41854   0.50689   0.00000  Uiso   1.00
C689   C     0.81959   0.39656   0.95814   0.00000  Uiso   1.00
C690   C     0.79409   0.43242   0.92111   0.00000  Uiso   1.00
C691   C     0.88589   0.49642   0.56604   0.00000  Uiso   1.00
C692   C     0.94785   0.42397   0.57438   0.00000  Uiso   1.00
H693   H     0.98603   0.40544   0.59595   0.00000  Uiso   1.00
H694   H     0.69983   0.58252   0.51891   0.00000  Uiso   1.00
H695   H     0.73195   0.33643   0.74373   0.00000  Uiso   1.00
H696   H     0.88197   0.51799   0.91108   0.00000  Uiso   1.00
H697   H     0.93491   0.66361   0.75683   0.00000  Uiso   1.00
H698   H     0.82385   0.45645   0.71197   0.00000  Uiso   1.00
H699   H     0.84252   0.54543   0.78523   0.00000  Uiso   1.00
H700   H     0.83052   0.35967   0.94207   0.00000  Uiso   1.00
H701   H     0.91652   0.35777   0.51821   0.00000  Uiso   1.00
H702   H     0.87902   0.53556   0.57961   0.00000  Uiso   1.00
H703   H     0.99721   0.56454   0.92039   0.00000  Uiso   1.00
H704   H     0.78260   0.53859   0.56983   0.00000  Uiso   1.00
N705   N     0.81160   0.48556   0.73543   0.00000  Uiso   1.00
N706   N     0.85507   0.51444   0.76458   0.00000  Uiso   1.00
O707   O     0.96435   0.57963   0.75358   0.00000  Uiso   1.00
O708   O     0.80978   0.42052   0.81903   0.00000  Uiso   1.00
O709   O     0.85664   0.50810   0.87432   0.00000  Uiso   1.00
O710   O     0.72408   0.57038   0.74424   0.00000  Uiso   1.00
O711   O     0.98157   0.50691   0.83380   0.00000  Uiso   1.00
O712   O     0.74130   0.49766   0.82446   0.00000  Uiso   1.00
O713   O     0.94258   0.42962   0.75577   0.00000  Uiso   1.00
O714   O     0.70231   0.42037   0.74643   0.00000  Uiso   1.00
O715   O     0.92537   0.50234   0.67554   0.00000  Uiso   1.00
O716   O     0.68510   0.49309   0.66620   0.00000  Uiso   1.00
O717   O     0.89736   0.41808   0.89205   0.00000  Uiso   1.00
S718   S     0.84030   0.44349   0.87479   0.00000  Uiso   1.00
Zn719  Zn    0.93786   0.50618   0.75624   0.00000  Uiso   1.00
Zn720  Zn    0.72881   0.49382   0.74377   0.00000  Uiso   1.00
C721   C     0.01487   0.93159   0.74871   0.00000  Uiso   1.00
C722   C     0.05789   0.83862   0.91398   0.00000  Uiso   1.00
C723   C     0.02268   0.98609   0.74803   0.00000  Uiso   1.00
C724   C     0.03664   0.83385   0.85462   0.00000  Uiso   1.00
C725   C     0.31084   0.68062   0.75250   0.00000  Uiso   1.00
C726   C     0.31854   0.73509   0.75149   0.00000  Uiso   1.00
C727   C     0.29605   0.82773   0.64593   0.00000  Uiso   1.00
C728   C     0.24044   0.72934   0.53205   0.00000  Uiso   1.00
C729   C     0.27010   0.80755   0.59116   0.00000  Uiso   1.00
C730   C     0.03254   0.87602   0.94206   0.00000  Uiso   1.00
C731   C     0.05315   0.88704   0.99788   0.00000  Uiso   1.00
C732   C     0.12638   0.82421   0.99935   0.00000  Uiso   1.00
C733   C     0.10065   0.86228   0.52631   0.00000  Uiso   1.00
C734   C     0.10330   0.80936   0.94340   0.00000  Uiso   1.00
C735   C     0.17719   0.80160   0.52579   0.00000  Uiso   1.00
C736   C     0.18880   0.75187   0.50689   0.00000  Uiso   1.00
C737   C     0.15292   0.72989   0.95814   0.00000  Uiso   1.00
C738   C     0.12742   0.76575   0.92111   0.00000  Uiso   1.00
C739   C     0.21923   0.82975   0.56604   0.00000  Uiso   1.00
C740   C     0.28118   0.75730   0.57438   0.00000  Uiso   1.00
H741   H     0.31936   0.73877   0.59595   0.00000  Uiso   1.00
H742   H     0.03316   0.91585   0.51891   0.00000  Uiso   1.00
H743   H     0.06528   0.66977   0.74373   0.00000  Uiso   1.00
H744   H     0.21530   0.85133   0.91108   0.00000  Uiso   1.00
H745   H     0.26825   0.99695   0.75683   0.00000  Uiso   1.00
H746   H     0.15719   0.78978   0.71197   0.00000  Uiso   1.00
H747   H     0.17585   0.87876   0.78523   0.00000  Uiso   1.00
H748   H     0.16385   0.69300   0.94207   0.00000  Uiso   1.00
H749   H     0.24985   0.69110   0.51821   0.00000  Uiso   1.00
H750   H     0.21235   0.86890   0.57961   0.00000  Uiso   1.00
H751   H     0.33055   0.89788   0.92039   0.00000  Uiso   1.00
H752   H     0.11594   0.87192   0.56983   0.00000  Uiso   1.00
N753   N     0.14493   0.81890   0.73543   0.00000  Uiso   1.00
N754   N     0.18840   0.84777   0.76458   0.00000  Uiso   1.00
O755   O     0.29769   0.91296   0.75358   0.00000  Uiso   1.00
O756   O     0.14312   0.75385   0.81903   0.00000  Uiso   1.00
O757   O     0.18997   0.84143   0.87432   0.00000  Uiso   1.00
O758   O     0.05742   0.90371   0.74424   0.00000  Uiso   1.00
O759   O     0.31490   0.84024   0.83380   0.00000  Uiso   1.00
O760   O     0.07463   0.83099   0.82446   0.00000  Uiso   1.00
O761   O     0.27592   0.76296   0.75577   0.00000  Uiso   1.00
O762   O     0.03565   0.75371   0.74643   0.00000  Uiso   1.00
O763   O     0.25870   0.83567   0.67554   0.00000  Uiso   1.00
O764   O     0.01843   0.82642   0.66620   0.00000  Uiso   1.00
O765   O     0.23070   0.75142   0.89205   0.00000  Uiso   1.00
S766   S     0.17364   0.77682   0.87479   0.00000  Uiso   1.00
Zn767  Zn    0.27119   0.83951   0.75624   0.00000  Uiso   1.00
Zn768  Zn    0.06214   0.82716   0.74377   0.00000  Uiso   1.00
C769   C     0.34820   0.93159   0.74871   0.00000  Uiso   1.00
C770   C     0.39122   0.83862   0.91398   0.00000  Uiso   1.00
C771   C     0.35602   0.98609   0.74803   0.00000  Uiso   1.00
C772   C     0.36998   0.83385   0.85462   0.00000  Uiso   1.00
C773   C     0.64417   0.68062   0.75250   0.00000  Uiso   1.00
C774   C     0.65187   0.73509   0.75149   0.00000  Uiso   1.00
C775   C     0.62938   0.82773   0.64593   0.00000  Uiso   1.00
C776   C     0.57377   0.72934   0.53205   0.00000  Uiso   1.00
C777   C     0.60344   0.80755   0.59116   0.00000  Uiso   1.00
C778   C     0.36587   0.87602   0.94206   0.00000  Uiso   1.00
C779   C     0.38649   0.88704   0.99788   0.00000  Uiso   1.00
C780   C     0.45971   0.82421   0.99935   0.00000  Uiso   1.00
C781   C     0.43398   0.86228   0.52631   0.00000  Uiso   1.00
C782   C     0.43663   0.80936   0.94340   0.00000  Uiso   1.00
C783   C     0.51052   0.80160   0.52579   0.00000  Uiso   1.00
C784   C     0.52214   0.75187   0.50689   0.00000  Uiso   1.00
C785   C     0.48626   0.72989   0.95814   0.00000  Uiso   1.00
C786   C     0.46075   0.76575   0.92111   0.00000  Uiso   1.00
C787   C     0.55256   0.82975   0.56604   0.00000  Uiso   1.00
C788   C     0.61452   0.75730   0.57438   0.00000  Uiso   1.00
H789   H     0.65270   0.73877   0.59595   0.00000  Uiso   1.00
H790   H     0.36649   0.91585   0.51891   0.00000  Uiso   1.00
H791   H     0.39862   0.66977   0.74373   0.00000  Uiso   1.00
H792   H     0.54864   0.85133   0.91108   0.00000  Uiso   1.00
H793   H     0.60158   0.99695   0.75683   0.00000  Uiso   1.00
H794   H     0.49052   0.78978   0.71197   0.00000  Uiso   1.00
H795   H     0.50919   0.87876   0.78523   0.00000  Uiso   1.00
H796   H     0.49719   0.69300   0.94207   0.00000  Uiso   1.00
H797   H     0.58319   0.69110   0.51821   0.00000  Uiso   1.00
H798   H     0.54569   0.86890   0.57961   0.00000  Uiso   1.00
H799   H     0.66388   0.89788   0.92039   0.00000  Uiso   1.00
H800   H     0.44927   0.87192   0.56983   0.00000  Uiso   1.00
N801   N     0.47827   0.81890   0.73543   0.00000  Uiso   1.00
N802   N     0.52173   0.84777   0.76458   0.00000  Uiso   1.00
O803   O     0.63102   0.91296   0.75358   0.00000  Uiso   1.00
O804   O     0.47645   0.75385   0.81903   0.00000  Uiso   1.00
O805   O     0.52330   0.84143   0.87432   0.00000  Uiso   1.00
O806   O     0.39075   0.90371   0.74424   0.00000  Uiso   1.00
O807   O     0.64823   0.84024   0.83380   0.00000  Uiso   1.00
O808   O     0.40796   0.83099   0.82446   0.00000  Uiso   1.00
O809   O     0.60925   0.76296   0.75577   0.00000  Uiso   1.00
O810   O     0.36898   0.75371   0.74643   0.00000  Uiso   1.00
O811   O     0.59204   0.83567   0.67554   0.00000  Uiso   1.00
O812   O     0.35177   0.82642   0.66620   0.00000  Uiso   1.00
O813   O     0.56403   0.75142   0.89205   0.00000  Uiso   1.00
S814   S     0.50697   0.77682   0.87479   0.00000  Uiso   1.00
Zn815  Zn    0.60453   0.83951   0.75624   0.00000  Uiso   1.00
Zn816  Zn    0.39547   0.82716   0.74377   0.00000  Uiso   1.00
C817   C     0.68153   0.93159   0.74871   0.00000  Uiso   1.00
C818   C     0.72456   0.83862   0.91398   0.00000  Uiso   1.00
C819   C     0.68935   0.98609   0.74803   0.00000  Uiso   1.00
C820   C     0.70331   0.83385   0.85462   0.00000  Uiso   1.00
C821   C     0.97750   0.68062   0.75250   0.00000  Uiso   1.00
C822   C     0.98520   0.73509   0.75149   0.00000  Uiso   1.00
C823   C     0.96272   0.82773   0.64593   0.00000  Uiso   1.00
C824   C     0.90710   0.72934   0.53205   0.00000  Uiso   1.00
C825   C     0.93677   0.80755   0.59116   0.00000  Uiso   1.00
C826   C     0.69920   0.87602   0.94206   0.00000  Uiso   1.00
C827   C     0.71982   0.88704   0.99788   0.00000  Uiso   1.00
C828   C     0.79304   0.82421   0.99935   0.00000  Uiso   1.00
C829   C     0.76732   0.86228   0.52631   0.00000  Uiso   1.00
C830   C     0.76997   0.80936   0.94340   0.00000  Uiso   1.00
C831   C     0.84386   0.80160   0.52579   0.00000  Uiso   1.00
C832   C     0.85547   0.75187   0.50689   0.00000  Uiso   1.00
C833   C     0.81959   0.72989   0.95814   0.00000  Uiso   1.00
C834   C     0.79409   0.76575   0.92111   0.00000  Uiso   1.00
C835   C     0.88589   0.82975   0.56604   0.00000  Uiso   1.00
C836   C     0.94785   0.75730   0.57438   0.00000  Uiso   1.00
H837   H     0.98603   0.73877   0.59595   0.00000  Uiso   1.00
H838   H     0.69983   0.91585   0.51891   0.00000  Uiso   1.00
H839   H     0.73195   0.66977   0.74373   0.00000  Uiso   1.00
H840   H     0.88197   0.85133   0.91108   0.00000  Uiso   1.00
H841   H     0.93491   0.99695   0.75683   0.00000  Uiso   1.00
H842   H     0.82385   0.78978   0.71197   0.00000  Uiso   1.00
H843   H     0.84252   0.87876   0.78523   0.00000  Uiso   1.00
H844   H     0.83052   0.69300   0.94207   0.00000  Uiso   1.00
H845   H     0.91652   0.69110   0.51821   0.00000  Uiso   1.00
H846   H     0.87902   0.86890   0.57961   0.00000  Uiso   1.00
H847   H     0.99721   0.89788   0.92039   0.00000  Uiso   1.00
H848   H     0.78260   0.87192   0.56983   0.00000  Uiso   1.00
N849   N     0.81160   0.81890   0.73543   0.00000  Uiso   1.00
N850   N     0.85507   0.84777   0.76458   0.00000  Uiso   1.00
O851   O     0.96435   0.91296   0.75358   0.00000  Uiso   1.00
O852   O     0.80978   0.75385   0.81903   0.00000  Uiso   1.00
O853   O     0.85664   0.84143   0.87432   0.00000  Uiso   1.00
O854   O     0.72408   0.90371   0.74424   0.00000  Uiso   1.00
O855   O     0.98157   0.84024   0.83380   0.00000  Uiso   1.00
O856   O     0.74130   0.83099   0.82446   0.00000  Uiso   1.00
O857   O     0.94258   0.76296   0.75577   0.00000  Uiso   1.00
O858   O     0.70231   0.75371   0.74643   0.00000  Uiso   1.00
O859   O     0.92537   0.83567   0.67554   0.00000  Uiso   1.00
O860   O     0.68510   0.82642   0.66620   0.00000  Uiso   1.00
O861   O     0.89736   0.75142   0.89205   0.00000  Uiso   1.00
S862   S     0.84030   0.77682   0.87479   0.00000  Uiso   1.00
Zn863  Zn    0.93786   0.83951   0.75624   0.00000  Uiso   1.00
Zn864  Zn    0.72881   0.82716   0.74377   0.00000  Uiso   1.00
loop_
_geom_bond_atom_site_label_1
_geom_bond_atom_site_label_2
_geom_bond_distance
_geom_bond_site_symmetry_2
_ccdc_geom_bond_type
C1     O38     1.286   .     A
C1     C3      1.402   .     S
C1     O131    1.275   1_455 S
C2     C4      1.456   .     S
C2     C14     1.425   .     A
C2     C10     1.408   .     A
C3     C245    1.337   1_455 S
C3     H167    1.088   .     S
C4     O40     1.291   .     A
C4     O135    1.299   1_455 S
C5     C6      1.402   .     S
C5     C339    1.337   1_545 S
C5     H313    1.088   1_545 S
C6     O41     1.286   .     A
C6     O90     1.275   .     S
C7     O43     1.286   .     A
C7     C9      1.433   .     S
C7     O92     1.289   .     S
C8     C16     1.402   .     A
C8     C20     1.395   .     A
C8     H29     1.084   .     S
C9     C20     1.403   .     A
C9     C19     1.384   .     A
C10    C11     1.385   .     A
C10    H127    1.084   1_455 S
C11    C445    1.384   .     S
C11    H454    1.083   .     S
C12    C14     1.413   .     A
C12    C445    1.410   .     S
C12    C447    1.398   .     S
C13    H32     1.082   .     S
C13    C444    1.410   1_554 S
C13    C443    1.384   1_554 S
C14    C18     1.438   .     A
C15    C19     1.383   .     A
C15    C16     1.412   .     A
C15    C444    1.398   1_554 S
C16    C449    1.393   1_554 S
C17    C18     1.398   .     A
C17    H28     1.085   .     S
C17    C448    1.393   .     S
C18    S46     1.770   .     S
C19    H30     1.084   .     S
C20    H21     1.083   .     S
H22    C443    1.083   1_554 S
H23    C291    1.088   1_545 S
H24    O37     0.991   .     S
H25    C149    1.088   .     S
H26    N33     1.029   .     S
H27    N34     1.029   .     S
H31    C58     1.084   .     S
N33    N34     1.281   .     D
N33    Zn48    2.014   .     S
N34    Zn47    2.014   .     S
O35    Zn47    1.955   .     S
O35    C49     1.275   .     S
O36    S46     1.499   .     D
O37    S46     1.680   .     S
O38    Zn48    1.979   .     S
O39    Zn47    1.981   .     S
O39    C52     1.299   .     S
O40    Zn48    1.974   .     S
O41    Zn47    1.979   .     S
O42    Zn48    1.955   .     S
O42    C102    1.275   1_455 S
O43    Zn47    1.974   .     S
O44    Zn48    1.981   .     S
O44    C103    1.289   1_455 S
O45    S46     1.506   .     D
C49    O86     1.286   .     A
C49    C51     1.402   .     S
C50    C52     1.456   .     S
C50    C62     1.425   .     A
C50    C58     1.408   .     A
C51    C149    1.337   .     S
C51    H215    1.088   .     S
C52    O88     1.291   .     A
C53    C54     1.402   .     S
C53    C387    1.337   1_545 S
C53    H361    1.088   1_545 S
C54    O89     1.286   .     A
C54    O138    1.275   .     S
C55    O91     1.286   .     A
C55    C57     1.433   .     S
C55    O140    1.289   .     S
C56    C64     1.402   .     A
C56    C68     1.395   .     A
C56    H77     1.084   .     S
C57    C68     1.403   .     A
C57    C67     1.384   .     A
C58    C59     1.385   .     A
C59    C493    1.384   .     S
C59    H502    1.083   .     S
C60    C62     1.413   .     A
C60    C493    1.410   .     S
C60    C495    1.398   .     S
C61    H80     1.082   .     S
C61    C492    1.410   1_554 S
C61    C491    1.384   1_554 S
C62    C66     1.438   .     A
C63    C67     1.383   .     A
C63    C64     1.412   .     A
C63    C492    1.398   1_554 S
C64    C497    1.393   1_554 S
C65    C66     1.398   .     A
C65    H76     1.085   .     S
C65    C496    1.393   .     S
C66    S94     1.770   .     S
C67    H78     1.084   .     S
C68    H69     1.083   .     S
H70    C491    1.083   1_554 S
H71    C339    1.088   1_545 S
H72    O85     0.991   .     S
H73    C197    1.088   .     S
H74    N81     1.029   .     S
H75    N82     1.029   .     S
H79    C106    1.084   .     S
N81    N82     1.281   .     D
N81    Zn96    2.014   .     S
N82    Zn95    2.014   .     S
O83    Zn95    1.955   .     S
O83    C97     1.275   .     S
O84    S94     1.499   .     D
O85    S94     1.680   .     S
O86    Zn96    1.979   .     S
O87    Zn95    1.981   .     S
O87    C100    1.299   .     S
O88    Zn96    1.974   .     S
O89    Zn95    1.979   .     S
O90    Zn96    1.955   .     S
O91    Zn95    1.974   .     S
O92    Zn96    1.981   .     S
O93    S94     1.506   .     D
C97    O134    1.286   .     A
C97    C99     1.402   .     S
C98    C100    1.456   .     S
C98    C110    1.425   .     A
C98    C106    1.408   .     A
C99    C197    1.337   .     S
C99    H263    1.088   .     S
C100   O136    1.291   .     A
C101   C102    1.402   .     S
C101   C291    1.337   1_645 S
C101   H409    1.088   1_545 S
C102   O137    1.286   .     A
C102   O42     1.275   1_655 S
C103   O139    1.286   .     A
C103   C105    1.433   .     S
C103   O44     1.289   1_655 S
C104   C112    1.402   .     A
C104   C116    1.395   .     A
C104   H125    1.084   .     S
C105   C116    1.403   .     A
C105   C115    1.384   .     A
C106   C107    1.385   .     A
C107   C541    1.384   .     S
C107   H550    1.083   .     S
C108   C110    1.413   .     A
C108   C541    1.410   .     S
C108   C543    1.398   .     S
C109   H128    1.082   .     S
C109   C540    1.410   1_554 S
C109   C539    1.384   1_554 S
C110   C114    1.438   .     A
C111   C115    1.383   .     A
C111   C112    1.412   .     A
C111   C540    1.398   1_554 S
C112   C545    1.393   1_554 S
C113   C114    1.398   .     A
C113   H124    1.085   .     S
C113   C544    1.393   .     S
C114   S142    1.770   .     S
C115   H126    1.084   .     S
C116   H117    1.083   .     S
H118   C539    1.083   1_554 S
H119   C387    1.088   1_545 S
H120   O133    0.991   .     S
H121   C245    1.088   .     S
H122   N129    1.029   .     S
H123   N130    1.029   .     S
H127   C10     1.084   1_655 S
N129   N130    1.281   .     D
N129   Zn144   2.014   .     S
N130   Zn143   2.014   .     S
O131   Zn143   1.955   .     S
O131   C1      1.275   1_655 S
O132   S142    1.499   .     D
O133   S142    1.680   .     S
O134   Zn144   1.979   .     S
O135   Zn143   1.981   .     S
O135   C4      1.299   1_655 S
O136   Zn144   1.974   .     S
O137   Zn143   1.979   .     S
O138   Zn144   1.955   .     S
O139   Zn143   1.974   .     S
O140   Zn144   1.981   .     S
O141   S142    1.506   .     D
C145   O182    1.286   .     A
C145   C147    1.402   .     S
C145   O275    1.275   1_455 S
C146   C148    1.456   .     S
C146   C158    1.425   .     A
C146   C154    1.408   .     A
C147   C389    1.337   1_455 S
C147   H311    1.088   .     S
C148   O184    1.291   .     A
C148   O279    1.299   1_455 S
C149   C150    1.402   .     S
C150   O185    1.286   .     A
C150   O234    1.275   .     S
C151   O187    1.286   .     A
C151   C153    1.433   .     S
C151   O236    1.289   .     S
C152   C160    1.402   .     A
C152   C164    1.395   .     A
C152   H173    1.084   .     S
C153   C164    1.403   .     A
C153   C163    1.384   .     A
C154   C155    1.385   .     A
C154   H271    1.084   1_455 S
C155   C589    1.384   .     S
C155   H598    1.083   .     S
C156   C158    1.413   .     A
C156   C589    1.410   .     S
C156   C591    1.398   .     S
C157   H176    1.082   .     S
C157   C588    1.410   1_554 S
C157   C587    1.384   1_554 S
C158   C162    1.438   .     A
C159   C163    1.383   .     A
C159   C160    1.412   .     A
C159   C588    1.398   1_554 S
C160   C593    1.393   1_554 S
C161   C162    1.398   .     A
C161   H172    1.085   .     S
C161   C592    1.393   .     S
C162   S190    1.770   .     S
C163   H174    1.084   .     S
C164   H165    1.083   .     S
H166   C587    1.083   1_554 S
H168   O181    0.991   .     S
H169   C293    1.088   .     S
H170   N177    1.029   .     S
H171   N178    1.029   .     S
H175   C202    1.084   .     S
N177   N178    1.281   .     D
N177   Zn192   2.014   .     S
N178   Zn191   2.014   .     S
O179   Zn191   1.955   .     S
O179   C193    1.275   .     S
O180   S190    1.499   .     D
O181   S190    1.680   .     S
O182   Zn192   1.979   .     S
O183   Zn191   1.981   .     S
O183   C196    1.299   .     S
O184   Zn192   1.974   .     S
O185   Zn191   1.979   .     S
O186   Zn192   1.955   .     S
O186   C246    1.275   1_455 S
O187   Zn191   1.974   .     S
O188   Zn192   1.981   .     S
O188   C247    1.289   1_455 S
O189   S190    1.506   .     D
C193   O230    1.286   .     A
C193   C195    1.402   .     S
C194   C196    1.456   .     S
C194   C206    1.425   .     A
C194   C202    1.408   .     A
C195   C293    1.337   .     S
C195   H359    1.088   .     S
C196   O232    1.291   .     A
C197   C198    1.402   .     S
C198   O233    1.286   .     A
C198   O282    1.275   .     S
C199   O235    1.286   .     A
C199   C201    1.433   .     S
C199   O284    1.289   .     S
C200   C208    1.402   .     A
C200   C212    1.395   .     A
C200   H221    1.084   .     S
C201   C212    1.403   .     A
C201   C211    1.384   .     A
C202   C203    1.385   .     A
C203   C637    1.384   .     S
C203   H646    1.083   .     S
C204   C206    1.413   .     A
C204   C637    1.410   .     S
C204   C639    1.398   .     S
C205   H224    1.082   .     S
C205   C636    1.410   1_554 S
C205   C635    1.384   1_554 S
C206   C210    1.438   .     A
C207   C211    1.383   .     A
C207   C208    1.412   .     A
C207   C636    1.398   1_554 S
C208   C641    1.393   1_554 S
C209   C210    1.398   .     A
C209   H220    1.085   .     S
C209   C640    1.393   .     S
C210   S238    1.770   .     S
C211   H222    1.084   .     S
C212   H213    1.083   .     S
H214   C635    1.083   1_554 S
H216   O229    0.991   .     S
H217   C341    1.088   .     S
H218   N225    1.029   .     S
H219   N226    1.029   .     S
H223   C250    1.084   .     S
N225   N226    1.281   .     D
N225   Zn240   2.014   .     S
N226   Zn239   2.014   .     S
O227   Zn239   1.955   .     S
O227   C241    1.275   .     S
O228   S238    1.499   .     D
O229   S238    1.680   .     S
O230   Zn240   1.979   .     S
O231   Zn239   1.981   .     S
O231   C244    1.299   .     S
O232   Zn240   1.974   .     S
O233   Zn239   1.979   .     S
O234   Zn240   1.955   .     S
O235   Zn239   1.974   .     S
O236   Zn240   1.981   .     S
O237   S238    1.506   .     D
C241   O278    1.286   .     A
C241   C243    1.402   .     S
C242   C244    1.456   .     S
C242   C254    1.425   .     A
C242   C250    1.408   .     A
C243   C341    1.337   .     S
C243   H407    1.088   .     S
C244   O280    1.291   .     A
C245   C246    1.402   .     S
C245   C3      1.337   1_655 S
C246   O281    1.286   .     A
C246   O186    1.275   1_655 S
C247   O283    1.286   .     A
C247   C249    1.433   .     S
C247   O188    1.289   1_655 S
C248   C256    1.402   .     A
C248   C260    1.395   .     A
C248   H269    1.084   .     S
C249   C260    1.403   .     A
C249   C259    1.384   .     A
C250   C251    1.385   .     A
C251   C685    1.384   .     S
C251   H694    1.083   .     S
C252   C254    1.413   .     A
C252   C685    1.410   .     S
C252   C687    1.398   .     S
C253   H272    1.082   .     S
C253   C684    1.410   1_554 S
C253   C683    1.384   1_554 S
C254   C258    1.438   .     A
C255   C259    1.383   .     A
C255   C256    1.412   .     A
C255   C684    1.398   1_554 S
C256   C689    1.393   1_554 S
C257   C258    1.398   .     A
C257   H268    1.085   .     S
C257   C688    1.393   .     S
C258   S286    1.770   .     S
C259   H270    1.084   .     S
C260   H261    1.083   .     S
H262   C683    1.083   1_554 S
H264   O277    0.991   .     S
H265   C389    1.088   .     S
H266   N273    1.029   .     S
H267   N274    1.029   .     S
H271   C154    1.084   1_655 S
N273   N274    1.281   .     D
N273   Zn288   2.014   .     S
N274   Zn287   2.014   .     S
O275   Zn287   1.955   .     S
O275   C145    1.275   1_655 S
O276   S286    1.499   .     D
O277   S286    1.680   .     S
O278   Zn288   1.979   .     S
O279   Zn287   1.981   .     S
O279   C148    1.299   1_655 S
O280   Zn288   1.974   .     S
O281   Zn287   1.979   .     S
O282   Zn288   1.955   .     S
O283   Zn287   1.974   .     S
O284   Zn288   1.981   .     S
O285   S286    1.506   .     D
C289   O326    1.286   .     A
C289   C291    1.402   .     S
C289   O419    1.275   1_455 S
C290   C292    1.456   .     S
C290   C302    1.425   .     A
C290   C298    1.408   .     A
C291   C101    1.337   1_465 S
C291   H23     1.088   1_565 S
C292   O328    1.291   .     A
C292   O423    1.299   1_455 S
C293   C294    1.402   .     S
C294   O329    1.286   .     A
C294   O378    1.275   .     S
C295   O331    1.286   .     A
C295   C297    1.433   .     S
C295   O380    1.289   .     S
C296   C304    1.402   .     A
C296   C308    1.395   .     A
C296   H317    1.084   .     S
C297   C308    1.403   .     A
C297   C307    1.384   .     A
C298   C299    1.385   .     A
C298   H415    1.084   1_455 S
C299   C733    1.384   .     S
C299   H742    1.083   .     S
C300   C302    1.413   .     A
C300   C733    1.410   .     S
C300   C735    1.398   .     S
C301   H320    1.082   .     S
C301   C732    1.410   1_554 S
C301   C731    1.384   1_554 S
C302   C306    1.438   .     A
C303   C307    1.383   .     A
C303   C304    1.412   .     A
C303   C732    1.398   1_554 S
C304   C737    1.393   1_554 S
C305   C306    1.398   .     A
C305   H316    1.085   .     S
C305   C736    1.393   .     S
C306   S334    1.770   .     S
C307   H318    1.084   .     S
C308   H309    1.083   .     S
H310   C731    1.083   1_554 S
H312   O325    0.991   .     S
H313   C5      1.088   1_565 S
H314   N321    1.029   .     S
H315   N322    1.029   .     S
H319   C346    1.084   .     S
N321   N322    1.281   .     D
N321   Zn336   2.014   .     S
N322   Zn335   2.014   .     S
O323   Zn335   1.955   .     S
O323   C337    1.275   .     S
O324   S334    1.499   .     D
O325   S334    1.680   .     S
O326   Zn336   1.979   .     S
O327   Zn335   1.981   .     S
O327   C340    1.299   .     S
O328   Zn336   1.974   .     S
O329   Zn335   1.979   .     S
O330   Zn336   1.955   .     S
O330   C390    1.275   1_455 S
O331   Zn335   1.974   .     S
O332   Zn336   1.981   .     S
O332   C391    1.289   1_455 S
O333   S334    1.506   .     D
C337   O374    1.286   .     A
C337   C339    1.402   .     S
C338   C340    1.456   .     S
C338   C350    1.425   .     A
C338   C346    1.408   .     A
C339   C5      1.337   1_565 S
C339   H71     1.088   1_565 S
C340   O376    1.291   .     A
C341   C342    1.402   .     S
C342   O377    1.286   .     A
C342   O426    1.275   .     S
C343   O379    1.286   .     A
C343   C345    1.433   .     S
C343   O428    1.289   .     S
C344   C352    1.402   .     A
C344   C356    1.395   .     A
C344   H365    1.084   .     S
C345   C356    1.403   .     A
C345   C355    1.384   .     A
C346   C347    1.385   .     A
C347   C781    1.384   .     S
C347   H790    1.083   .     S
C348   C350    1.413   .     A
C348   C781    1.410   .     S
C348   C783    1.398   .     S
C349   H368    1.082   .     S
C349   C780    1.410   1_554 S
C349   C779    1.384   1_554 S
C350   C354    1.438   .     A
C351   C355    1.383   .     A
C351   C352    1.412   .     A
C351   C780    1.398   1_554 S
C352   C785    1.393   1_554 S
C353   C354    1.398   .     A
C353   H364    1.085   .     S
C353   C784    1.393   .     S
C354   S382    1.770   .     S
C355   H366    1.084   .     S
C356   H357    1.083   .     S
H358   C779    1.083   1_554 S
H360   O373    0.991   .     S
H361   C53     1.088   1_565 S
H362   N369    1.029   .     S
H363   N370    1.029   .     S
H367   C394    1.084   .     S
N369   N370    1.281   .     D
N369   Zn384   2.014   .     S
N370   Zn383   2.014   .     S
O371   Zn383   1.955   .     S
O371   C385    1.275   .     S
O372   S382    1.499   .     D
O373   S382    1.680   .     S
O374   Zn384   1.979   .     S
O375   Zn383   1.981   .     S
O375   C388    1.299   .     S
O376   Zn384   1.974   .     S
O377   Zn383   1.979   .     S
O378   Zn384   1.955   .     S
O379   Zn383   1.974   .     S
O380   Zn384   1.981   .     S
O381   S382    1.506   .     D
C385   O422    1.286   .     A
C385   C387    1.402   .     S
C386   C388    1.456   .     S
C386   C398    1.425   .     A
C386   C394    1.408   .     A
C387   C53     1.337   1_565 S
C387   H119    1.088   1_565 S
C388   O424    1.291   .     A
C389   C390    1.402   .     S
C389   C147    1.337   1_655 S
C390   O425    1.286   .     A
C390   O330    1.275   1_655 S
C391   O427    1.286   .     A
C391   C393    1.433   .     S
C391   O332    1.289   1_655 S
C392   C400    1.402   .     A
C392   C404    1.395   .     A
C392   H413    1.084   .     S
C393   C404    1.403   .     A
C393   C403    1.384   .     A
C394   C395    1.385   .     A
C395   C829    1.384   .     S
C395   H838    1.083   .     S
C396   C398    1.413   .     A
C396   C829    1.410   .     S
C396   C831    1.398   .     S
C397   H416    1.082   .     S
C397   C828    1.410   1_554 S
C397   C827    1.384   1_554 S
C398   C402    1.438   .     A
C399   C403    1.383   .     A
C399   C400    1.412   .     A
C399   C828    1.398   1_554 S
C400   C833    1.393   1_554 S
C401   C402    1.398   .     A
C401   H412    1.085   .     S
C401   C832    1.393   .     S
C402   S430    1.770   .     S
C403   H414    1.084   .     S
C404   H405    1.083   .     S
H406   C827    1.083   1_554 S
H408   O421    0.991   .     S
H409   C101    1.088   1_565 S
H410   N417    1.029   .     S
H411   N418    1.029   .     S
H415   C298    1.084   1_655 S
N417   N418    1.281   .     D
N417   Zn432   2.014   .     S
N418   Zn431   2.014   .     S
O419   Zn431   1.955   .     S
O419   C289    1.275   1_655 S
O420   S430    1.499   .     D
O421   S430    1.680   .     S
O422   Zn432   1.979   .     S
O423   Zn431   1.981   .     S
O423   C292    1.299   1_655 S
O424   Zn432   1.974   .     S
O425   Zn431   1.979   .     S
O426   Zn432   1.955   .     S
O427   Zn431   1.974   .     S
O428   Zn432   1.981   .     S
O429   S430    1.506   .     D
C433   O470    1.286   .     A
C433   C435    1.402   .     S
C433   O563    1.275   1_455 S
C434   C436    1.456   .     S
C434   C446    1.425   .     A
C434   C442    1.408   .     A
C435   C677    1.337   1_455 S
C435   H599    1.088   .     S
C436   O472    1.291   .     A
C436   O567    1.299   1_455 S
C437   C438    1.402   .     S
C437   C771    1.337   1_545 S
C437   H745    1.088   1_545 S
C438   O473    1.286   .     A
C438   O522    1.275   .     S
C439   O475    1.286   .     A
C439   C441    1.433   .     S
C439   O524    1.289   .     S
C440   C448    1.402   .     A
C440   C452    1.395   .     A
C440   H461    1.084   .     S
C441   C452    1.403   .     A
C441   C451    1.384   .     A
C442   C443    1.385   .     A
C442   H559    1.084   1_455 S
C443   C13     1.384   1_556 S
C443   H22     1.083   1_556 S
C444   C446    1.413   .     A
C444   C13     1.410   1_556 S
C444   C15     1.398   1_556 S
C445   H464    1.082   .     S
C446   C450    1.438   .     A
C447   C451    1.383   .     A
C447   C448    1.412   .     A
C449   C450    1.398   .     A
C449   H460    1.085   .     S
C449   C16     1.393   1_556 S
C450   S478    1.770   .     S
C451   H462    1.084   .     S
C452   H453    1.083   .     S
H455   C723    1.088   1_545 S
H456   O469    0.991   .     S
H457   C581    1.088   .     S
H458   N465    1.029   .     S
H459   N466    1.029   .     S
H463   C490    1.084   .     S
N465   N466    1.281   .     D
N465   Zn480   2.014   .     S
N466   Zn479   2.014   .     S
O467   Zn479   1.955   .     S
O467   C481    1.275   .     S
O468   S478    1.499   .     D
O469   S478    1.680   .     S
O470   Zn480   1.979   .     S
O471   Zn479   1.981   .     S
O471   C484    1.299   .     S
O472   Zn480   1.974   .     S
O473   Zn479   1.979   .     S
O474   Zn480   1.955   .     S
O474   C534    1.275   1_455 S
O475   Zn479   1.974   .     S
O476   Zn480   1.981   .     S
O476   C535    1.289   1_455 S
O477   S478    1.506   .     D
C481   O518    1.286   .     A
C481   C483    1.402   .     S
C482   C484    1.456   .     S
C482   C494    1.425   .     A
C482   C490    1.408   .     A
C483   C581    1.337   .     S
C483   H647    1.088   .     S
C484   O520    1.291   .     A
C485   C486    1.402   .     S
C485   C819    1.337   1_545 S
C485   H793    1.088   1_545 S
C486   O521    1.286   .     A
C486   O570    1.275   .     S
C487   O523    1.286   .     A
C487   C489    1.433   .     S
C487   O572    1.289   .     S
C488   C496    1.402   .     A
C488   C500    1.395   .     A
C488   H509    1.084   .     S
C489   C500    1.403   .     A
C489   C499    1.384   .     A
C490   C491    1.385   .     A
C491   C61     1.384   1_556 S
C491   H70     1.083   1_556 S
C492   C494    1.413   .     A
C492   C61     1.410   1_556 S
C492   C63     1.398   1_556 S
C493   H512    1.082   .     S
C494   C498    1.438   .     A
C495   C499    1.383   .     A
C495   C496    1.412   .     A
C497   C498    1.398   .     A
C497   H508    1.085   .     S
C497   C64     1.393   1_556 S
C498   S526    1.770   .     S
C499   H510    1.084   .     S
C500   H501    1.083   .     S
H503   C771    1.088   1_545 S
H504   O517    0.991   .     S
H505   C629    1.088   .     S
H506   N513    1.029   .     S
H507   N514    1.029   .     S
H511   C538    1.084   .     S
N513   N514    1.281   .     D
N513   Zn528   2.014   .     S
N514   Zn527   2.014   .     S
O515   Zn527   1.955   .     S
O515   C529    1.275   .     S
O516   S526    1.499   .     D
O517   S526    1.680   .     S
O518   Zn528   1.979   .     S
O519   Zn527   1.981   .     S
O519   C532    1.299   .     S
O520   Zn528   1.974   .     S
O521   Zn527   1.979   .     S
O522   Zn528   1.955   .     S
O523   Zn527   1.974   .     S
O524   Zn528   1.981   .     S
O525   S526    1.506   .     D
C529   O566    1.286   .     A
C529   C531    1.402   .     S
C530   C532    1.456   .     S
C530   C542    1.425   .     A
C530   C538    1.408   .     A
C531   C629    1.337   .     S
C531   H695    1.088   .     S
C532   O568    1.291   .     A
C533   C534    1.402   .     S
C533   C723    1.337   1_645 S
C533   H841    1.088   1_545 S
C534   O569    1.286   .     A
C534   O474    1.275   1_655 S
C535   O571    1.286   .     A
C535   C537    1.433   .     S
C535   O476    1.289   1_655 S
C536   C544    1.402   .     A
C536   C548    1.395   .     A
C536   H557    1.084   .     S
C537   C548    1.403   .     A
C537   C547    1.384   .     A
C538   C539    1.385   .     A
C539   C109    1.384   1_556 S
C539   H118    1.083   1_556 S
C540   C542    1.413   .     A
C540   C109    1.410   1_556 S
C540   C111    1.398   1_556 S
C541   H560    1.082   .     S
C542   C546    1.438   .     A
C543   C547    1.383   .     A
C543   C544    1.412   .     A
C545   C546    1.398   .     A
C545   H556    1.085   .     S
C545   C112    1.393   1_556 S
C546   S574    1.770   .     S
C547   H558    1.084   .     S
C548   H549    1.083   .     S
H551   C819    1.088   1_545 S
H552   O565    0.991   .     S
H553   C677    1.088   .     S
H554   N561    1.029   .     S
H555   N562    1.029   .     S
H559   C442    1.084   1_655 S
N561   N562    1.281   .     D
N561   Zn576   2.014   .     S
N562   Zn575   2.014   .     S
O563   Zn575   1.955   .     S
O563   C433    1.275   1_655 S
O564   S574    1.499   .     D
O565   S574    1.680   .     S
O566   Zn576   1.979   .     S
O567   Zn575   1.981   .     S
O567   C436    1.299   1_655 S
O568   Zn576   1.974   .     S
O569   Zn575   1.979   .     S
O570   Zn576   1.955   .     S
O571   Zn575   1.974   .     S
O572   Zn576   1.981   .     S
O573   S574    1.506   .     D
C577   O614    1.286   .     A
C577   C579    1.402   .     S
C577   O707    1.275   1_455 S
C578   C580    1.456   .     S
C578   C590    1.425   .     A
C578   C586    1.408   .     A
C579   C821    1.337   1_455 S
C579   H743    1.088   .     S
C580   O616    1.291   .     A
C580   O711    1.299   1_455 S
C581   C582    1.402   .     S
C582   O617    1.286   .     A
C582   O666    1.275   .     S
C583   O619    1.286   .     A
C583   C585    1.433   .     S
C583   O668    1.289   .     S
C584   C592    1.402   .     A
C584   C596    1.395   .     A
C584   H605    1.084   .     S
C585   C596    1.403   .     A
C585   C595    1.384   .     A
C586   C587    1.385   .     A
C586   H703    1.084   1_455 S
C587   C157    1.384   1_556 S
C587   H166    1.083   1_556 S
C588   C590    1.413   .     A
C588   C157    1.410   1_556 S
C588   C159    1.398   1_556 S
C589   H608    1.082   .     S
C590   C594    1.438   .     A
C591   C595    1.383   .     A
C591   C592    1.412   .     A
C593   C594    1.398   .     A
C593   H604    1.085   .     S
C593   C160    1.393   1_556 S
C594   S622    1.770   .     S
C595   H606    1.084   .     S
C596   H597    1.083   .     S
H600   O613    0.991   .     S
H601   C725    1.088   .     S
H602   N609    1.029   .     S
H603   N610    1.029   .     S
H607   C634    1.084   .     S
N609   N610    1.281   .     D
N609   Zn624   2.014   .     S
N610   Zn623   2.014   .     S
O611   Zn623   1.955   .     S
O611   C625    1.275   .     S
O612   S622    1.499   .     D
O613   S622    1.680   .     S
O614   Zn624   1.979   .     S
O615   Zn623   1.981   .     S
O615   C628    1.299   .     S
O616   Zn624   1.974   .     S
O617   Zn623   1.979   .     S
O618   Zn624   1.955   .     S
O618   C678    1.275   1_455 S
O619   Zn623   1.974   .     S
O620   Zn624   1.981   .     S
O620   C679    1.289   1_455 S
O621   S622    1.506   .     D
C625   O662    1.286   .     A
C625   C627    1.402   .     S
C626   C628    1.456   .     S
C626   C638    1.425   .     A
C626   C634    1.408   .     A
C627   C725    1.337   .     S
C627   H791    1.088   .     S
C628   O664    1.291   .     A
C629   C630    1.402   .     S
C630   O665    1.286   .     A
C630   O714    1.275   .     S
C631   O667    1.286   .     A
C631   C633    1.433   .     S
C631   O716    1.289   .     S
C632   C640    1.402   .     A
C632   C644    1.395   .     A
C632   H653    1.084   .     S
C633   C644    1.403   .     A
C633   C643    1.384   .     A
C634   C635    1.385   .     A
C635   C205    1.384   1_556 S
C635   H214    1.083   1_556 S
C636   C638    1.413   .     A
C636   C205    1.410   1_556 S
C636   C207    1.398   1_556 S
C637   H656    1.082   .     S
C638   C642    1.438   .     A
C639   C643    1.383   .     A
C639   C640    1.412   .     A
C641   C642    1.398   .     A
C641   H652    1.085   .     S
C641   C208    1.393   1_556 S
C642   S670    1.770   .     S
C643   H654    1.084   .     S
C644   H645    1.083   .     S
H648   O661    0.991   .     S
H649   C773    1.088   .     S
H650   N657    1.029   .     S
H651   N658    1.029   .     S
H655   C682    1.084   .     S
N657   N658    1.281   .     D
N657   Zn672   2.014   .     S
N658   Zn671   2.014   .     S
O659   Zn671   1.955   .     S
O659   C673    1.275   .     S
O660   S670    1.499   .     D
O661   S670    1.680   .     S
O662   Zn672   1.979   .     S
O663   Zn671   1.981   .     S
O663   C676    1.299   .     S
O664   Zn672   1.974   .     S
O665   Zn671   1.979   .     S
O666   Zn672   1.955   .     S
O667   Zn671   1.974   .     S
O668   Zn672   1.981   .     S
O669   S670    1.506   .     D
C673   O710    1.286   .     A
C673   C675    1.402   .     S
C674   C676    1.456   .     S
C674   C686    1.425   .     A
C674   C682    1.408   .     A
C675   C773    1.337   .     S
C675   H839    1.088   .     S
C676   O712    1.291   .     A
C677   C678    1.402   .     S
C677   C435    1.337   1_655 S
C678   O713    1.286   .     A
C678   O618    1.275   1_655 S
C679   O715    1.286   .     A
C679   C681    1.433   .     S
C679   O620    1.289   1_655 S
C680   C688    1.402   .     A
C680   C692    1.395   .     A
C680   H701    1.084   .     S
C681   C692    1.403   .     A
C681   C691    1.384   .     A
C682   C683    1.385   .     A
C683   C253    1.384   1_556 S
C683   H262    1.083   1_556 S
C684   C686    1.413   .     A
C684   C253    1.410   1_556 S
C684   C255    1.398   1_556 S
C685   H704    1.082   .     S
C686   C690    1.438   .     A
C687   C691    1.383   .     A
C687   C688    1.412   .     A
C689   C690    1.398   .     A
C689   H700    1.085   .     S
C689   C256    1.393   1_556 S
C690   S718    1.770   .     S
C691   H702    1.084   .     S
C692   H693    1.083   .     S
H696   O709    0.991   .     S
H697   C821    1.088   .     S
H698   N705    1.029   .     S
H699   N706    1.029   .     S
H703   C586    1.084   1_655 S
N705   N706    1.281   .     D
N705   Zn720   2.014   .     S
N706   Zn719   2.014   .     S
O707   Zn719   1.955   .     S
O707   C577    1.275   1_655 S
O708   S718    1.499   .     D
O709   S718    1.680   .     S
O710   Zn720   1.979   .     S
O711   Zn719   1.981   .     S
O711   C580    1.299   1_655 S
O712   Zn720   1.974   .     S
O713   Zn719   1.979   .     S
O714   Zn720   1.955   .     S
O715   Zn719   1.974   .     S
O716   Zn720   1.981   .     S
O717   S718    1.506   .     D
C721   O758    1.286   .     A
C721   C723    1.402   .     S
C721   O851    1.275   1_455 S
C722   C724    1.456   .     S
C722   C734    1.425   .     A
C722   C730    1.408   .     A
C723   C533    1.337   1_465 S
C723   H455    1.088   1_565 S
C724   O760    1.291   .     A
C724   O855    1.299   1_455 S
C725   C726    1.402   .     S
C726   O761    1.286   .     A
C726   O810    1.275   .     S
C727   O763    1.286   .     A
C727   C729    1.433   .     S
C727   O812    1.289   .     S
C728   C736    1.402   .     A
C728   C740    1.395   .     A
C728   H749    1.084   .     S
C729   C740    1.403   .     A
C729   C739    1.384   .     A
C730   C731    1.385   .     A
C730   H847    1.084   1_455 S
C731   C301    1.384   1_556 S
C731   H310    1.083   1_556 S
C732   C734    1.413   .     A
C732   C301    1.410   1_556 S
C732   C303    1.398   1_556 S
C733   H752    1.082   .     S
C734   C738    1.438   .     A
C735   C739    1.383   .     A
C735   C736    1.412   .     A
C737   C738    1.398   .     A
C737   H748    1.085   .     S
C737   C304    1.393   1_556 S
C738   S766    1.770   .     S
C739   H750    1.084   .     S
C740   H741    1.083   .     S
H744   O757    0.991   .     S
H745   C437    1.088   1_565 S
H746   N753    1.029   .     S
H747   N754    1.029   .     S
H751   C778    1.084   .     S
N753   N754    1.281   .     D
N753   Zn768   2.014   .     S
N754   Zn767   2.014   .     S
O755   Zn767   1.955   .     S
O755   C769    1.275   .     S
O756   S766    1.499   .     D
O757   S766    1.680   .     S
O758   Zn768   1.979   .     S
O759   Zn767   1.981   .     S
O759   C772    1.299   .     S
O760   Zn768   1.974   .     S
O761   Zn767   1.979   .     S
O762   Zn768   1.955   .     S
O762   C822    1.275   1_455 S
O763   Zn767   1.974   .     S
O764   Zn768   1.981   .     S
O764   C823    1.289   1_455 S
O765   S766    1.506   .     D
C769   O806    1.286   .     A
C769   C771    1.402   .     S
C770   C772    1.456   .     S
C770   C782    1.425   .     A
C770   C778    1.408   .     A
C771   C437    1.337   1_565 S
C771   H503    1.088   1_565 S
C772   O808    1.291   .     A
C773   C774    1.402   .     S
C774   O809    1.286   .     A
C774   O858    1.275   .     S
C775   O811    1.286   .     A
C775   C777    1.433   .     S
C775   O860    1.289   .     S
C776   C784    1.402   .     A
C776   C788    1.395   .     A
C776   H797    1.084   .     S
C777   C788    1.403   .     A
C777   C787    1.384   .     A
C778   C779    1.385   .     A
C779   C349    1.384   1_556 S
C779   H358    1.083   1_556 S
C780   C782    1.413   .     A
C780   C349    1.410   1_556 S
C780   C351    1.398   1_556 S
C781   H800    1.082   .     S
C782   C786    1.438   .     A
C783   C787    1.383   .     A
C783   C784    1.412   .     A
C785   C786    1.398   .     A
C785   H796    1.085   .     S
C785   C352    1.393   1_556 S
C786   S814    1.770   .     S
C787   H798    1.084   .     S
C788   H789    1.083   .     S
H792   O805    0.991   .     S
H793   C485    1.088   1_565 S
H794   N801    1.029   .     S
H795   N802    1.029   .     S
H799   C826    1.084   .     S
N801   N802    1.281   .     D
N801   Zn816   2.014   .     S
N802   Zn815   2.014   .     S
O803   Zn815   1.955   .     S
O803   C817    1.275   .     S
O804   S814    1.499   .     D
O805   S814    1.680   .     S
O806   Zn816   1.979   .     S
O807   Zn815   1.981   .     S
O807   C820    1.299   .     S
O808   Zn816   1.974   .     S
O809   Zn815   1.979   .     S
O810   Zn816   1.955   .     S
O811   Zn815   1.974   .     S
O812   Zn816   1.981   .     S
O813   S814    1.506   .     D
C817   O854    1.286   .     A
C817   C819    1.402   .     S
C818   C820    1.456   .     S
C818   C830    1.425   .     A
C818   C826    1.408   .     A
C819   C485    1.337   1_565 S
C819   H551    1.088   1_565 S
C820   O856    1.291   .     A
C821   C822    1.402   .     S
C821   C579    1.337   1_655 S
C822   O857    1.286   .     A
C822   O762    1.275   1_655 S
C823   O859    1.286   .     A
C823   C825    1.433   .     S
C823   O764    1.289   1_655 S
C824   C832    1.402   .     A
C824   C836    1.395   .     A
C824   H845    1.084   .     S
C825   C836    1.403   .     A
C825   C835    1.384   .     A
C826   C827    1.385   .     A
C827   C397    1.384   1_556 S
C827   H406    1.083   1_556 S
C828   C830    1.413   .     A
C828   C397    1.410   1_556 S
C828   C399    1.398   1_556 S
C829   H848    1.082   .     S
C830   C834    1.438   .     A
C831   C835    1.383   .     A
C831   C832    1.412   .     A
C833   C834    1.398   .     A
C833   H844    1.085   .     S
C833   C400    1.393   1_556 S
C834   S862    1.770   .     S
C835   H846    1.084   .     S
C836   H837    1.083   .     S
H840   O853    0.991   .     S
H841   C533    1.088   1_565 S
H842   N849    1.029   .     S
H843   N850    1.029   .     S
H847   C730    1.084   1_655 S
N849   N850    1.281   .     D
N849   Zn864   2.014   .     S
N850   Zn863   2.014   .     S
O851   Zn863   1.955   .     S
O851   C721    1.275   1_655 S
O852   S862    1.499   .     D
O853   S862    1.680   .     S
O854   Zn864   1.979   .     S
O855   Zn863   1.981   .     S
O855   C724    1.299   1_655 S
O856   Zn864   1.974   .     S
O857   Zn863   1.979   .     S
O858   Zn864   1.955   .     S
O859   Zn863   1.974   .     S
O860   Zn864   1.981   .     S
O861   S862    1.506   .     D
