data_str_m3_o1_o17_pcu_sym.132
_audit_creation_date              2020-01-03
_audit_creation_method            'Materials Studio'
_symmetry_space_group_name_H-M    'P1'
_symmetry_Int_Tables_number       1
_symmetry_cell_setting            triclinic
loop_
_symmetry_equiv_pos_as_xyz
  x,y,z
_cell_length_a                    32.0220
_cell_length_b                    29.5034
_cell_length_c                    30.0835
_cell_angle_alpha                 90.5032
_cell_angle_beta                  90.2492
_cell_angle_gamma                 89.9395
loop_
_atom_site_label
_atom_site_type_symbol
_atom_site_fract_x
_atom_site_fract_y
_atom_site_fract_z
_atom_site_U_iso_or_equiv
_atom_site_adp_type
_atom_site_occupancy
C1     C     0.08669   0.16668   0.24995   0.00000  Uiso   1.00
C2     C     0.24665   0.16665   0.25005   0.00000  Uiso   1.00
C3     C     0.18079   0.08514   0.02176   0.00000  Uiso   1.00
C4     C     0.15254   0.24819   0.47824   0.00000  Uiso   1.00
C5     C     0.02159   0.13517   0.27612   0.00000  Uiso   1.00
C6     C     0.31174   0.19816   0.22388   0.00000  Uiso   1.00
C7     C     0.31207   0.13516   0.27616   0.00000  Uiso   1.00
C8     C     0.02127   0.19817   0.22384   0.00000  Uiso   1.00
C9     C     0.29075   0.16664   0.25002   0.00000  Uiso   1.00
C10    C     0.04259   0.16669   0.24998   0.00000  Uiso   1.00
C11    C     0.19154   0.02421   0.27885   0.00000  Uiso   1.00
C12    C     0.14179   0.30913   0.22115   0.00000  Uiso   1.00
C13    C     0.14177   0.02378   0.22116   0.00000  Uiso   1.00
C14    C     0.19156   0.30956   0.27884   0.00000  Uiso   1.00
C15    C     0.16687   0.16642   0.16326   0.00000  Uiso   1.00
C16    C     0.16646   0.16692   0.33674   0.00000  Uiso   1.00
C17    C     0.15908   0.20800   0.40820   0.00000  Uiso   1.00
C18    C     0.17426   0.12533   0.09180   0.00000  Uiso   1.00
C19    C     0.16624   0.16742   0.38471   0.00000  Uiso   1.00
C20    C     0.16709   0.16591   0.11529   0.00000  Uiso   1.00
C21    C     0.17334   0.12680   0.40708   0.00000  Uiso   1.00
C22    C     0.15999   0.20654   0.09292   0.00000  Uiso   1.00
C23    C     0.17350   0.12607   0.45306   0.00000  Uiso   1.00
C24    C     0.15983   0.20726   0.04694   0.00000  Uiso   1.00
C25    C     0.16655   0.16683   0.47683   0.00000  Uiso   1.00
C26    C     0.16678   0.16650   0.02317   0.00000  Uiso   1.00
C27    C     0.15936   0.20791   0.45431   0.00000  Uiso   1.00
C28    C     0.17398   0.12542   0.04569   0.00000  Uiso   1.00
C29    C     0.18055   0.08538   0.47564   0.00000  Uiso   1.00
C30    C     0.15279   0.24795   0.02436   0.00000  Uiso   1.00
H31    H     0.17899   0.09568   0.38863   0.00000  Uiso   1.00
H32    H     0.15435   0.23766   0.11137   0.00000  Uiso   1.00
H33    H     0.18628   0.05336   0.03861   0.00000  Uiso   1.00
H34    H     0.14706   0.27997   0.46139   0.00000  Uiso   1.00
N35    N     0.16667   0.28573   0.25000   0.00000  Uiso   1.00
N36    N     0.16667   0.04760   0.25000   0.00000  Uiso   1.00
O37    O     0.10559   0.20487   0.24999   0.00000  Uiso   1.00
O38    O     0.22774   0.12846   0.25000   0.00000  Uiso   1.00
O39    O     0.22774   0.20487   0.25000   0.00000  Uiso   1.00
O40    O     0.10559   0.12846   0.24999   0.00000  Uiso   1.00
O41    O     0.16666   0.20489   0.18392   0.00000  Uiso   1.00
O42    O     0.16667   0.12844   0.31607   0.00000  Uiso   1.00
O43    O     0.16667   0.20489   0.31607   0.00000  Uiso   1.00
O44    O     0.16666   0.12844   0.18392   0.00000  Uiso   1.00
Zn45   Zn    0.16667   0.21771   0.25000   0.00000  Uiso   1.00
Zn46   Zn    0.16667   0.11563   0.25000   0.00000  Uiso   1.00
F47    F     0.15138   0.24743   0.38647   0.00000  Uiso   1.00
F48    F     0.18195   0.08591   0.11353   0.00000  Uiso   1.00
F49    F     0.18717   0.04588   0.45319   0.00000  Uiso   1.00
F50    F     0.14617   0.28745   0.04681   0.00000  Uiso   1.00
F51    F     0.04256   0.10547   0.30235   0.00000  Uiso   1.00
F52    F     0.29078   0.22786   0.19765   0.00000  Uiso   1.00
F53    F     0.29144   0.10552   0.30249   0.00000  Uiso   1.00
F54    F     0.04189   0.22781   0.19751   0.00000  Uiso   1.00
F55    F     0.21643   0.04713   0.30780   0.00000  Uiso   1.00
F56    F     0.11690   0.28620   0.19220   0.00000  Uiso   1.00
F57    F     0.11679   0.04629   0.19233   0.00000  Uiso   1.00
F58    F     0.21655   0.28704   0.30767   0.00000  Uiso   1.00
C59    C     0.42002   0.16668   0.24995   0.00000  Uiso   1.00
C60    C     0.57998   0.16665   0.25005   0.00000  Uiso   1.00
C61    C     0.51412   0.08514   0.02176   0.00000  Uiso   1.00
C62    C     0.48588   0.24819   0.47824   0.00000  Uiso   1.00
C63    C     0.35493   0.13517   0.27612   0.00000  Uiso   1.00
C64    C     0.64507   0.19816   0.22388   0.00000  Uiso   1.00
C65    C     0.64540   0.13516   0.27616   0.00000  Uiso   1.00
C66    C     0.35460   0.19817   0.22384   0.00000  Uiso   1.00
C67    C     0.62408   0.16664   0.25002   0.00000  Uiso   1.00
C68    C     0.37592   0.16669   0.24998   0.00000  Uiso   1.00
C69    C     0.52488   0.02421   0.27885   0.00000  Uiso   1.00
C70    C     0.47512   0.30913   0.22115   0.00000  Uiso   1.00
C71    C     0.47511   0.02378   0.22116   0.00000  Uiso   1.00
C72    C     0.52489   0.30956   0.27884   0.00000  Uiso   1.00
C73    C     0.50021   0.16642   0.16326   0.00000  Uiso   1.00
C74    C     0.49979   0.16692   0.33674   0.00000  Uiso   1.00
C75    C     0.49241   0.20800   0.40820   0.00000  Uiso   1.00
C76    C     0.50759   0.12533   0.09180   0.00000  Uiso   1.00
C77    C     0.49958   0.16742   0.38471   0.00000  Uiso   1.00
C78    C     0.50042   0.16591   0.11529   0.00000  Uiso   1.00
C79    C     0.50667   0.12680   0.40708   0.00000  Uiso   1.00
C80    C     0.49333   0.20654   0.09292   0.00000  Uiso   1.00
C81    C     0.50683   0.12607   0.45306   0.00000  Uiso   1.00
C82    C     0.49317   0.20726   0.04694   0.00000  Uiso   1.00
C83    C     0.49989   0.16683   0.47683   0.00000  Uiso   1.00
C84    C     0.50011   0.16650   0.02317   0.00000  Uiso   1.00
C85    C     0.49269   0.20791   0.45431   0.00000  Uiso   1.00
C86    C     0.50731   0.12542   0.04569   0.00000  Uiso   1.00
C87    C     0.51388   0.08538   0.47564   0.00000  Uiso   1.00
C88    C     0.48612   0.24795   0.02436   0.00000  Uiso   1.00
H89    H     0.51232   0.09568   0.38863   0.00000  Uiso   1.00
H90    H     0.48768   0.23766   0.11137   0.00000  Uiso   1.00
H91    H     0.51961   0.05336   0.03861   0.00000  Uiso   1.00
H92    H     0.48039   0.27997   0.46139   0.00000  Uiso   1.00
N93    N     0.50000   0.28573   0.25000   0.00000  Uiso   1.00
N94    N     0.50000   0.04760   0.25000   0.00000  Uiso   1.00
O95    O     0.43892   0.20487   0.24999   0.00000  Uiso   1.00
O96    O     0.56108   0.12846   0.25000   0.00000  Uiso   1.00
O97    O     0.56108   0.20487   0.25000   0.00000  Uiso   1.00
O98    O     0.43892   0.12846   0.24999   0.00000  Uiso   1.00
O99    O     0.49999   0.20489   0.18392   0.00000  Uiso   1.00
O100   O     0.50001   0.12844   0.31607   0.00000  Uiso   1.00
O101   O     0.50001   0.20489   0.31607   0.00000  Uiso   1.00
O102   O     0.49999   0.12844   0.18392   0.00000  Uiso   1.00
Zn103  Zn    0.50000   0.21771   0.25000   0.00000  Uiso   1.00
Zn104  Zn    0.50000   0.11563   0.25000   0.00000  Uiso   1.00
F105   F     0.48472   0.24743   0.38647   0.00000  Uiso   1.00
F106   F     0.51528   0.08591   0.11353   0.00000  Uiso   1.00
F107   F     0.52050   0.04588   0.45319   0.00000  Uiso   1.00
F108   F     0.47950   0.28745   0.04681   0.00000  Uiso   1.00
F109   F     0.37589   0.10547   0.30235   0.00000  Uiso   1.00
F110   F     0.62411   0.22786   0.19765   0.00000  Uiso   1.00
F111   F     0.62477   0.10552   0.30249   0.00000  Uiso   1.00
F112   F     0.37523   0.22781   0.19751   0.00000  Uiso   1.00
F113   F     0.54977   0.04713   0.30780   0.00000  Uiso   1.00
F114   F     0.45023   0.28620   0.19220   0.00000  Uiso   1.00
F115   F     0.45012   0.04629   0.19233   0.00000  Uiso   1.00
F116   F     0.54988   0.28704   0.30767   0.00000  Uiso   1.00
C117   C     0.75335   0.16668   0.24995   0.00000  Uiso   1.00
C118   C     0.91331   0.16665   0.25005   0.00000  Uiso   1.00
C119   C     0.84746   0.08514   0.02176   0.00000  Uiso   1.00
C120   C     0.81921   0.24819   0.47824   0.00000  Uiso   1.00
C121   C     0.68826   0.13517   0.27612   0.00000  Uiso   1.00
C122   C     0.97841   0.19816   0.22388   0.00000  Uiso   1.00
C123   C     0.97873   0.13516   0.27616   0.00000  Uiso   1.00
C124   C     0.68793   0.19817   0.22384   0.00000  Uiso   1.00
C125   C     0.95741   0.16664   0.25002   0.00000  Uiso   1.00
C126   C     0.70925   0.16669   0.24998   0.00000  Uiso   1.00
C127   C     0.85821   0.02421   0.27885   0.00000  Uiso   1.00
C128   C     0.80846   0.30913   0.22115   0.00000  Uiso   1.00
C129   C     0.80844   0.02378   0.22116   0.00000  Uiso   1.00
C130   C     0.85823   0.30956   0.27884   0.00000  Uiso   1.00
C131   C     0.83354   0.16642   0.16326   0.00000  Uiso   1.00
C132   C     0.83313   0.16692   0.33674   0.00000  Uiso   1.00
C133   C     0.82574   0.20800   0.40820   0.00000  Uiso   1.00
C134   C     0.84092   0.12533   0.09180   0.00000  Uiso   1.00
C135   C     0.83291   0.16742   0.38471   0.00000  Uiso   1.00
C136   C     0.83376   0.16591   0.11529   0.00000  Uiso   1.00
C137   C     0.84001   0.12680   0.40708   0.00000  Uiso   1.00
C138   C     0.82666   0.20654   0.09292   0.00000  Uiso   1.00
C139   C     0.84017   0.12607   0.45306   0.00000  Uiso   1.00
C140   C     0.82650   0.20726   0.04694   0.00000  Uiso   1.00
C141   C     0.83322   0.16683   0.47683   0.00000  Uiso   1.00
C142   C     0.83345   0.16650   0.02317   0.00000  Uiso   1.00
C143   C     0.82602   0.20791   0.45431   0.00000  Uiso   1.00
C144   C     0.84065   0.12542   0.04569   0.00000  Uiso   1.00
C145   C     0.84721   0.08538   0.47564   0.00000  Uiso   1.00
C146   C     0.81945   0.24795   0.02436   0.00000  Uiso   1.00
H147   H     0.84565   0.09568   0.38863   0.00000  Uiso   1.00
H148   H     0.82102   0.23766   0.11137   0.00000  Uiso   1.00
H149   H     0.85294   0.05336   0.03861   0.00000  Uiso   1.00
H150   H     0.81372   0.27997   0.46139   0.00000  Uiso   1.00
N151   N     0.83333   0.28573   0.25000   0.00000  Uiso   1.00
N152   N     0.83333   0.04760   0.25000   0.00000  Uiso   1.00
O153   O     0.77226   0.20487   0.24999   0.00000  Uiso   1.00
O154   O     0.89441   0.12846   0.25000   0.00000  Uiso   1.00
O155   O     0.89441   0.20487   0.25000   0.00000  Uiso   1.00
O156   O     0.77226   0.12846   0.24999   0.00000  Uiso   1.00
O157   O     0.83333   0.20489   0.18392   0.00000  Uiso   1.00
O158   O     0.83334   0.12844   0.31607   0.00000  Uiso   1.00
O159   O     0.83334   0.20489   0.31607   0.00000  Uiso   1.00
O160   O     0.83333   0.12844   0.18392   0.00000  Uiso   1.00
Zn161  Zn    0.83333   0.21771   0.25000   0.00000  Uiso   1.00
Zn162  Zn    0.83333   0.11563   0.25000   0.00000  Uiso   1.00
F163   F     0.81805   0.24743   0.38647   0.00000  Uiso   1.00
F164   F     0.84862   0.08591   0.11353   0.00000  Uiso   1.00
F165   F     0.85383   0.04588   0.45319   0.00000  Uiso   1.00
F166   F     0.81283   0.28745   0.04681   0.00000  Uiso   1.00
F167   F     0.70922   0.10547   0.30235   0.00000  Uiso   1.00
F168   F     0.95744   0.22786   0.19765   0.00000  Uiso   1.00
F169   F     0.95811   0.10552   0.30249   0.00000  Uiso   1.00
F170   F     0.70856   0.22781   0.19751   0.00000  Uiso   1.00
F171   F     0.88310   0.04713   0.30780   0.00000  Uiso   1.00
F172   F     0.78357   0.28620   0.19220   0.00000  Uiso   1.00
F173   F     0.78345   0.04629   0.19233   0.00000  Uiso   1.00
F174   F     0.88321   0.28704   0.30767   0.00000  Uiso   1.00
C175   C     0.08669   0.50002   0.24995   0.00000  Uiso   1.00
C176   C     0.24665   0.49998   0.25005   0.00000  Uiso   1.00
C177   C     0.18079   0.41847   0.02176   0.00000  Uiso   1.00
C178   C     0.15254   0.58153   0.47824   0.00000  Uiso   1.00
C179   C     0.02159   0.46851   0.27612   0.00000  Uiso   1.00
C180   C     0.31174   0.53149   0.22388   0.00000  Uiso   1.00
C181   C     0.31207   0.46850   0.27616   0.00000  Uiso   1.00
C182   C     0.02127   0.53150   0.22384   0.00000  Uiso   1.00
C183   C     0.29075   0.49998   0.25002   0.00000  Uiso   1.00
C184   C     0.04259   0.50002   0.24998   0.00000  Uiso   1.00
C185   C     0.19154   0.35754   0.27885   0.00000  Uiso   1.00
C186   C     0.14179   0.64246   0.22115   0.00000  Uiso   1.00
C187   C     0.14177   0.35711   0.22116   0.00000  Uiso   1.00
C188   C     0.19156   0.64289   0.27884   0.00000  Uiso   1.00
C189   C     0.16687   0.49975   0.16326   0.00000  Uiso   1.00
C190   C     0.16646   0.50025   0.33674   0.00000  Uiso   1.00
C191   C     0.15908   0.54133   0.40820   0.00000  Uiso   1.00
C192   C     0.17426   0.45867   0.09180   0.00000  Uiso   1.00
C193   C     0.16624   0.50075   0.38471   0.00000  Uiso   1.00
C194   C     0.16709   0.49925   0.11529   0.00000  Uiso   1.00
C195   C     0.17334   0.46013   0.40708   0.00000  Uiso   1.00
C196   C     0.15999   0.53987   0.09292   0.00000  Uiso   1.00
C197   C     0.17350   0.45940   0.45306   0.00000  Uiso   1.00
C198   C     0.15983   0.54060   0.04694   0.00000  Uiso   1.00
C199   C     0.16655   0.50016   0.47683   0.00000  Uiso   1.00
C200   C     0.16678   0.49984   0.02317   0.00000  Uiso   1.00
C201   C     0.15936   0.54125   0.45431   0.00000  Uiso   1.00
C202   C     0.17398   0.45875   0.04569   0.00000  Uiso   1.00
C203   C     0.18055   0.41871   0.47564   0.00000  Uiso   1.00
C204   C     0.15279   0.58129   0.02436   0.00000  Uiso   1.00
H205   H     0.17899   0.42901   0.38863   0.00000  Uiso   1.00
H206   H     0.15435   0.57099   0.11137   0.00000  Uiso   1.00
H207   H     0.18628   0.38669   0.03861   0.00000  Uiso   1.00
H208   H     0.14706   0.61331   0.46139   0.00000  Uiso   1.00
N209   N     0.16667   0.61907   0.25000   0.00000  Uiso   1.00
N210   N     0.16667   0.38093   0.25000   0.00000  Uiso   1.00
O211   O     0.10559   0.53821   0.24999   0.00000  Uiso   1.00
O212   O     0.22774   0.46179   0.25000   0.00000  Uiso   1.00
O213   O     0.22774   0.53821   0.25000   0.00000  Uiso   1.00
O214   O     0.10559   0.46179   0.24999   0.00000  Uiso   1.00
O215   O     0.16666   0.53823   0.18392   0.00000  Uiso   1.00
O216   O     0.16667   0.46177   0.31607   0.00000  Uiso   1.00
O217   O     0.16667   0.53823   0.31607   0.00000  Uiso   1.00
O218   O     0.16666   0.46177   0.18392   0.00000  Uiso   1.00
Zn219  Zn    0.16667   0.55104   0.25000   0.00000  Uiso   1.00
Zn220  Zn    0.16667   0.44896   0.25000   0.00000  Uiso   1.00
F221   F     0.15138   0.58076   0.38647   0.00000  Uiso   1.00
F222   F     0.18195   0.41924   0.11353   0.00000  Uiso   1.00
F223   F     0.18717   0.37922   0.45319   0.00000  Uiso   1.00
F224   F     0.14617   0.62078   0.04681   0.00000  Uiso   1.00
F225   F     0.04256   0.43881   0.30235   0.00000  Uiso   1.00
F226   F     0.29078   0.56119   0.19765   0.00000  Uiso   1.00
F227   F     0.29144   0.43886   0.30249   0.00000  Uiso   1.00
F228   F     0.04189   0.56114   0.19751   0.00000  Uiso   1.00
F229   F     0.21643   0.38046   0.30780   0.00000  Uiso   1.00
F230   F     0.11690   0.61954   0.19220   0.00000  Uiso   1.00
F231   F     0.11679   0.37962   0.19233   0.00000  Uiso   1.00
F232   F     0.21655   0.62038   0.30767   0.00000  Uiso   1.00
C233   C     0.42002   0.50002   0.24995   0.00000  Uiso   1.00
C234   C     0.57998   0.49998   0.25005   0.00000  Uiso   1.00
C235   C     0.51412   0.41847   0.02176   0.00000  Uiso   1.00
C236   C     0.48588   0.58153   0.47824   0.00000  Uiso   1.00
C237   C     0.35493   0.46851   0.27612   0.00000  Uiso   1.00
C238   C     0.64507   0.53149   0.22388   0.00000  Uiso   1.00
C239   C     0.64540   0.46850   0.27616   0.00000  Uiso   1.00
C240   C     0.35460   0.53150   0.22384   0.00000  Uiso   1.00
C241   C     0.62408   0.49998   0.25002   0.00000  Uiso   1.00
C242   C     0.37592   0.50002   0.24998   0.00000  Uiso   1.00
C243   C     0.52488   0.35754   0.27885   0.00000  Uiso   1.00
C244   C     0.47512   0.64246   0.22115   0.00000  Uiso   1.00
C245   C     0.47511   0.35711   0.22116   0.00000  Uiso   1.00
C246   C     0.52489   0.64289   0.27884   0.00000  Uiso   1.00
C247   C     0.50021   0.49975   0.16326   0.00000  Uiso   1.00
C248   C     0.49979   0.50025   0.33674   0.00000  Uiso   1.00
C249   C     0.49241   0.54133   0.40820   0.00000  Uiso   1.00
C250   C     0.50759   0.45867   0.09180   0.00000  Uiso   1.00
C251   C     0.49958   0.50075   0.38471   0.00000  Uiso   1.00
C252   C     0.50042   0.49925   0.11529   0.00000  Uiso   1.00
C253   C     0.50667   0.46013   0.40708   0.00000  Uiso   1.00
C254   C     0.49333   0.53987   0.09292   0.00000  Uiso   1.00
C255   C     0.50683   0.45940   0.45306   0.00000  Uiso   1.00
C256   C     0.49317   0.54060   0.04694   0.00000  Uiso   1.00
C257   C     0.49989   0.50016   0.47683   0.00000  Uiso   1.00
C258   C     0.50011   0.49984   0.02317   0.00000  Uiso   1.00
C259   C     0.49269   0.54125   0.45431   0.00000  Uiso   1.00
C260   C     0.50731   0.45875   0.04569   0.00000  Uiso   1.00
C261   C     0.51388   0.41871   0.47564   0.00000  Uiso   1.00
C262   C     0.48612   0.58129   0.02436   0.00000  Uiso   1.00
H263   H     0.51232   0.42901   0.38863   0.00000  Uiso   1.00
H264   H     0.48768   0.57099   0.11137   0.00000  Uiso   1.00
H265   H     0.51961   0.38669   0.03861   0.00000  Uiso   1.00
H266   H     0.48039   0.61331   0.46139   0.00000  Uiso   1.00
N267   N     0.50000   0.61907   0.25000   0.00000  Uiso   1.00
N268   N     0.50000   0.38093   0.25000   0.00000  Uiso   1.00
O269   O     0.43892   0.53821   0.24999   0.00000  Uiso   1.00
O270   O     0.56108   0.46179   0.25000   0.00000  Uiso   1.00
O271   O     0.56108   0.53821   0.25000   0.00000  Uiso   1.00
O272   O     0.43892   0.46179   0.24999   0.00000  Uiso   1.00
O273   O     0.49999   0.53823   0.18392   0.00000  Uiso   1.00
O274   O     0.50001   0.46177   0.31607   0.00000  Uiso   1.00
O275   O     0.50001   0.53823   0.31607   0.00000  Uiso   1.00
O276   O     0.49999   0.46177   0.18392   0.00000  Uiso   1.00
Zn277  Zn    0.50000   0.55104   0.25000   0.00000  Uiso   1.00
Zn278  Zn    0.50000   0.44896   0.25000   0.00000  Uiso   1.00
F279   F     0.48472   0.58076   0.38647   0.00000  Uiso   1.00
F280   F     0.51528   0.41924   0.11353   0.00000  Uiso   1.00
F281   F     0.52050   0.37922   0.45319   0.00000  Uiso   1.00
F282   F     0.47950   0.62078   0.04681   0.00000  Uiso   1.00
F283   F     0.37589   0.43881   0.30235   0.00000  Uiso   1.00
F284   F     0.62411   0.56119   0.19765   0.00000  Uiso   1.00
F285   F     0.62477   0.43886   0.30249   0.00000  Uiso   1.00
F286   F     0.37523   0.56114   0.19751   0.00000  Uiso   1.00
F287   F     0.54977   0.38046   0.30780   0.00000  Uiso   1.00
F288   F     0.45023   0.61954   0.19220   0.00000  Uiso   1.00
F289   F     0.45012   0.37962   0.19233   0.00000  Uiso   1.00
F290   F     0.54988   0.62038   0.30767   0.00000  Uiso   1.00
C291   C     0.75335   0.50002   0.24995   0.00000  Uiso   1.00
C292   C     0.91331   0.49998   0.25005   0.00000  Uiso   1.00
C293   C     0.84746   0.41847   0.02176   0.00000  Uiso   1.00
C294   C     0.81921   0.58153   0.47824   0.00000  Uiso   1.00
C295   C     0.68826   0.46851   0.27612   0.00000  Uiso   1.00
C296   C     0.97841   0.53149   0.22388   0.00000  Uiso   1.00
C297   C     0.97873   0.46850   0.27616   0.00000  Uiso   1.00
C298   C     0.68793   0.53150   0.22384   0.00000  Uiso   1.00
C299   C     0.95741   0.49998   0.25002   0.00000  Uiso   1.00
C300   C     0.70925   0.50002   0.24998   0.00000  Uiso   1.00
C301   C     0.85821   0.35754   0.27885   0.00000  Uiso   1.00
C302   C     0.80846   0.64246   0.22115   0.00000  Uiso   1.00
C303   C     0.80844   0.35711   0.22116   0.00000  Uiso   1.00
C304   C     0.85823   0.64289   0.27884   0.00000  Uiso   1.00
C305   C     0.83354   0.49975   0.16326   0.00000  Uiso   1.00
C306   C     0.83313   0.50025   0.33674   0.00000  Uiso   1.00
C307   C     0.82574   0.54133   0.40820   0.00000  Uiso   1.00
C308   C     0.84092   0.45867   0.09180   0.00000  Uiso   1.00
C309   C     0.83291   0.50075   0.38471   0.00000  Uiso   1.00
C310   C     0.83376   0.49925   0.11529   0.00000  Uiso   1.00
C311   C     0.84001   0.46013   0.40708   0.00000  Uiso   1.00
C312   C     0.82666   0.53987   0.09292   0.00000  Uiso   1.00
C313   C     0.84017   0.45940   0.45306   0.00000  Uiso   1.00
C314   C     0.82650   0.54060   0.04694   0.00000  Uiso   1.00
C315   C     0.83322   0.50016   0.47683   0.00000  Uiso   1.00
C316   C     0.83345   0.49984   0.02317   0.00000  Uiso   1.00
C317   C     0.82602   0.54125   0.45431   0.00000  Uiso   1.00
C318   C     0.84065   0.45875   0.04569   0.00000  Uiso   1.00
C319   C     0.84721   0.41871   0.47564   0.00000  Uiso   1.00
C320   C     0.81945   0.58129   0.02436   0.00000  Uiso   1.00
H321   H     0.84565   0.42901   0.38863   0.00000  Uiso   1.00
H322   H     0.82102   0.57099   0.11137   0.00000  Uiso   1.00
H323   H     0.85294   0.38669   0.03861   0.00000  Uiso   1.00
H324   H     0.81372   0.61331   0.46139   0.00000  Uiso   1.00
N325   N     0.83333   0.61907   0.25000   0.00000  Uiso   1.00
N326   N     0.83333   0.38093   0.25000   0.00000  Uiso   1.00
O327   O     0.77226   0.53821   0.24999   0.00000  Uiso   1.00
O328   O     0.89441   0.46179   0.25000   0.00000  Uiso   1.00
O329   O     0.89441   0.53821   0.25000   0.00000  Uiso   1.00
O330   O     0.77226   0.46179   0.24999   0.00000  Uiso   1.00
O331   O     0.83333   0.53823   0.18392   0.00000  Uiso   1.00
O332   O     0.83334   0.46177   0.31607   0.00000  Uiso   1.00
O333   O     0.83334   0.53823   0.31607   0.00000  Uiso   1.00
O334   O     0.83333   0.46177   0.18392   0.00000  Uiso   1.00
Zn335  Zn    0.83333   0.55104   0.25000   0.00000  Uiso   1.00
Zn336  Zn    0.83333   0.44896   0.25000   0.00000  Uiso   1.00
F337   F     0.81805   0.58076   0.38647   0.00000  Uiso   1.00
F338   F     0.84862   0.41924   0.11353   0.00000  Uiso   1.00
F339   F     0.85383   0.37922   0.45319   0.00000  Uiso   1.00
F340   F     0.81283   0.62078   0.04681   0.00000  Uiso   1.00
F341   F     0.70922   0.43881   0.30235   0.00000  Uiso   1.00
F342   F     0.95744   0.56119   0.19765   0.00000  Uiso   1.00
F343   F     0.95811   0.43886   0.30249   0.00000  Uiso   1.00
F344   F     0.70856   0.56114   0.19751   0.00000  Uiso   1.00
F345   F     0.88310   0.38046   0.30780   0.00000  Uiso   1.00
F346   F     0.78357   0.61954   0.19220   0.00000  Uiso   1.00
F347   F     0.78345   0.37962   0.19233   0.00000  Uiso   1.00
F348   F     0.88321   0.62038   0.30767   0.00000  Uiso   1.00
C349   C     0.08669   0.83335   0.24995   0.00000  Uiso   1.00
C350   C     0.24665   0.83332   0.25005   0.00000  Uiso   1.00
C351   C     0.18079   0.75181   0.02176   0.00000  Uiso   1.00
C352   C     0.15254   0.91486   0.47824   0.00000  Uiso   1.00
C353   C     0.02159   0.80184   0.27612   0.00000  Uiso   1.00
C354   C     0.31174   0.86483   0.22388   0.00000  Uiso   1.00
C355   C     0.31207   0.80183   0.27616   0.00000  Uiso   1.00
C356   C     0.02127   0.86484   0.22384   0.00000  Uiso   1.00
C357   C     0.29075   0.83331   0.25002   0.00000  Uiso   1.00
C358   C     0.04259   0.83336   0.24998   0.00000  Uiso   1.00
C359   C     0.19154   0.69087   0.27885   0.00000  Uiso   1.00
C360   C     0.14179   0.97579   0.22115   0.00000  Uiso   1.00
C361   C     0.14177   0.69044   0.22116   0.00000  Uiso   1.00
C362   C     0.19156   0.97622   0.27884   0.00000  Uiso   1.00
C363   C     0.16687   0.83308   0.16326   0.00000  Uiso   1.00
C364   C     0.16646   0.83358   0.33674   0.00000  Uiso   1.00
C365   C     0.15908   0.87467   0.40820   0.00000  Uiso   1.00
C366   C     0.17426   0.79200   0.09180   0.00000  Uiso   1.00
C367   C     0.16624   0.83409   0.38471   0.00000  Uiso   1.00
C368   C     0.16709   0.83258   0.11529   0.00000  Uiso   1.00
C369   C     0.17334   0.79346   0.40708   0.00000  Uiso   1.00
C370   C     0.15999   0.87320   0.09292   0.00000  Uiso   1.00
C371   C     0.17350   0.79274   0.45306   0.00000  Uiso   1.00
C372   C     0.15983   0.87393   0.04694   0.00000  Uiso   1.00
C373   C     0.16655   0.83349   0.47683   0.00000  Uiso   1.00
C374   C     0.16678   0.83317   0.02317   0.00000  Uiso   1.00
C375   C     0.15936   0.87458   0.45431   0.00000  Uiso   1.00
C376   C     0.17398   0.79209   0.04569   0.00000  Uiso   1.00
C377   C     0.18055   0.75205   0.47564   0.00000  Uiso   1.00
C378   C     0.15279   0.91462   0.02436   0.00000  Uiso   1.00
H379   H     0.17899   0.76234   0.38863   0.00000  Uiso   1.00
H380   H     0.15435   0.90432   0.11137   0.00000  Uiso   1.00
H381   H     0.18628   0.72003   0.03861   0.00000  Uiso   1.00
H382   H     0.14706   0.94664   0.46139   0.00000  Uiso   1.00
N383   N     0.16667   0.95240   0.25000   0.00000  Uiso   1.00
N384   N     0.16667   0.71427   0.25000   0.00000  Uiso   1.00
O385   O     0.10559   0.87154   0.24999   0.00000  Uiso   1.00
O386   O     0.22774   0.79513   0.25000   0.00000  Uiso   1.00
O387   O     0.22774   0.87154   0.25000   0.00000  Uiso   1.00
O388   O     0.10559   0.79513   0.24999   0.00000  Uiso   1.00
O389   O     0.16666   0.87156   0.18392   0.00000  Uiso   1.00
O390   O     0.16667   0.79511   0.31607   0.00000  Uiso   1.00
O391   O     0.16667   0.87156   0.31607   0.00000  Uiso   1.00
O392   O     0.16666   0.79511   0.18392   0.00000  Uiso   1.00
Zn393  Zn    0.16667   0.88437   0.25000   0.00000  Uiso   1.00
Zn394  Zn    0.16667   0.78229   0.25000   0.00000  Uiso   1.00
F395   F     0.15138   0.91409   0.38647   0.00000  Uiso   1.00
F396   F     0.18195   0.75257   0.11353   0.00000  Uiso   1.00
F397   F     0.18717   0.71255   0.45319   0.00000  Uiso   1.00
F398   F     0.14617   0.95412   0.04681   0.00000  Uiso   1.00
F399   F     0.04256   0.77214   0.30235   0.00000  Uiso   1.00
F400   F     0.29078   0.89453   0.19765   0.00000  Uiso   1.00
F401   F     0.29144   0.77219   0.30249   0.00000  Uiso   1.00
F402   F     0.04189   0.89448   0.19751   0.00000  Uiso   1.00
F403   F     0.21643   0.71380   0.30780   0.00000  Uiso   1.00
F404   F     0.11690   0.95287   0.19220   0.00000  Uiso   1.00
F405   F     0.11679   0.71296   0.19233   0.00000  Uiso   1.00
F406   F     0.21655   0.95371   0.30767   0.00000  Uiso   1.00
C407   C     0.42002   0.83335   0.24995   0.00000  Uiso   1.00
C408   C     0.57998   0.83332   0.25005   0.00000  Uiso   1.00
C409   C     0.51412   0.75181   0.02176   0.00000  Uiso   1.00
C410   C     0.48588   0.91486   0.47824   0.00000  Uiso   1.00
C411   C     0.35493   0.80184   0.27612   0.00000  Uiso   1.00
C412   C     0.64507   0.86483   0.22388   0.00000  Uiso   1.00
C413   C     0.64540   0.80183   0.27616   0.00000  Uiso   1.00
C414   C     0.35460   0.86484   0.22384   0.00000  Uiso   1.00
C415   C     0.62408   0.83331   0.25002   0.00000  Uiso   1.00
C416   C     0.37592   0.83336   0.24998   0.00000  Uiso   1.00
C417   C     0.52488   0.69087   0.27885   0.00000  Uiso   1.00
C418   C     0.47512   0.97579   0.22115   0.00000  Uiso   1.00
C419   C     0.47511   0.69044   0.22116   0.00000  Uiso   1.00
C420   C     0.52489   0.97622   0.27884   0.00000  Uiso   1.00
C421   C     0.50021   0.83308   0.16326   0.00000  Uiso   1.00
C422   C     0.49979   0.83358   0.33674   0.00000  Uiso   1.00
C423   C     0.49241   0.87467   0.40820   0.00000  Uiso   1.00
C424   C     0.50759   0.79200   0.09180   0.00000  Uiso   1.00
C425   C     0.49958   0.83409   0.38471   0.00000  Uiso   1.00
C426   C     0.50042   0.83258   0.11529   0.00000  Uiso   1.00
C427   C     0.50667   0.79346   0.40708   0.00000  Uiso   1.00
C428   C     0.49333   0.87320   0.09292   0.00000  Uiso   1.00
C429   C     0.50683   0.79274   0.45306   0.00000  Uiso   1.00
C430   C     0.49317   0.87393   0.04694   0.00000  Uiso   1.00
C431   C     0.49989   0.83349   0.47683   0.00000  Uiso   1.00
C432   C     0.50011   0.83317   0.02317   0.00000  Uiso   1.00
C433   C     0.49269   0.87458   0.45431   0.00000  Uiso   1.00
C434   C     0.50731   0.79209   0.04569   0.00000  Uiso   1.00
C435   C     0.51388   0.75205   0.47564   0.00000  Uiso   1.00
C436   C     0.48612   0.91462   0.02436   0.00000  Uiso   1.00
H437   H     0.51232   0.76234   0.38863   0.00000  Uiso   1.00
H438   H     0.48768   0.90432   0.11137   0.00000  Uiso   1.00
H439   H     0.51961   0.72003   0.03861   0.00000  Uiso   1.00
H440   H     0.48039   0.94664   0.46139   0.00000  Uiso   1.00
N441   N     0.50000   0.95240   0.25000   0.00000  Uiso   1.00
N442   N     0.50000   0.71427   0.25000   0.00000  Uiso   1.00
O443   O     0.43892   0.87154   0.24999   0.00000  Uiso   1.00
O444   O     0.56108   0.79513   0.25000   0.00000  Uiso   1.00
O445   O     0.56108   0.87154   0.25000   0.00000  Uiso   1.00
O446   O     0.43892   0.79513   0.24999   0.00000  Uiso   1.00
O447   O     0.49999   0.87156   0.18392   0.00000  Uiso   1.00
O448   O     0.50001   0.79511   0.31607   0.00000  Uiso   1.00
O449   O     0.50001   0.87156   0.31607   0.00000  Uiso   1.00
O450   O     0.49999   0.79511   0.18392   0.00000  Uiso   1.00
Zn451  Zn    0.50000   0.88437   0.25000   0.00000  Uiso   1.00
Zn452  Zn    0.50000   0.78229   0.25000   0.00000  Uiso   1.00
F453   F     0.48472   0.91409   0.38647   0.00000  Uiso   1.00
F454   F     0.51528   0.75257   0.11353   0.00000  Uiso   1.00
F455   F     0.52050   0.71255   0.45319   0.00000  Uiso   1.00
F456   F     0.47950   0.95412   0.04681   0.00000  Uiso   1.00
F457   F     0.37589   0.77214   0.30235   0.00000  Uiso   1.00
F458   F     0.62411   0.89453   0.19765   0.00000  Uiso   1.00
F459   F     0.62477   0.77219   0.30249   0.00000  Uiso   1.00
F460   F     0.37523   0.89448   0.19751   0.00000  Uiso   1.00
F461   F     0.54977   0.71380   0.30780   0.00000  Uiso   1.00
F462   F     0.45023   0.95287   0.19220   0.00000  Uiso   1.00
F463   F     0.45012   0.71296   0.19233   0.00000  Uiso   1.00
F464   F     0.54988   0.95371   0.30767   0.00000  Uiso   1.00
C465   C     0.75335   0.83335   0.24995   0.00000  Uiso   1.00
C466   C     0.91331   0.83332   0.25005   0.00000  Uiso   1.00
C467   C     0.84746   0.75181   0.02176   0.00000  Uiso   1.00
C468   C     0.81921   0.91486   0.47824   0.00000  Uiso   1.00
C469   C     0.68826   0.80184   0.27612   0.00000  Uiso   1.00
C470   C     0.97841   0.86483   0.22388   0.00000  Uiso   1.00
C471   C     0.97873   0.80183   0.27616   0.00000  Uiso   1.00
C472   C     0.68793   0.86484   0.22384   0.00000  Uiso   1.00
C473   C     0.95741   0.83331   0.25002   0.00000  Uiso   1.00
C474   C     0.70925   0.83336   0.24998   0.00000  Uiso   1.00
C475   C     0.85821   0.69087   0.27885   0.00000  Uiso   1.00
C476   C     0.80846   0.97579   0.22115   0.00000  Uiso   1.00
C477   C     0.80844   0.69044   0.22116   0.00000  Uiso   1.00
C478   C     0.85823   0.97622   0.27884   0.00000  Uiso   1.00
C479   C     0.83354   0.83308   0.16326   0.00000  Uiso   1.00
C480   C     0.83313   0.83358   0.33674   0.00000  Uiso   1.00
C481   C     0.82574   0.87467   0.40820   0.00000  Uiso   1.00
C482   C     0.84092   0.79200   0.09180   0.00000  Uiso   1.00
C483   C     0.83291   0.83409   0.38471   0.00000  Uiso   1.00
C484   C     0.83376   0.83258   0.11529   0.00000  Uiso   1.00
C485   C     0.84001   0.79346   0.40708   0.00000  Uiso   1.00
C486   C     0.82666   0.87320   0.09292   0.00000  Uiso   1.00
C487   C     0.84017   0.79274   0.45306   0.00000  Uiso   1.00
C488   C     0.82650   0.87393   0.04694   0.00000  Uiso   1.00
C489   C     0.83322   0.83349   0.47683   0.00000  Uiso   1.00
C490   C     0.83345   0.83317   0.02317   0.00000  Uiso   1.00
C491   C     0.82602   0.87458   0.45431   0.00000  Uiso   1.00
C492   C     0.84065   0.79209   0.04569   0.00000  Uiso   1.00
C493   C     0.84721   0.75205   0.47564   0.00000  Uiso   1.00
C494   C     0.81945   0.91462   0.02436   0.00000  Uiso   1.00
H495   H     0.84565   0.76234   0.38863   0.00000  Uiso   1.00
H496   H     0.82102   0.90432   0.11137   0.00000  Uiso   1.00
H497   H     0.85294   0.72003   0.03861   0.00000  Uiso   1.00
H498   H     0.81372   0.94664   0.46139   0.00000  Uiso   1.00
N499   N     0.83333   0.95240   0.25000   0.00000  Uiso   1.00
N500   N     0.83333   0.71427   0.25000   0.00000  Uiso   1.00
O501   O     0.77226   0.87154   0.24999   0.00000  Uiso   1.00
O502   O     0.89441   0.79513   0.25000   0.00000  Uiso   1.00
O503   O     0.89441   0.87154   0.25000   0.00000  Uiso   1.00
O504   O     0.77226   0.79513   0.24999   0.00000  Uiso   1.00
O505   O     0.83333   0.87156   0.18392   0.00000  Uiso   1.00
O506   O     0.83334   0.79511   0.31607   0.00000  Uiso   1.00
O507   O     0.83334   0.87156   0.31607   0.00000  Uiso   1.00
O508   O     0.83333   0.79511   0.18392   0.00000  Uiso   1.00
Zn509  Zn    0.83333   0.88437   0.25000   0.00000  Uiso   1.00
Zn510  Zn    0.83333   0.78229   0.25000   0.00000  Uiso   1.00
F511   F     0.81805   0.91409   0.38647   0.00000  Uiso   1.00
F512   F     0.84862   0.75257   0.11353   0.00000  Uiso   1.00
F513   F     0.85383   0.71255   0.45319   0.00000  Uiso   1.00
F514   F     0.81283   0.95412   0.04681   0.00000  Uiso   1.00
F515   F     0.70922   0.77214   0.30235   0.00000  Uiso   1.00
F516   F     0.95744   0.89453   0.19765   0.00000  Uiso   1.00
F517   F     0.95811   0.77219   0.30249   0.00000  Uiso   1.00
F518   F     0.70856   0.89448   0.19751   0.00000  Uiso   1.00
F519   F     0.88310   0.71380   0.30780   0.00000  Uiso   1.00
F520   F     0.78357   0.95287   0.19220   0.00000  Uiso   1.00
F521   F     0.78345   0.71296   0.19233   0.00000  Uiso   1.00
F522   F     0.88321   0.95371   0.30767   0.00000  Uiso   1.00
C523   C     0.08669   0.16668   0.74995   0.00000  Uiso   1.00
C524   C     0.24665   0.16665   0.75005   0.00000  Uiso   1.00
C525   C     0.18079   0.08514   0.52176   0.00000  Uiso   1.00
C526   C     0.15254   0.24819   0.97824   0.00000  Uiso   1.00
C527   C     0.02159   0.13517   0.77612   0.00000  Uiso   1.00
C528   C     0.31174   0.19816   0.72388   0.00000  Uiso   1.00
C529   C     0.31207   0.13516   0.77616   0.00000  Uiso   1.00
C530   C     0.02127   0.19817   0.72384   0.00000  Uiso   1.00
C531   C     0.29075   0.16664   0.75002   0.00000  Uiso   1.00
C532   C     0.04259   0.16669   0.74998   0.00000  Uiso   1.00
C533   C     0.19154   0.02421   0.77885   0.00000  Uiso   1.00
C534   C     0.14179   0.30913   0.72115   0.00000  Uiso   1.00
C535   C     0.14177   0.02378   0.72116   0.00000  Uiso   1.00
C536   C     0.19156   0.30956   0.77884   0.00000  Uiso   1.00
C537   C     0.16687   0.16642   0.66326   0.00000  Uiso   1.00
C538   C     0.16646   0.16692   0.83674   0.00000  Uiso   1.00
C539   C     0.15908   0.20800   0.90820   0.00000  Uiso   1.00
C540   C     0.17426   0.12533   0.59180   0.00000  Uiso   1.00
C541   C     0.16624   0.16742   0.88471   0.00000  Uiso   1.00
C542   C     0.16709   0.16591   0.61529   0.00000  Uiso   1.00
C543   C     0.17334   0.12680   0.90708   0.00000  Uiso   1.00
C544   C     0.15999   0.20654   0.59292   0.00000  Uiso   1.00
C545   C     0.17350   0.12607   0.95306   0.00000  Uiso   1.00
C546   C     0.15983   0.20726   0.54694   0.00000  Uiso   1.00
C547   C     0.16655   0.16683   0.97683   0.00000  Uiso   1.00
C548   C     0.16678   0.16650   0.52317   0.00000  Uiso   1.00
C549   C     0.15936   0.20791   0.95431   0.00000  Uiso   1.00
C550   C     0.17398   0.12542   0.54569   0.00000  Uiso   1.00
C551   C     0.18055   0.08538   0.97564   0.00000  Uiso   1.00
C552   C     0.15279   0.24795   0.52436   0.00000  Uiso   1.00
H553   H     0.17899   0.09568   0.88863   0.00000  Uiso   1.00
H554   H     0.15435   0.23766   0.61137   0.00000  Uiso   1.00
H555   H     0.18628   0.05336   0.53861   0.00000  Uiso   1.00
H556   H     0.14706   0.27997   0.96139   0.00000  Uiso   1.00
N557   N     0.16667   0.28573   0.75000   0.00000  Uiso   1.00
N558   N     0.16667   0.04760   0.75000   0.00000  Uiso   1.00
O559   O     0.10559   0.20487   0.74999   0.00000  Uiso   1.00
O560   O     0.22774   0.12846   0.75000   0.00000  Uiso   1.00
O561   O     0.22774   0.20487   0.75000   0.00000  Uiso   1.00
O562   O     0.10559   0.12846   0.74999   0.00000  Uiso   1.00
O563   O     0.16666   0.20489   0.68392   0.00000  Uiso   1.00
O564   O     0.16667   0.12844   0.81607   0.00000  Uiso   1.00
O565   O     0.16667   0.20489   0.81607   0.00000  Uiso   1.00
O566   O     0.16666   0.12844   0.68392   0.00000  Uiso   1.00
Zn567  Zn    0.16667   0.21771   0.75000   0.00000  Uiso   1.00
Zn568  Zn    0.16667   0.11563   0.75000   0.00000  Uiso   1.00
F569   F     0.15138   0.24743   0.88647   0.00000  Uiso   1.00
F570   F     0.18195   0.08591   0.61353   0.00000  Uiso   1.00
F571   F     0.18717   0.04588   0.95319   0.00000  Uiso   1.00
F572   F     0.14617   0.28745   0.54681   0.00000  Uiso   1.00
F573   F     0.04256   0.10547   0.80235   0.00000  Uiso   1.00
F574   F     0.29078   0.22786   0.69765   0.00000  Uiso   1.00
F575   F     0.29144   0.10552   0.80249   0.00000  Uiso   1.00
F576   F     0.04189   0.22781   0.69751   0.00000  Uiso   1.00
F577   F     0.21643   0.04713   0.80780   0.00000  Uiso   1.00
F578   F     0.11690   0.28620   0.69220   0.00000  Uiso   1.00
F579   F     0.11679   0.04629   0.69233   0.00000  Uiso   1.00
F580   F     0.21655   0.28704   0.80767   0.00000  Uiso   1.00
C581   C     0.42002   0.16668   0.74995   0.00000  Uiso   1.00
C582   C     0.57998   0.16665   0.75005   0.00000  Uiso   1.00
C583   C     0.51412   0.08514   0.52176   0.00000  Uiso   1.00
C584   C     0.48588   0.24819   0.97824   0.00000  Uiso   1.00
C585   C     0.35493   0.13517   0.77612   0.00000  Uiso   1.00
C586   C     0.64507   0.19816   0.72388   0.00000  Uiso   1.00
C587   C     0.64540   0.13516   0.77616   0.00000  Uiso   1.00
C588   C     0.35460   0.19817   0.72384   0.00000  Uiso   1.00
C589   C     0.62408   0.16664   0.75002   0.00000  Uiso   1.00
C590   C     0.37592   0.16669   0.74998   0.00000  Uiso   1.00
C591   C     0.52488   0.02421   0.77885   0.00000  Uiso   1.00
C592   C     0.47512   0.30913   0.72115   0.00000  Uiso   1.00
C593   C     0.47511   0.02378   0.72116   0.00000  Uiso   1.00
C594   C     0.52489   0.30956   0.77884   0.00000  Uiso   1.00
C595   C     0.50021   0.16642   0.66326   0.00000  Uiso   1.00
C596   C     0.49979   0.16692   0.83674   0.00000  Uiso   1.00
C597   C     0.49241   0.20800   0.90820   0.00000  Uiso   1.00
C598   C     0.50759   0.12533   0.59180   0.00000  Uiso   1.00
C599   C     0.49958   0.16742   0.88471   0.00000  Uiso   1.00
C600   C     0.50042   0.16591   0.61529   0.00000  Uiso   1.00
C601   C     0.50667   0.12680   0.90708   0.00000  Uiso   1.00
C602   C     0.49333   0.20654   0.59292   0.00000  Uiso   1.00
C603   C     0.50683   0.12607   0.95306   0.00000  Uiso   1.00
C604   C     0.49317   0.20726   0.54694   0.00000  Uiso   1.00
C605   C     0.49989   0.16683   0.97683   0.00000  Uiso   1.00
C606   C     0.50011   0.16650   0.52317   0.00000  Uiso   1.00
C607   C     0.49269   0.20791   0.95431   0.00000  Uiso   1.00
C608   C     0.50731   0.12542   0.54569   0.00000  Uiso   1.00
C609   C     0.51388   0.08538   0.97564   0.00000  Uiso   1.00
C610   C     0.48612   0.24795   0.52436   0.00000  Uiso   1.00
H611   H     0.51232   0.09568   0.88863   0.00000  Uiso   1.00
H612   H     0.48768   0.23766   0.61137   0.00000  Uiso   1.00
H613   H     0.51961   0.05336   0.53861   0.00000  Uiso   1.00
H614   H     0.48039   0.27997   0.96139   0.00000  Uiso   1.00
N615   N     0.50000   0.28573   0.75000   0.00000  Uiso   1.00
N616   N     0.50000   0.04760   0.75000   0.00000  Uiso   1.00
O617   O     0.43892   0.20487   0.74999   0.00000  Uiso   1.00
O618   O     0.56108   0.12846   0.75000   0.00000  Uiso   1.00
O619   O     0.56108   0.20487   0.75000   0.00000  Uiso   1.00
O620   O     0.43892   0.12846   0.74999   0.00000  Uiso   1.00
O621   O     0.49999   0.20489   0.68392   0.00000  Uiso   1.00
O622   O     0.50001   0.12844   0.81607   0.00000  Uiso   1.00
O623   O     0.50001   0.20489   0.81607   0.00000  Uiso   1.00
O624   O     0.49999   0.12844   0.68392   0.00000  Uiso   1.00
Zn625  Zn    0.50000   0.21771   0.75000   0.00000  Uiso   1.00
Zn626  Zn    0.50000   0.11563   0.75000   0.00000  Uiso   1.00
F627   F     0.48472   0.24743   0.88647   0.00000  Uiso   1.00
F628   F     0.51528   0.08591   0.61353   0.00000  Uiso   1.00
F629   F     0.52050   0.04588   0.95319   0.00000  Uiso   1.00
F630   F     0.47950   0.28745   0.54681   0.00000  Uiso   1.00
F631   F     0.37589   0.10547   0.80235   0.00000  Uiso   1.00
F632   F     0.62411   0.22786   0.69765   0.00000  Uiso   1.00
F633   F     0.62477   0.10552   0.80249   0.00000  Uiso   1.00
F634   F     0.37523   0.22781   0.69751   0.00000  Uiso   1.00
F635   F     0.54977   0.04713   0.80780   0.00000  Uiso   1.00
F636   F     0.45023   0.28620   0.69220   0.00000  Uiso   1.00
F637   F     0.45012   0.04629   0.69233   0.00000  Uiso   1.00
F638   F     0.54988   0.28704   0.80767   0.00000  Uiso   1.00
C639   C     0.75335   0.16668   0.74995   0.00000  Uiso   1.00
C640   C     0.91331   0.16665   0.75005   0.00000  Uiso   1.00
C641   C     0.84746   0.08514   0.52176   0.00000  Uiso   1.00
C642   C     0.81921   0.24819   0.97824   0.00000  Uiso   1.00
C643   C     0.68826   0.13517   0.77612   0.00000  Uiso   1.00
C644   C     0.97841   0.19816   0.72388   0.00000  Uiso   1.00
C645   C     0.97873   0.13516   0.77616   0.00000  Uiso   1.00
C646   C     0.68793   0.19817   0.72384   0.00000  Uiso   1.00
C647   C     0.95741   0.16664   0.75002   0.00000  Uiso   1.00
C648   C     0.70925   0.16669   0.74998   0.00000  Uiso   1.00
C649   C     0.85821   0.02421   0.77885   0.00000  Uiso   1.00
C650   C     0.80846   0.30913   0.72115   0.00000  Uiso   1.00
C651   C     0.80844   0.02378   0.72116   0.00000  Uiso   1.00
C652   C     0.85823   0.30956   0.77884   0.00000  Uiso   1.00
C653   C     0.83354   0.16642   0.66326   0.00000  Uiso   1.00
C654   C     0.83313   0.16692   0.83674   0.00000  Uiso   1.00
C655   C     0.82574   0.20800   0.90820   0.00000  Uiso   1.00
C656   C     0.84092   0.12533   0.59180   0.00000  Uiso   1.00
C657   C     0.83291   0.16742   0.88471   0.00000  Uiso   1.00
C658   C     0.83376   0.16591   0.61529   0.00000  Uiso   1.00
C659   C     0.84001   0.12680   0.90708   0.00000  Uiso   1.00
C660   C     0.82666   0.20654   0.59292   0.00000  Uiso   1.00
C661   C     0.84017   0.12607   0.95306   0.00000  Uiso   1.00
C662   C     0.82650   0.20726   0.54694   0.00000  Uiso   1.00
C663   C     0.83322   0.16683   0.97683   0.00000  Uiso   1.00
C664   C     0.83345   0.16650   0.52317   0.00000  Uiso   1.00
C665   C     0.82602   0.20791   0.95431   0.00000  Uiso   1.00
C666   C     0.84065   0.12542   0.54569   0.00000  Uiso   1.00
C667   C     0.84721   0.08538   0.97564   0.00000  Uiso   1.00
C668   C     0.81945   0.24795   0.52436   0.00000  Uiso   1.00
H669   H     0.84565   0.09568   0.88863   0.00000  Uiso   1.00
H670   H     0.82102   0.23766   0.61137   0.00000  Uiso   1.00
H671   H     0.85294   0.05336   0.53861   0.00000  Uiso   1.00
H672   H     0.81372   0.27997   0.96139   0.00000  Uiso   1.00
N673   N     0.83333   0.28573   0.75000   0.00000  Uiso   1.00
N674   N     0.83333   0.04760   0.75000   0.00000  Uiso   1.00
O675   O     0.77226   0.20487   0.74999   0.00000  Uiso   1.00
O676   O     0.89441   0.12846   0.75000   0.00000  Uiso   1.00
O677   O     0.89441   0.20487   0.75000   0.00000  Uiso   1.00
O678   O     0.77226   0.12846   0.74999   0.00000  Uiso   1.00
O679   O     0.83333   0.20489   0.68392   0.00000  Uiso   1.00
O680   O     0.83334   0.12844   0.81607   0.00000  Uiso   1.00
O681   O     0.83334   0.20489   0.81607   0.00000  Uiso   1.00
O682   O     0.83333   0.12844   0.68392   0.00000  Uiso   1.00
Zn683  Zn    0.83333   0.21771   0.75000   0.00000  Uiso   1.00
Zn684  Zn    0.83333   0.11563   0.75000   0.00000  Uiso   1.00
F685   F     0.81805   0.24743   0.88647   0.00000  Uiso   1.00
F686   F     0.84862   0.08591   0.61353   0.00000  Uiso   1.00
F687   F     0.85383   0.04588   0.95319   0.00000  Uiso   1.00
F688   F     0.81283   0.28745   0.54681   0.00000  Uiso   1.00
F689   F     0.70922   0.10547   0.80235   0.00000  Uiso   1.00
F690   F     0.95744   0.22786   0.69765   0.00000  Uiso   1.00
F691   F     0.95811   0.10552   0.80249   0.00000  Uiso   1.00
F692   F     0.70856   0.22781   0.69751   0.00000  Uiso   1.00
F693   F     0.88310   0.04713   0.80780   0.00000  Uiso   1.00
F694   F     0.78357   0.28620   0.69220   0.00000  Uiso   1.00
F695   F     0.78345   0.04629   0.69233   0.00000  Uiso   1.00
F696   F     0.88321   0.28704   0.80767   0.00000  Uiso   1.00
C697   C     0.08669   0.50002   0.74995   0.00000  Uiso   1.00
C698   C     0.24665   0.49998   0.75005   0.00000  Uiso   1.00
C699   C     0.18079   0.41847   0.52176   0.00000  Uiso   1.00
C700   C     0.15254   0.58153   0.97824   0.00000  Uiso   1.00
C701   C     0.02159   0.46851   0.77612   0.00000  Uiso   1.00
C702   C     0.31174   0.53149   0.72388   0.00000  Uiso   1.00
C703   C     0.31207   0.46850   0.77616   0.00000  Uiso   1.00
C704   C     0.02127   0.53150   0.72384   0.00000  Uiso   1.00
C705   C     0.29075   0.49998   0.75002   0.00000  Uiso   1.00
C706   C     0.04259   0.50002   0.74998   0.00000  Uiso   1.00
C707   C     0.19154   0.35754   0.77885   0.00000  Uiso   1.00
C708   C     0.14179   0.64246   0.72115   0.00000  Uiso   1.00
C709   C     0.14177   0.35711   0.72116   0.00000  Uiso   1.00
C710   C     0.19156   0.64289   0.77884   0.00000  Uiso   1.00
C711   C     0.16687   0.49975   0.66326   0.00000  Uiso   1.00
C712   C     0.16646   0.50025   0.83674   0.00000  Uiso   1.00
C713   C     0.15908   0.54133   0.90820   0.00000  Uiso   1.00
C714   C     0.17426   0.45867   0.59180   0.00000  Uiso   1.00
C715   C     0.16624   0.50075   0.88471   0.00000  Uiso   1.00
C716   C     0.16709   0.49925   0.61529   0.00000  Uiso   1.00
C717   C     0.17334   0.46013   0.90708   0.00000  Uiso   1.00
C718   C     0.15999   0.53987   0.59292   0.00000  Uiso   1.00
C719   C     0.17350   0.45940   0.95306   0.00000  Uiso   1.00
C720   C     0.15983   0.54060   0.54694   0.00000  Uiso   1.00
C721   C     0.16655   0.50016   0.97683   0.00000  Uiso   1.00
C722   C     0.16678   0.49984   0.52317   0.00000  Uiso   1.00
C723   C     0.15936   0.54125   0.95431   0.00000  Uiso   1.00
C724   C     0.17398   0.45875   0.54569   0.00000  Uiso   1.00
C725   C     0.18055   0.41871   0.97564   0.00000  Uiso   1.00
C726   C     0.15279   0.58129   0.52436   0.00000  Uiso   1.00
H727   H     0.17899   0.42901   0.88863   0.00000  Uiso   1.00
H728   H     0.15435   0.57099   0.61137   0.00000  Uiso   1.00
H729   H     0.18628   0.38669   0.53861   0.00000  Uiso   1.00
H730   H     0.14706   0.61331   0.96139   0.00000  Uiso   1.00
N731   N     0.16667   0.61907   0.75000   0.00000  Uiso   1.00
N732   N     0.16667   0.38093   0.75000   0.00000  Uiso   1.00
O733   O     0.10559   0.53821   0.74999   0.00000  Uiso   1.00
O734   O     0.22774   0.46179   0.75000   0.00000  Uiso   1.00
O735   O     0.22774   0.53821   0.75000   0.00000  Uiso   1.00
O736   O     0.10559   0.46179   0.74999   0.00000  Uiso   1.00
O737   O     0.16666   0.53823   0.68392   0.00000  Uiso   1.00
O738   O     0.16667   0.46177   0.81607   0.00000  Uiso   1.00
O739   O     0.16667   0.53823   0.81607   0.00000  Uiso   1.00
O740   O     0.16666   0.46177   0.68392   0.00000  Uiso   1.00
Zn741  Zn    0.16667   0.55104   0.75000   0.00000  Uiso   1.00
Zn742  Zn    0.16667   0.44896   0.75000   0.00000  Uiso   1.00
F743   F     0.15138   0.58076   0.88647   0.00000  Uiso   1.00
F744   F     0.18195   0.41924   0.61353   0.00000  Uiso   1.00
F745   F     0.18717   0.37922   0.95319   0.00000  Uiso   1.00
F746   F     0.14617   0.62078   0.54681   0.00000  Uiso   1.00
F747   F     0.04256   0.43881   0.80235   0.00000  Uiso   1.00
F748   F     0.29078   0.56119   0.69765   0.00000  Uiso   1.00
F749   F     0.29144   0.43886   0.80249   0.00000  Uiso   1.00
F750   F     0.04189   0.56114   0.69751   0.00000  Uiso   1.00
F751   F     0.21643   0.38046   0.80780   0.00000  Uiso   1.00
F752   F     0.11690   0.61954   0.69220   0.00000  Uiso   1.00
F753   F     0.11679   0.37962   0.69233   0.00000  Uiso   1.00
F754   F     0.21655   0.62038   0.80767   0.00000  Uiso   1.00
C755   C     0.42002   0.50002   0.74995   0.00000  Uiso   1.00
C756   C     0.57998   0.49998   0.75005   0.00000  Uiso   1.00
C757   C     0.51412   0.41847   0.52176   0.00000  Uiso   1.00
C758   C     0.48588   0.58153   0.97824   0.00000  Uiso   1.00
C759   C     0.35493   0.46851   0.77612   0.00000  Uiso   1.00
C760   C     0.64507   0.53149   0.72388   0.00000  Uiso   1.00
C761   C     0.64540   0.46850   0.77616   0.00000  Uiso   1.00
C762   C     0.35460   0.53150   0.72384   0.00000  Uiso   1.00
C763   C     0.62408   0.49998   0.75002   0.00000  Uiso   1.00
C764   C     0.37592   0.50002   0.74998   0.00000  Uiso   1.00
C765   C     0.52488   0.35754   0.77885   0.00000  Uiso   1.00
C766   C     0.47512   0.64246   0.72115   0.00000  Uiso   1.00
C767   C     0.47511   0.35711   0.72116   0.00000  Uiso   1.00
C768   C     0.52489   0.64289   0.77884   0.00000  Uiso   1.00
C769   C     0.50021   0.49975   0.66326   0.00000  Uiso   1.00
C770   C     0.49979   0.50025   0.83674   0.00000  Uiso   1.00
C771   C     0.49241   0.54133   0.90820   0.00000  Uiso   1.00
C772   C     0.50759   0.45867   0.59180   0.00000  Uiso   1.00
C773   C     0.49958   0.50075   0.88471   0.00000  Uiso   1.00
C774   C     0.50042   0.49925   0.61529   0.00000  Uiso   1.00
C775   C     0.50667   0.46013   0.90708   0.00000  Uiso   1.00
C776   C     0.49333   0.53987   0.59292   0.00000  Uiso   1.00
C777   C     0.50683   0.45940   0.95306   0.00000  Uiso   1.00
C778   C     0.49317   0.54060   0.54694   0.00000  Uiso   1.00
C779   C     0.49989   0.50016   0.97683   0.00000  Uiso   1.00
C780   C     0.50011   0.49984   0.52317   0.00000  Uiso   1.00
C781   C     0.49269   0.54125   0.95431   0.00000  Uiso   1.00
C782   C     0.50731   0.45875   0.54569   0.00000  Uiso   1.00
C783   C     0.51388   0.41871   0.97564   0.00000  Uiso   1.00
C784   C     0.48612   0.58129   0.52436   0.00000  Uiso   1.00
H785   H     0.51232   0.42901   0.88863   0.00000  Uiso   1.00
H786   H     0.48768   0.57099   0.61137   0.00000  Uiso   1.00
H787   H     0.51961   0.38669   0.53861   0.00000  Uiso   1.00
H788   H     0.48039   0.61331   0.96139   0.00000  Uiso   1.00
N789   N     0.50000   0.61907   0.75000   0.00000  Uiso   1.00
N790   N     0.50000   0.38093   0.75000   0.00000  Uiso   1.00
O791   O     0.43892   0.53821   0.74999   0.00000  Uiso   1.00
O792   O     0.56108   0.46179   0.75000   0.00000  Uiso   1.00
O793   O     0.56108   0.53821   0.75000   0.00000  Uiso   1.00
O794   O     0.43892   0.46179   0.74999   0.00000  Uiso   1.00
O795   O     0.49999   0.53823   0.68392   0.00000  Uiso   1.00
O796   O     0.50001   0.46177   0.81607   0.00000  Uiso   1.00
O797   O     0.50001   0.53823   0.81607   0.00000  Uiso   1.00
O798   O     0.49999   0.46177   0.68392   0.00000  Uiso   1.00
Zn799  Zn    0.50000   0.55104   0.75000   0.00000  Uiso   1.00
Zn800  Zn    0.50000   0.44896   0.75000   0.00000  Uiso   1.00
F801   F     0.48472   0.58076   0.88647   0.00000  Uiso   1.00
F802   F     0.51528   0.41924   0.61353   0.00000  Uiso   1.00
F803   F     0.52050   0.37922   0.95319   0.00000  Uiso   1.00
F804   F     0.47950   0.62078   0.54681   0.00000  Uiso   1.00
F805   F     0.37589   0.43881   0.80235   0.00000  Uiso   1.00
F806   F     0.62411   0.56119   0.69765   0.00000  Uiso   1.00
F807   F     0.62477   0.43886   0.80249   0.00000  Uiso   1.00
F808   F     0.37523   0.56114   0.69751   0.00000  Uiso   1.00
F809   F     0.54977   0.38046   0.80780   0.00000  Uiso   1.00
F810   F     0.45023   0.61954   0.69220   0.00000  Uiso   1.00
F811   F     0.45012   0.37962   0.69233   0.00000  Uiso   1.00
F812   F     0.54988   0.62038   0.80767   0.00000  Uiso   1.00
C813   C     0.75335   0.50002   0.74995   0.00000  Uiso   1.00
C814   C     0.91331   0.49998   0.75005   0.00000  Uiso   1.00
C815   C     0.84746   0.41847   0.52176   0.00000  Uiso   1.00
C816   C     0.81921   0.58153   0.97824   0.00000  Uiso   1.00
C817   C     0.68826   0.46851   0.77612   0.00000  Uiso   1.00
C818   C     0.97841   0.53149   0.72388   0.00000  Uiso   1.00
C819   C     0.97873   0.46850   0.77616   0.00000  Uiso   1.00
C820   C     0.68793   0.53150   0.72384   0.00000  Uiso   1.00
C821   C     0.95741   0.49998   0.75002   0.00000  Uiso   1.00
C822   C     0.70925   0.50002   0.74998   0.00000  Uiso   1.00
C823   C     0.85821   0.35754   0.77885   0.00000  Uiso   1.00
C824   C     0.80846   0.64246   0.72115   0.00000  Uiso   1.00
C825   C     0.80844   0.35711   0.72116   0.00000  Uiso   1.00
C826   C     0.85823   0.64289   0.77884   0.00000  Uiso   1.00
C827   C     0.83354   0.49975   0.66326   0.00000  Uiso   1.00
C828   C     0.83313   0.50025   0.83674   0.00000  Uiso   1.00
C829   C     0.82574   0.54133   0.90820   0.00000  Uiso   1.00
C830   C     0.84092   0.45867   0.59180   0.00000  Uiso   1.00
C831   C     0.83291   0.50075   0.88471   0.00000  Uiso   1.00
C832   C     0.83376   0.49925   0.61529   0.00000  Uiso   1.00
C833   C     0.84001   0.46013   0.90708   0.00000  Uiso   1.00
C834   C     0.82666   0.53987   0.59292   0.00000  Uiso   1.00
C835   C     0.84017   0.45940   0.95306   0.00000  Uiso   1.00
C836   C     0.82650   0.54060   0.54694   0.00000  Uiso   1.00
C837   C     0.83322   0.50016   0.97683   0.00000  Uiso   1.00
C838   C     0.83345   0.49984   0.52317   0.00000  Uiso   1.00
C839   C     0.82602   0.54125   0.95431   0.00000  Uiso   1.00
C840   C     0.84065   0.45875   0.54569   0.00000  Uiso   1.00
C841   C     0.84721   0.41871   0.97564   0.00000  Uiso   1.00
C842   C     0.81945   0.58129   0.52436   0.00000  Uiso   1.00
H843   H     0.84565   0.42901   0.88863   0.00000  Uiso   1.00
H844   H     0.82102   0.57099   0.61137   0.00000  Uiso   1.00
H845   H     0.85294   0.38669   0.53861   0.00000  Uiso   1.00
H846   H     0.81372   0.61331   0.96139   0.00000  Uiso   1.00
N847   N     0.83333   0.61907   0.75000   0.00000  Uiso   1.00
N848   N     0.83333   0.38093   0.75000   0.00000  Uiso   1.00
O849   O     0.77226   0.53821   0.74999   0.00000  Uiso   1.00
O850   O     0.89441   0.46179   0.75000   0.00000  Uiso   1.00
O851   O     0.89441   0.53821   0.75000   0.00000  Uiso   1.00
O852   O     0.77226   0.46179   0.74999   0.00000  Uiso   1.00
O853   O     0.83333   0.53823   0.68392   0.00000  Uiso   1.00
O854   O     0.83334   0.46177   0.81607   0.00000  Uiso   1.00
O855   O     0.83334   0.53823   0.81607   0.00000  Uiso   1.00
O856   O     0.83333   0.46177   0.68392   0.00000  Uiso   1.00
Zn857  Zn    0.83333   0.55104   0.75000   0.00000  Uiso   1.00
Zn858  Zn    0.83333   0.44896   0.75000   0.00000  Uiso   1.00
F859   F     0.81805   0.58076   0.88647   0.00000  Uiso   1.00
F860   F     0.84862   0.41924   0.61353   0.00000  Uiso   1.00
F861   F     0.85383   0.37922   0.95319   0.00000  Uiso   1.00
F862   F     0.81283   0.62078   0.54681   0.00000  Uiso   1.00
F863   F     0.70922   0.43881   0.80235   0.00000  Uiso   1.00
F864   F     0.95744   0.56119   0.69765   0.00000  Uiso   1.00
F865   F     0.95811   0.43886   0.80249   0.00000  Uiso   1.00
F866   F     0.70856   0.56114   0.69751   0.00000  Uiso   1.00
F867   F     0.88310   0.38046   0.80780   0.00000  Uiso   1.00
F868   F     0.78357   0.61954   0.69220   0.00000  Uiso   1.00
F869   F     0.78345   0.37962   0.69233   0.00000  Uiso   1.00
F870   F     0.88321   0.62038   0.80767   0.00000  Uiso   1.00
C871   C     0.08669   0.83335   0.74995   0.00000  Uiso   1.00
C872   C     0.24665   0.83332   0.75005   0.00000  Uiso   1.00
C873   C     0.18079   0.75181   0.52176   0.00000  Uiso   1.00
C874   C     0.15254   0.91486   0.97824   0.00000  Uiso   1.00
C875   C     0.02159   0.80184   0.77612   0.00000  Uiso   1.00
C876   C     0.31174   0.86483   0.72388   0.00000  Uiso   1.00
C877   C     0.31207   0.80183   0.77616   0.00000  Uiso   1.00
C878   C     0.02127   0.86484   0.72384   0.00000  Uiso   1.00
C879   C     0.29075   0.83331   0.75002   0.00000  Uiso   1.00
C880   C     0.04259   0.83336   0.74998   0.00000  Uiso   1.00
C881   C     0.19154   0.69087   0.77885   0.00000  Uiso   1.00
C882   C     0.14179   0.97579   0.72115   0.00000  Uiso   1.00
C883   C     0.14177   0.69044   0.72116   0.00000  Uiso   1.00
C884   C     0.19156   0.97622   0.77884   0.00000  Uiso   1.00
C885   C     0.16687   0.83308   0.66326   0.00000  Uiso   1.00
C886   C     0.16646   0.83358   0.83674   0.00000  Uiso   1.00
C887   C     0.15908   0.87467   0.90820   0.00000  Uiso   1.00
C888   C     0.17426   0.79200   0.59180   0.00000  Uiso   1.00
C889   C     0.16624   0.83409   0.88471   0.00000  Uiso   1.00
C890   C     0.16709   0.83258   0.61529   0.00000  Uiso   1.00
C891   C     0.17334   0.79346   0.90708   0.00000  Uiso   1.00
C892   C     0.15999   0.87320   0.59292   0.00000  Uiso   1.00
C893   C     0.17350   0.79274   0.95306   0.00000  Uiso   1.00
C894   C     0.15983   0.87393   0.54694   0.00000  Uiso   1.00
C895   C     0.16655   0.83349   0.97683   0.00000  Uiso   1.00
C896   C     0.16678   0.83317   0.52317   0.00000  Uiso   1.00
C897   C     0.15936   0.87458   0.95431   0.00000  Uiso   1.00
C898   C     0.17398   0.79209   0.54569   0.00000  Uiso   1.00
C899   C     0.18055   0.75205   0.97564   0.00000  Uiso   1.00
C900   C     0.15279   0.91462   0.52436   0.00000  Uiso   1.00
H901   H     0.17899   0.76234   0.88863   0.00000  Uiso   1.00
H902   H     0.15435   0.90432   0.61137   0.00000  Uiso   1.00
H903   H     0.18628   0.72003   0.53861   0.00000  Uiso   1.00
H904   H     0.14706   0.94664   0.96139   0.00000  Uiso   1.00
N905   N     0.16667   0.95240   0.75000   0.00000  Uiso   1.00
N906   N     0.16667   0.71427   0.75000   0.00000  Uiso   1.00
O907   O     0.10559   0.87154   0.74999   0.00000  Uiso   1.00
O908   O     0.22774   0.79513   0.75000   0.00000  Uiso   1.00
O909   O     0.22774   0.87154   0.75000   0.00000  Uiso   1.00
O910   O     0.10559   0.79513   0.74999   0.00000  Uiso   1.00
O911   O     0.16666   0.87156   0.68392   0.00000  Uiso   1.00
O912   O     0.16667   0.79511   0.81607   0.00000  Uiso   1.00
O913   O     0.16667   0.87156   0.81607   0.00000  Uiso   1.00
O914   O     0.16666   0.79511   0.68392   0.00000  Uiso   1.00
Zn915  Zn    0.16667   0.88437   0.75000   0.00000  Uiso   1.00
Zn916  Zn    0.16667   0.78229   0.75000   0.00000  Uiso   1.00
F917   F     0.15138   0.91409   0.88647   0.00000  Uiso   1.00
F918   F     0.18195   0.75257   0.61353   0.00000  Uiso   1.00
F919   F     0.18717   0.71255   0.95319   0.00000  Uiso   1.00
F920   F     0.14617   0.95412   0.54681   0.00000  Uiso   1.00
F921   F     0.04256   0.77214   0.80235   0.00000  Uiso   1.00
F922   F     0.29078   0.89453   0.69765   0.00000  Uiso   1.00
F923   F     0.29144   0.77219   0.80249   0.00000  Uiso   1.00
F924   F     0.04189   0.89448   0.69751   0.00000  Uiso   1.00
F925   F     0.21643   0.71380   0.80780   0.00000  Uiso   1.00
F926   F     0.11690   0.95287   0.69220   0.00000  Uiso   1.00
F927   F     0.11679   0.71296   0.69233   0.00000  Uiso   1.00
F928   F     0.21655   0.95371   0.80767   0.00000  Uiso   1.00
C929   C     0.42002   0.83335   0.74995   0.00000  Uiso   1.00
C930   C     0.57998   0.83332   0.75005   0.00000  Uiso   1.00
C931   C     0.51412   0.75181   0.52176   0.00000  Uiso   1.00
C932   C     0.48588   0.91486   0.97824   0.00000  Uiso   1.00
C933   C     0.35493   0.80184   0.77612   0.00000  Uiso   1.00
C934   C     0.64507   0.86483   0.72388   0.00000  Uiso   1.00
C935   C     0.64540   0.80183   0.77616   0.00000  Uiso   1.00
C936   C     0.35460   0.86484   0.72384   0.00000  Uiso   1.00
C937   C     0.62408   0.83331   0.75002   0.00000  Uiso   1.00
C938   C     0.37592   0.83336   0.74998   0.00000  Uiso   1.00
C939   C     0.52488   0.69087   0.77885   0.00000  Uiso   1.00
C940   C     0.47512   0.97579   0.72115   0.00000  Uiso   1.00
C941   C     0.47511   0.69044   0.72116   0.00000  Uiso   1.00
C942   C     0.52489   0.97622   0.77884   0.00000  Uiso   1.00
C943   C     0.50021   0.83308   0.66326   0.00000  Uiso   1.00
C944   C     0.49979   0.83358   0.83674   0.00000  Uiso   1.00
C945   C     0.49241   0.87467   0.90820   0.00000  Uiso   1.00
C946   C     0.50759   0.79200   0.59180   0.00000  Uiso   1.00
C947   C     0.49958   0.83409   0.88471   0.00000  Uiso   1.00
C948   C     0.50042   0.83258   0.61529   0.00000  Uiso   1.00
C949   C     0.50667   0.79346   0.90708   0.00000  Uiso   1.00
C950   C     0.49333   0.87320   0.59292   0.00000  Uiso   1.00
C951   C     0.50683   0.79274   0.95306   0.00000  Uiso   1.00
C952   C     0.49317   0.87393   0.54694   0.00000  Uiso   1.00
C953   C     0.49989   0.83349   0.97683   0.00000  Uiso   1.00
C954   C     0.50011   0.83317   0.52317   0.00000  Uiso   1.00
C955   C     0.49269   0.87458   0.95431   0.00000  Uiso   1.00
C956   C     0.50731   0.79209   0.54569   0.00000  Uiso   1.00
C957   C     0.51388   0.75205   0.97564   0.00000  Uiso   1.00
C958   C     0.48612   0.91462   0.52436   0.00000  Uiso   1.00
H959   H     0.51232   0.76234   0.88863   0.00000  Uiso   1.00
H960   H     0.48768   0.90432   0.61137   0.00000  Uiso   1.00
H961   H     0.51961   0.72003   0.53861   0.00000  Uiso   1.00
H962   H     0.48039   0.94664   0.96139   0.00000  Uiso   1.00
N963   N     0.50000   0.95240   0.75000   0.00000  Uiso   1.00
N964   N     0.50000   0.71427   0.75000   0.00000  Uiso   1.00
O965   O     0.43892   0.87154   0.74999   0.00000  Uiso   1.00
O966   O     0.56108   0.79513   0.75000   0.00000  Uiso   1.00
O967   O     0.56108   0.87154   0.75000   0.00000  Uiso   1.00
O968   O     0.43892   0.79513   0.74999   0.00000  Uiso   1.00
O969   O     0.49999   0.87156   0.68392   0.00000  Uiso   1.00
O970   O     0.50001   0.79511   0.81607   0.00000  Uiso   1.00
O971   O     0.50001   0.87156   0.81607   0.00000  Uiso   1.00
O972   O     0.49999   0.79511   0.68392   0.00000  Uiso   1.00
Zn973  Zn    0.50000   0.88437   0.75000   0.00000  Uiso   1.00
Zn974  Zn    0.50000   0.78229   0.75000   0.00000  Uiso   1.00
F975   F     0.48472   0.91409   0.88647   0.00000  Uiso   1.00
F976   F     0.51528   0.75257   0.61353   0.00000  Uiso   1.00
F977   F     0.52050   0.71255   0.95319   0.00000  Uiso   1.00
F978   F     0.47950   0.95412   0.54681   0.00000  Uiso   1.00
F979   F     0.37589   0.77214   0.80235   0.00000  Uiso   1.00
F980   F     0.62411   0.89453   0.69765   0.00000  Uiso   1.00
F981   F     0.62477   0.77219   0.80249   0.00000  Uiso   1.00
F982   F     0.37523   0.89448   0.69751   0.00000  Uiso   1.00
F983   F     0.54977   0.71380   0.80780   0.00000  Uiso   1.00
F984   F     0.45023   0.95287   0.69220   0.00000  Uiso   1.00
F985   F     0.45012   0.71296   0.69233   0.00000  Uiso   1.00
F986   F     0.54988   0.95371   0.80767   0.00000  Uiso   1.00
C987   C     0.75335   0.83335   0.74995   0.00000  Uiso   1.00
C988   C     0.91331   0.83332   0.75005   0.00000  Uiso   1.00
C989   C     0.84746   0.75181   0.52176   0.00000  Uiso   1.00
C990   C     0.81921   0.91486   0.97824   0.00000  Uiso   1.00
C991   C     0.68826   0.80184   0.77612   0.00000  Uiso   1.00
C992   C     0.97841   0.86483   0.72388   0.00000  Uiso   1.00
C993   C     0.97873   0.80183   0.77616   0.00000  Uiso   1.00
C994   C     0.68793   0.86484   0.72384   0.00000  Uiso   1.00
C995   C     0.95741   0.83331   0.75002   0.00000  Uiso   1.00
C996   C     0.70925   0.83336   0.74998   0.00000  Uiso   1.00
C997   C     0.85821   0.69087   0.77885   0.00000  Uiso   1.00
C998   C     0.80846   0.97579   0.72115   0.00000  Uiso   1.00
C999   C     0.80844   0.69044   0.72116   0.00000  Uiso   1.00
C1000  C     0.85823   0.97622   0.77884   0.00000  Uiso   1.00
C1001  C     0.83354   0.83308   0.66326   0.00000  Uiso   1.00
C1002  C     0.83313   0.83358   0.83674   0.00000  Uiso   1.00
C1003  C     0.82574   0.87467   0.90820   0.00000  Uiso   1.00
C1004  C     0.84092   0.79200   0.59180   0.00000  Uiso   1.00
C1005  C     0.83291   0.83409   0.88471   0.00000  Uiso   1.00
C1006  C     0.83376   0.83258   0.61529   0.00000  Uiso   1.00
C1007  C     0.84001   0.79346   0.90708   0.00000  Uiso   1.00
C1008  C     0.82666   0.87320   0.59292   0.00000  Uiso   1.00
C1009  C     0.84017   0.79274   0.95306   0.00000  Uiso   1.00
C1010  C     0.82650   0.87393   0.54694   0.00000  Uiso   1.00
C1011  C     0.83322   0.83349   0.97683   0.00000  Uiso   1.00
C1012  C     0.83345   0.83317   0.52317   0.00000  Uiso   1.00
C1013  C     0.82602   0.87458   0.95431   0.00000  Uiso   1.00
C1014  C     0.84065   0.79209   0.54569   0.00000  Uiso   1.00
C1015  C     0.84721   0.75205   0.97564   0.00000  Uiso   1.00
C1016  C     0.81945   0.91462   0.52436   0.00000  Uiso   1.00
H1017  H     0.84565   0.76234   0.88863   0.00000  Uiso   1.00
H1018  H     0.82102   0.90432   0.61137   0.00000  Uiso   1.00
H1019  H     0.85294   0.72003   0.53861   0.00000  Uiso   1.00
H1020  H     0.81372   0.94664   0.96139   0.00000  Uiso   1.00
N1021  N     0.83333   0.95240   0.75000   0.00000  Uiso   1.00
N1022  N     0.83333   0.71427   0.75000   0.00000  Uiso   1.00
O1023  O     0.77226   0.87154   0.74999   0.00000  Uiso   1.00
O1024  O     0.89441   0.79513   0.75000   0.00000  Uiso   1.00
O1025  O     0.89441   0.87154   0.75000   0.00000  Uiso   1.00
O1026  O     0.77226   0.79513   0.74999   0.00000  Uiso   1.00
O1027  O     0.83333   0.87156   0.68392   0.00000  Uiso   1.00
O1028  O     0.83334   0.79511   0.81607   0.00000  Uiso   1.00
O1029  O     0.83334   0.87156   0.81607   0.00000  Uiso   1.00
O1030  O     0.83333   0.79511   0.68392   0.00000  Uiso   1.00
Zn1031 Zn    0.83333   0.88437   0.75000   0.00000  Uiso   1.00
Zn1032 Zn    0.83333   0.78229   0.75000   0.00000  Uiso   1.00
F1033  F     0.81805   0.91409   0.88647   0.00000  Uiso   1.00
F1034  F     0.84862   0.75257   0.61353   0.00000  Uiso   1.00
F1035  F     0.85383   0.71255   0.95319   0.00000  Uiso   1.00
F1036  F     0.81283   0.95412   0.54681   0.00000  Uiso   1.00
F1037  F     0.70922   0.77214   0.80235   0.00000  Uiso   1.00
F1038  F     0.95744   0.89453   0.69765   0.00000  Uiso   1.00
F1039  F     0.95811   0.77219   0.80249   0.00000  Uiso   1.00
F1040  F     0.70856   0.89448   0.69751   0.00000  Uiso   1.00
F1041  F     0.88310   0.71380   0.80780   0.00000  Uiso   1.00
F1042  F     0.78357   0.95287   0.69220   0.00000  Uiso   1.00
F1043  F     0.78345   0.71296   0.69233   0.00000  Uiso   1.00
F1044  F     0.88321   0.95371   0.80767   0.00000  Uiso   1.00
loop_
_geom_bond_atom_site_label_1
_geom_bond_atom_site_label_2
_geom_bond_distance
_geom_bond_site_symmetry_2
_ccdc_geom_bond_type
C1     O37     1.280   .     A
C1     O40     1.279   .     A
C1     C10     1.412   .     S
C2     O38     1.280   .     A
C2     C9      1.412   .     S
C2     O39     1.279   .     A
C3     C28     1.401   .     A
C3     H33     1.084   .     S
C3     C551    1.387   1_554 S
C4     H34     1.084   .     S
C4     C27     1.401   .     A
C4     C552    1.387   .     S
C5     C10     1.398   .     A
C5     F51     1.359   .     S
C5     C123    1.373   1_455 S
C6     C9      1.398   .     A
C6     F52     1.359   .     S
C6     C66     1.373   .     S
C7     C9      1.398   .     A
C7     F53     1.359   .     S
C7     C63     1.373   .     S
C8     C10     1.398   .     A
C8     F54     1.359   .     S
C8     C122    1.373   1_455 S
C11    F55     1.355   .     S
C11    N36     1.367   .     A
C11    C362    1.416   1_545 S
C12    N35     1.367   .     A
C12    F56     1.355   .     S
C12    C187    1.416   .     S
C13    N36     1.366   .     A
C13    F57     1.355   .     S
C13    C360    1.416   1_545 S
C14    F58     1.355   .     S
C14    N35     1.366   .     A
C14    C185    1.416   .     S
C15    O44     1.286   .     A
C15    C20     1.443   .     S
C15    O41     1.289   .     A
C16    O43     1.286   .     A
C16    C19     1.443   .     S
C16    O42     1.289   .     A
C17    C27     1.387   .     A
C17    C19     1.404   .     A
C17    F47     1.361   .     S
C18    C28     1.387   .     A
C18    C20     1.404   .     A
C18    F48     1.361   .     S
C19    C21     1.398   .     A
C20    C22     1.398   .     A
C21    H31     1.084   .     S
C21    C23     1.384   .     A
C22    H32     1.084   .     S
C22    C24     1.384   .     A
C23    C29     1.402   .     A
C23    C25     1.412   .     A
C24    C30     1.402   .     A
C24    C26     1.412   .     A
C25    C27     1.412   .     A
C25    C548    1.394   .     S
C26    C28     1.412   .     A
C26    C547    1.394   1_554 S
C29    F49     1.359   .     S
C29    C525    1.387   .     S
C30    F50     1.359   .     S
C30    C526    1.387   1_554 S
N35    Zn45    2.007   .     S
N36    Zn46    2.007   .     S
O37    Zn45    1.993   .     S
O38    Zn46    1.993   .     S
O39    Zn45    1.992   .     S
O40    Zn46    1.992   .     S
O41    Zn45    2.020   .     S
O42    Zn46    2.020   .     S
O43    Zn45    2.027   .     S
O44    Zn46    2.027   .     S
C59    O95     1.280   .     A
C59    O98     1.279   .     A
C59    C68     1.412   .     S
C60    O96     1.280   .     A
C60    C67     1.412   .     S
C60    O97     1.279   .     A
C61    C86     1.401   .     A
C61    H91     1.084   .     S
C61    C609    1.387   1_554 S
C62    H92     1.084   .     S
C62    C85     1.401   .     A
C62    C610    1.387   .     S
C63    C68     1.398   .     A
C63    F109    1.359   .     S
C64    C67     1.398   .     A
C64    F110    1.359   .     S
C64    C124    1.373   .     S
C65    C67     1.398   .     A
C65    F111    1.359   .     S
C65    C121    1.373   .     S
C66    C68     1.398   .     A
C66    F112    1.359   .     S
C69    F113    1.355   .     S
C69    N94     1.367   .     A
C69    C420    1.416   1_545 S
C70    N93     1.367   .     A
C70    F114    1.355   .     S
C70    C245    1.416   .     S
C71    N94     1.366   .     A
C71    F115    1.355   .     S
C71    C418    1.416   1_545 S
C72    F116    1.355   .     S
C72    N93     1.366   .     A
C72    C243    1.416   .     S
C73    O102    1.286   .     A
C73    C78     1.443   .     S
C73    O99     1.289   .     A
C74    O101    1.286   .     A
C74    C77     1.443   .     S
C74    O100    1.289   .     A
C75    C85     1.387   .     A
C75    C77     1.404   .     A
C75    F105    1.361   .     S
C76    C86     1.387   .     A
C76    C78     1.404   .     A
C76    F106    1.361   .     S
C77    C79     1.398   .     A
C78    C80     1.398   .     A
C79    H89     1.084   .     S
C79    C81     1.384   .     A
C80    H90     1.084   .     S
C80    C82     1.384   .     A
C81    C87     1.402   .     A
C81    C83     1.412   .     A
C82    C88     1.402   .     A
C82    C84     1.412   .     A
C83    C85     1.412   .     A
C83    C606    1.394   .     S
C84    C86     1.412   .     A
C84    C605    1.394   1_554 S
C87    F107    1.359   .     S
C87    C583    1.387   .     S
C88    F108    1.359   .     S
C88    C584    1.387   1_554 S
N93    Zn103   2.007   .     S
N94    Zn104   2.007   .     S
O95    Zn103   1.993   .     S
O96    Zn104   1.993   .     S
O97    Zn103   1.992   .     S
O98    Zn104   1.992   .     S
O99    Zn103   2.020   .     S
O100   Zn104   2.020   .     S
O101   Zn103   2.027   .     S
O102   Zn104   2.027   .     S
C117   O153    1.280   .     A
C117   O156    1.279   .     A
C117   C126    1.412   .     S
C118   O154    1.280   .     A
C118   C125    1.412   .     S
C118   O155    1.279   .     A
C119   C144    1.401   .     A
C119   H149    1.084   .     S
C119   C667    1.387   1_554 S
C120   H150    1.084   .     S
C120   C143    1.401   .     A
C120   C668    1.387   .     S
C121   C126    1.398   .     A
C121   F167    1.359   .     S
C122   C125    1.398   .     A
C122   F168    1.359   .     S
C122   C8      1.373   1_655 S
C123   C125    1.398   .     A
C123   F169    1.359   .     S
C123   C5      1.373   1_655 S
C124   C126    1.398   .     A
C124   F170    1.359   .     S
C127   F171    1.355   .     S
C127   N152    1.367   .     A
C127   C478    1.416   1_545 S
C128   N151    1.367   .     A
C128   F172    1.355   .     S
C128   C303    1.416   .     S
C129   N152    1.366   .     A
C129   F173    1.355   .     S
C129   C476    1.416   1_545 S
C130   F174    1.355   .     S
C130   N151    1.366   .     A
C130   C301    1.416   .     S
C131   O160    1.286   .     A
C131   C136    1.443   .     S
C131   O157    1.289   .     A
C132   O159    1.286   .     A
C132   C135    1.443   .     S
C132   O158    1.289   .     A
C133   C143    1.387   .     A
C133   C135    1.404   .     A
C133   F163    1.361   .     S
C134   C144    1.387   .     A
C134   C136    1.404   .     A
C134   F164    1.361   .     S
C135   C137    1.398   .     A
C136   C138    1.398   .     A
C137   H147    1.084   .     S
C137   C139    1.384   .     A
C138   H148    1.084   .     S
C138   C140    1.384   .     A
C139   C145    1.402   .     A
C139   C141    1.412   .     A
C140   C146    1.402   .     A
C140   C142    1.412   .     A
C141   C143    1.412   .     A
C141   C664    1.394   .     S
C142   C144    1.412   .     A
C142   C663    1.394   1_554 S
C145   F165    1.359   .     S
C145   C641    1.387   .     S
C146   F166    1.359   .     S
C146   C642    1.387   1_554 S
N151   Zn161   2.007   .     S
N152   Zn162   2.007   .     S
O153   Zn161   1.993   .     S
O154   Zn162   1.993   .     S
O155   Zn161   1.992   .     S
O156   Zn162   1.992   .     S
O157   Zn161   2.020   .     S
O158   Zn162   2.020   .     S
O159   Zn161   2.027   .     S
O160   Zn162   2.027   .     S
C175   O211    1.280   .     A
C175   O214    1.279   .     A
C175   C184    1.412   .     S
C176   O212    1.280   .     A
C176   C183    1.412   .     S
C176   O213    1.279   .     A
C177   C202    1.401   .     A
C177   H207    1.084   .     S
C177   C725    1.387   1_554 S
C178   H208    1.084   .     S
C178   C201    1.401   .     A
C178   C726    1.387   .     S
C179   C184    1.398   .     A
C179   F225    1.359   .     S
C179   C297    1.373   1_455 S
C180   C183    1.398   .     A
C180   F226    1.359   .     S
C180   C240    1.373   .     S
C181   C183    1.398   .     A
C181   F227    1.359   .     S
C181   C237    1.373   .     S
C182   C184    1.398   .     A
C182   F228    1.359   .     S
C182   C296    1.373   1_455 S
C185   F229    1.355   .     S
C185   N210    1.367   .     A
C186   N209    1.367   .     A
C186   F230    1.355   .     S
C186   C361    1.416   .     S
C187   N210    1.366   .     A
C187   F231    1.355   .     S
C188   F232    1.355   .     S
C188   N209    1.366   .     A
C188   C359    1.416   .     S
C189   O218    1.286   .     A
C189   C194    1.443   .     S
C189   O215    1.289   .     A
C190   O217    1.286   .     A
C190   C193    1.443   .     S
C190   O216    1.289   .     A
C191   C201    1.387   .     A
C191   C193    1.404   .     A
C191   F221    1.361   .     S
C192   C202    1.387   .     A
C192   C194    1.404   .     A
C192   F222    1.361   .     S
C193   C195    1.398   .     A
C194   C196    1.398   .     A
C195   H205    1.084   .     S
C195   C197    1.384   .     A
C196   H206    1.084   .     S
C196   C198    1.384   .     A
C197   C203    1.402   .     A
C197   C199    1.412   .     A
C198   C204    1.402   .     A
C198   C200    1.412   .     A
C199   C201    1.412   .     A
C199   C722    1.394   .     S
C200   C202    1.412   .     A
C200   C721    1.394   1_554 S
C203   F223    1.359   .     S
C203   C699    1.387   .     S
C204   F224    1.359   .     S
C204   C700    1.387   1_554 S
N209   Zn219   2.007   .     S
N210   Zn220   2.007   .     S
O211   Zn219   1.993   .     S
O212   Zn220   1.993   .     S
O213   Zn219   1.992   .     S
O214   Zn220   1.992   .     S
O215   Zn219   2.020   .     S
O216   Zn220   2.020   .     S
O217   Zn219   2.027   .     S
O218   Zn220   2.027   .     S
C233   O269    1.280   .     A
C233   O272    1.279   .     A
C233   C242    1.412   .     S
C234   O270    1.280   .     A
C234   C241    1.412   .     S
C234   O271    1.279   .     A
C235   C260    1.401   .     A
C235   H265    1.084   .     S
C235   C783    1.387   1_554 S
C236   H266    1.084   .     S
C236   C259    1.401   .     A
C236   C784    1.387   .     S
C237   C242    1.398   .     A
C237   F283    1.359   .     S
C238   C241    1.398   .     A
C238   F284    1.359   .     S
C238   C298    1.373   .     S
C239   C241    1.398   .     A
C239   F285    1.359   .     S
C239   C295    1.373   .     S
C240   C242    1.398   .     A
C240   F286    1.359   .     S
C243   F287    1.355   .     S
C243   N268    1.367   .     A
C244   N267    1.367   .     A
C244   F288    1.355   .     S
C244   C419    1.416   .     S
C245   N268    1.366   .     A
C245   F289    1.355   .     S
C246   F290    1.355   .     S
C246   N267    1.366   .     A
C246   C417    1.416   .     S
C247   O276    1.286   .     A
C247   C252    1.443   .     S
C247   O273    1.289   .     A
C248   O275    1.286   .     A
C248   C251    1.443   .     S
C248   O274    1.289   .     A
C249   C259    1.387   .     A
C249   C251    1.404   .     A
C249   F279    1.361   .     S
C250   C260    1.387   .     A
C250   C252    1.404   .     A
C250   F280    1.361   .     S
C251   C253    1.398   .     A
C252   C254    1.398   .     A
C253   H263    1.084   .     S
C253   C255    1.384   .     A
C254   H264    1.084   .     S
C254   C256    1.384   .     A
C255   C261    1.402   .     A
C255   C257    1.412   .     A
C256   C262    1.402   .     A
C256   C258    1.412   .     A
C257   C259    1.412   .     A
C257   C780    1.394   .     S
C258   C260    1.412   .     A
C258   C779    1.394   1_554 S
C261   F281    1.359   .     S
C261   C757    1.387   .     S
C262   F282    1.359   .     S
C262   C758    1.387   1_554 S
N267   Zn277   2.007   .     S
N268   Zn278   2.007   .     S
O269   Zn277   1.993   .     S
O270   Zn278   1.993   .     S
O271   Zn277   1.992   .     S
O272   Zn278   1.992   .     S
O273   Zn277   2.020   .     S
O274   Zn278   2.020   .     S
O275   Zn277   2.027   .     S
O276   Zn278   2.027   .     S
C291   O327    1.280   .     A
C291   O330    1.279   .     A
C291   C300    1.412   .     S
C292   O328    1.280   .     A
C292   C299    1.412   .     S
C292   O329    1.279   .     A
C293   C318    1.401   .     A
C293   H323    1.084   .     S
C293   C841    1.387   1_554 S
C294   H324    1.084   .     S
C294   C317    1.401   .     A
C294   C842    1.387   .     S
C295   C300    1.398   .     A
C295   F341    1.359   .     S
C296   C299    1.398   .     A
C296   F342    1.359   .     S
C296   C182    1.373   1_655 S
C297   C299    1.398   .     A
C297   F343    1.359   .     S
C297   C179    1.373   1_655 S
C298   C300    1.398   .     A
C298   F344    1.359   .     S
C301   F345    1.355   .     S
C301   N326    1.367   .     A
C302   N325    1.367   .     A
C302   F346    1.355   .     S
C302   C477    1.416   .     S
C303   N326    1.366   .     A
C303   F347    1.355   .     S
C304   F348    1.355   .     S
C304   N325    1.366   .     A
C304   C475    1.416   .     S
C305   O334    1.286   .     A
C305   C310    1.443   .     S
C305   O331    1.289   .     A
C306   O333    1.286   .     A
C306   C309    1.443   .     S
C306   O332    1.289   .     A
C307   C317    1.387   .     A
C307   C309    1.404   .     A
C307   F337    1.361   .     S
C308   C318    1.387   .     A
C308   C310    1.404   .     A
C308   F338    1.361   .     S
C309   C311    1.398   .     A
C310   C312    1.398   .     A
C311   H321    1.084   .     S
C311   C313    1.384   .     A
C312   H322    1.084   .     S
C312   C314    1.384   .     A
C313   C319    1.402   .     A
C313   C315    1.412   .     A
C314   C320    1.402   .     A
C314   C316    1.412   .     A
C315   C317    1.412   .     A
C315   C838    1.394   .     S
C316   C318    1.412   .     A
C316   C837    1.394   1_554 S
C319   F339    1.359   .     S
C319   C815    1.387   .     S
C320   F340    1.359   .     S
C320   C816    1.387   1_554 S
N325   Zn335   2.007   .     S
N326   Zn336   2.007   .     S
O327   Zn335   1.993   .     S
O328   Zn336   1.993   .     S
O329   Zn335   1.992   .     S
O330   Zn336   1.992   .     S
O331   Zn335   2.020   .     S
O332   Zn336   2.020   .     S
O333   Zn335   2.027   .     S
O334   Zn336   2.027   .     S
C349   O385    1.280   .     A
C349   O388    1.279   .     A
C349   C358    1.412   .     S
C350   O386    1.280   .     A
C350   C357    1.412   .     S
C350   O387    1.279   .     A
C351   C376    1.401   .     A
C351   H381    1.084   .     S
C351   C899    1.387   1_554 S
C352   H382    1.084   .     S
C352   C375    1.401   .     A
C352   C900    1.387   .     S
C353   C358    1.398   .     A
C353   F399    1.359   .     S
C353   C471    1.373   1_455 S
C354   C357    1.398   .     A
C354   F400    1.359   .     S
C354   C414    1.373   .     S
C355   C357    1.398   .     A
C355   F401    1.359   .     S
C355   C411    1.373   .     S
C356   C358    1.398   .     A
C356   F402    1.359   .     S
C356   C470    1.373   1_455 S
C359   F403    1.355   .     S
C359   N384    1.367   .     A
C360   N383    1.367   .     A
C360   F404    1.355   .     S
C360   C13     1.416   1_565 S
C361   N384    1.366   .     A
C361   F405    1.355   .     S
C362   F406    1.355   .     S
C362   N383    1.366   .     A
C362   C11     1.416   1_565 S
C363   O392    1.286   .     A
C363   C368    1.443   .     S
C363   O389    1.289   .     A
C364   O391    1.286   .     A
C364   C367    1.443   .     S
C364   O390    1.289   .     A
C365   C375    1.387   .     A
C365   C367    1.404   .     A
C365   F395    1.361   .     S
C366   C376    1.387   .     A
C366   C368    1.404   .     A
C366   F396    1.361   .     S
C367   C369    1.398   .     A
C368   C370    1.398   .     A
C369   H379    1.084   .     S
C369   C371    1.384   .     A
C370   H380    1.084   .     S
C370   C372    1.384   .     A
C371   C377    1.402   .     A
C371   C373    1.412   .     A
C372   C378    1.402   .     A
C372   C374    1.412   .     A
C373   C375    1.412   .     A
C373   C896    1.394   .     S
C374   C376    1.412   .     A
C374   C895    1.394   1_554 S
C377   F397    1.359   .     S
C377   C873    1.387   .     S
C378   F398    1.359   .     S
C378   C874    1.387   1_554 S
N383   Zn393   2.007   .     S
N384   Zn394   2.007   .     S
O385   Zn393   1.993   .     S
O386   Zn394   1.993   .     S
O387   Zn393   1.992   .     S
O388   Zn394   1.992   .     S
O389   Zn393   2.020   .     S
O390   Zn394   2.020   .     S
O391   Zn393   2.027   .     S
O392   Zn394   2.027   .     S
C407   O443    1.280   .     A
C407   O446    1.279   .     A
C407   C416    1.412   .     S
C408   O444    1.280   .     A
C408   C415    1.412   .     S
C408   O445    1.279   .     A
C409   C434    1.401   .     A
C409   H439    1.084   .     S
C409   C957    1.387   1_554 S
C410   H440    1.084   .     S
C410   C433    1.401   .     A
C410   C958    1.387   .     S
C411   C416    1.398   .     A
C411   F457    1.359   .     S
C412   C415    1.398   .     A
C412   F458    1.359   .     S
C412   C472    1.373   .     S
C413   C415    1.398   .     A
C413   F459    1.359   .     S
C413   C469    1.373   .     S
C414   C416    1.398   .     A
C414   F460    1.359   .     S
C417   F461    1.355   .     S
C417   N442    1.367   .     A
C418   N441    1.367   .     A
C418   F462    1.355   .     S
C418   C71     1.416   1_565 S
C419   N442    1.366   .     A
C419   F463    1.355   .     S
C420   F464    1.355   .     S
C420   N441    1.366   .     A
C420   C69     1.416   1_565 S
C421   O450    1.286   .     A
C421   C426    1.443   .     S
C421   O447    1.289   .     A
C422   O449    1.286   .     A
C422   C425    1.443   .     S
C422   O448    1.289   .     A
C423   C433    1.387   .     A
C423   C425    1.404   .     A
C423   F453    1.361   .     S
C424   C434    1.387   .     A
C424   C426    1.404   .     A
C424   F454    1.361   .     S
C425   C427    1.398   .     A
C426   C428    1.398   .     A
C427   H437    1.084   .     S
C427   C429    1.384   .     A
C428   H438    1.084   .     S
C428   C430    1.384   .     A
C429   C435    1.402   .     A
C429   C431    1.412   .     A
C430   C436    1.402   .     A
C430   C432    1.412   .     A
C431   C433    1.412   .     A
C431   C954    1.394   .     S
C432   C434    1.412   .     A
C432   C953    1.394   1_554 S
C435   F455    1.359   .     S
C435   C931    1.387   .     S
C436   F456    1.359   .     S
C436   C932    1.387   1_554 S
N441   Zn451   2.007   .     S
N442   Zn452   2.007   .     S
O443   Zn451   1.993   .     S
O444   Zn452   1.993   .     S
O445   Zn451   1.992   .     S
O446   Zn452   1.992   .     S
O447   Zn451   2.020   .     S
O448   Zn452   2.020   .     S
O449   Zn451   2.027   .     S
O450   Zn452   2.027   .     S
C465   O501    1.280   .     A
C465   O504    1.279   .     A
C465   C474    1.412   .     S
C466   O502    1.280   .     A
C466   C473    1.412   .     S
C466   O503    1.279   .     A
C467   C492    1.401   .     A
C467   H497    1.084   .     S
C467   C1015   1.387   1_554 S
C468   H498    1.084   .     S
C468   C491    1.401   .     A
C468   C1016   1.387   .     S
C469   C474    1.398   .     A
C469   F515    1.359   .     S
C470   C473    1.398   .     A
C470   F516    1.359   .     S
C470   C356    1.373   1_655 S
C471   C473    1.398   .     A
C471   F517    1.359   .     S
C471   C353    1.373   1_655 S
C472   C474    1.398   .     A
C472   F518    1.359   .     S
C475   F519    1.355   .     S
C475   N500    1.367   .     A
C476   N499    1.367   .     A
C476   F520    1.355   .     S
C476   C129    1.416   1_565 S
C477   N500    1.366   .     A
C477   F521    1.355   .     S
C478   F522    1.355   .     S
C478   N499    1.366   .     A
C478   C127    1.416   1_565 S
C479   O508    1.286   .     A
C479   C484    1.443   .     S
C479   O505    1.289   .     A
C480   O507    1.286   .     A
C480   C483    1.443   .     S
C480   O506    1.289   .     A
C481   C491    1.387   .     A
C481   C483    1.404   .     A
C481   F511    1.361   .     S
C482   C492    1.387   .     A
C482   C484    1.404   .     A
C482   F512    1.361   .     S
C483   C485    1.398   .     A
C484   C486    1.398   .     A
C485   H495    1.084   .     S
C485   C487    1.384   .     A
C486   H496    1.084   .     S
C486   C488    1.384   .     A
C487   C493    1.402   .     A
C487   C489    1.412   .     A
C488   C494    1.402   .     A
C488   C490    1.412   .     A
C489   C491    1.412   .     A
C489   C1012   1.394   .     S
C490   C492    1.412   .     A
C490   C1011   1.394   1_554 S
C493   F513    1.359   .     S
C493   C989    1.387   .     S
C494   F514    1.359   .     S
C494   C990    1.387   1_554 S
N499   Zn509   2.007   .     S
N500   Zn510   2.007   .     S
O501   Zn509   1.993   .     S
O502   Zn510   1.993   .     S
O503   Zn509   1.992   .     S
O504   Zn510   1.992   .     S
O505   Zn509   2.020   .     S
O506   Zn510   2.020   .     S
O507   Zn509   2.027   .     S
O508   Zn510   2.027   .     S
C523   O559    1.280   .     A
C523   O562    1.279   .     A
C523   C532    1.412   .     S
C524   O560    1.280   .     A
C524   C531    1.412   .     S
C524   O561    1.279   .     A
C525   C550    1.401   .     A
C525   H555    1.084   .     S
C526   H556    1.084   .     S
C526   C549    1.401   .     A
C526   C30     1.387   1_556 S
C527   C532    1.398   .     A
C527   F573    1.359   .     S
C527   C645    1.373   1_455 S
C528   C531    1.398   .     A
C528   F574    1.359   .     S
C528   C588    1.373   .     S
C529   C531    1.398   .     A
C529   F575    1.359   .     S
C529   C585    1.373   .     S
C530   C532    1.398   .     A
C530   F576    1.359   .     S
C530   C644    1.373   1_455 S
C533   F577    1.355   .     S
C533   N558    1.367   .     A
C533   C884    1.416   1_545 S
C534   N557    1.367   .     A
C534   F578    1.355   .     S
C534   C709    1.416   .     S
C535   N558    1.366   .     A
C535   F579    1.355   .     S
C535   C882    1.416   1_545 S
C536   F580    1.355   .     S
C536   N557    1.366   .     A
C536   C707    1.416   .     S
C537   O566    1.286   .     A
C537   C542    1.443   .     S
C537   O563    1.289   .     A
C538   O565    1.286   .     A
C538   C541    1.443   .     S
C538   O564    1.289   .     A
C539   C549    1.387   .     A
C539   C541    1.404   .     A
C539   F569    1.361   .     S
C540   C550    1.387   .     A
C540   C542    1.404   .     A
C540   F570    1.361   .     S
C541   C543    1.398   .     A
C542   C544    1.398   .     A
C543   H553    1.084   .     S
C543   C545    1.384   .     A
C544   H554    1.084   .     S
C544   C546    1.384   .     A
C545   C551    1.402   .     A
C545   C547    1.412   .     A
C546   C552    1.402   .     A
C546   C548    1.412   .     A
C547   C549    1.412   .     A
C547   C26     1.394   1_556 S
C548   C550    1.412   .     A
C551   F571    1.359   .     S
C551   C3      1.387   1_556 S
C552   F572    1.359   .     S
N557   Zn567   2.007   .     S
N558   Zn568   2.007   .     S
O559   Zn567   1.993   .     S
O560   Zn568   1.993   .     S
O561   Zn567   1.992   .     S
O562   Zn568   1.992   .     S
O563   Zn567   2.020   .     S
O564   Zn568   2.020   .     S
O565   Zn567   2.027   .     S
O566   Zn568   2.027   .     S
C581   O617    1.280   .     A
C581   O620    1.279   .     A
C581   C590    1.412   .     S
C582   O618    1.280   .     A
C582   C589    1.412   .     S
C582   O619    1.279   .     A
C583   C608    1.401   .     A
C583   H613    1.084   .     S
C584   H614    1.084   .     S
C584   C607    1.401   .     A
C584   C88     1.387   1_556 S
C585   C590    1.398   .     A
C585   F631    1.359   .     S
C586   C589    1.398   .     A
C586   F632    1.359   .     S
C586   C646    1.373   .     S
C587   C589    1.398   .     A
C587   F633    1.359   .     S
C587   C643    1.373   .     S
C588   C590    1.398   .     A
C588   F634    1.359   .     S
C591   F635    1.355   .     S
C591   N616    1.367   .     A
C591   C942    1.416   1_545 S
C592   N615    1.367   .     A
C592   F636    1.355   .     S
C592   C767    1.416   .     S
C593   N616    1.366   .     A
C593   F637    1.355   .     S
C593   C940    1.416   1_545 S
C594   F638    1.355   .     S
C594   N615    1.366   .     A
C594   C765    1.416   .     S
C595   O624    1.286   .     A
C595   C600    1.443   .     S
C595   O621    1.289   .     A
C596   O623    1.286   .     A
C596   C599    1.443   .     S
C596   O622    1.289   .     A
C597   C607    1.387   .     A
C597   C599    1.404   .     A
C597   F627    1.361   .     S
C598   C608    1.387   .     A
C598   C600    1.404   .     A
C598   F628    1.361   .     S
C599   C601    1.398   .     A
C600   C602    1.398   .     A
C601   H611    1.084   .     S
C601   C603    1.384   .     A
C602   H612    1.084   .     S
C602   C604    1.384   .     A
C603   C609    1.402   .     A
C603   C605    1.412   .     A
C604   C610    1.402   .     A
C604   C606    1.412   .     A
C605   C607    1.412   .     A
C605   C84     1.394   1_556 S
C606   C608    1.412   .     A
C609   F629    1.359   .     S
C609   C61     1.387   1_556 S
C610   F630    1.359   .     S
N615   Zn625   2.007   .     S
N616   Zn626   2.007   .     S
O617   Zn625   1.993   .     S
O618   Zn626   1.993   .     S
O619   Zn625   1.992   .     S
O620   Zn626   1.992   .     S
O621   Zn625   2.020   .     S
O622   Zn626   2.020   .     S
O623   Zn625   2.027   .     S
O624   Zn626   2.027   .     S
C639   O675    1.280   .     A
C639   O678    1.279   .     A
C639   C648    1.412   .     S
C640   O676    1.280   .     A
C640   C647    1.412   .     S
C640   O677    1.279   .     A
C641   C666    1.401   .     A
C641   H671    1.084   .     S
C642   H672    1.084   .     S
C642   C665    1.401   .     A
C642   C146    1.387   1_556 S
C643   C648    1.398   .     A
C643   F689    1.359   .     S
C644   C647    1.398   .     A
C644   F690    1.359   .     S
C644   C530    1.373   1_655 S
C645   C647    1.398   .     A
C645   F691    1.359   .     S
C645   C527    1.373   1_655 S
C646   C648    1.398   .     A
C646   F692    1.359   .     S
C649   F693    1.355   .     S
C649   N674    1.367   .     A
C649   C1000   1.416   1_545 S
C650   N673    1.367   .     A
C650   F694    1.355   .     S
C650   C825    1.416   .     S
C651   N674    1.366   .     A
C651   F695    1.355   .     S
C651   C998    1.416   1_545 S
C652   F696    1.355   .     S
C652   N673    1.366   .     A
C652   C823    1.416   .     S
C653   O682    1.286   .     A
C653   C658    1.443   .     S
C653   O679    1.289   .     A
C654   O681    1.286   .     A
C654   C657    1.443   .     S
C654   O680    1.289   .     A
C655   C665    1.387   .     A
C655   C657    1.404   .     A
C655   F685    1.361   .     S
C656   C666    1.387   .     A
C656   C658    1.404   .     A
C656   F686    1.361   .     S
C657   C659    1.398   .     A
C658   C660    1.398   .     A
C659   H669    1.084   .     S
C659   C661    1.384   .     A
C660   H670    1.084   .     S
C660   C662    1.384   .     A
C661   C667    1.402   .     A
C661   C663    1.412   .     A
C662   C668    1.402   .     A
C662   C664    1.412   .     A
C663   C665    1.412   .     A
C663   C142    1.394   1_556 S
C664   C666    1.412   .     A
C667   F687    1.359   .     S
C667   C119    1.387   1_556 S
C668   F688    1.359   .     S
N673   Zn683   2.007   .     S
N674   Zn684   2.007   .     S
O675   Zn683   1.993   .     S
O676   Zn684   1.993   .     S
O677   Zn683   1.992   .     S
O678   Zn684   1.992   .     S
O679   Zn683   2.020   .     S
O680   Zn684   2.020   .     S
O681   Zn683   2.027   .     S
O682   Zn684   2.027   .     S
C697   O733    1.280   .     A
C697   O736    1.279   .     A
C697   C706    1.412   .     S
C698   O734    1.280   .     A
C698   C705    1.412   .     S
C698   O735    1.279   .     A
C699   C724    1.401   .     A
C699   H729    1.084   .     S
C700   H730    1.084   .     S
C700   C723    1.401   .     A
C700   C204    1.387   1_556 S
C701   C706    1.398   .     A
C701   F747    1.359   .     S
C701   C819    1.373   1_455 S
C702   C705    1.398   .     A
C702   F748    1.359   .     S
C702   C762    1.373   .     S
C703   C705    1.398   .     A
C703   F749    1.359   .     S
C703   C759    1.373   .     S
C704   C706    1.398   .     A
C704   F750    1.359   .     S
C704   C818    1.373   1_455 S
C707   F751    1.355   .     S
C707   N732    1.367   .     A
C708   N731    1.367   .     A
C708   F752    1.355   .     S
C708   C883    1.416   .     S
C709   N732    1.366   .     A
C709   F753    1.355   .     S
C710   F754    1.355   .     S
C710   N731    1.366   .     A
C710   C881    1.416   .     S
C711   O740    1.286   .     A
C711   C716    1.443   .     S
C711   O737    1.289   .     A
C712   O739    1.286   .     A
C712   C715    1.443   .     S
C712   O738    1.289   .     A
C713   C723    1.387   .     A
C713   C715    1.404   .     A
C713   F743    1.361   .     S
C714   C724    1.387   .     A
C714   C716    1.404   .     A
C714   F744    1.361   .     S
C715   C717    1.398   .     A
C716   C718    1.398   .     A
C717   H727    1.084   .     S
C717   C719    1.384   .     A
C718   H728    1.084   .     S
C718   C720    1.384   .     A
C719   C725    1.402   .     A
C719   C721    1.412   .     A
C720   C726    1.402   .     A
C720   C722    1.412   .     A
C721   C723    1.412   .     A
C721   C200    1.394   1_556 S
C722   C724    1.412   .     A
C725   F745    1.359   .     S
C725   C177    1.387   1_556 S
C726   F746    1.359   .     S
N731   Zn741   2.007   .     S
N732   Zn742   2.007   .     S
O733   Zn741   1.993   .     S
O734   Zn742   1.993   .     S
O735   Zn741   1.992   .     S
O736   Zn742   1.992   .     S
O737   Zn741   2.020   .     S
O738   Zn742   2.020   .     S
O739   Zn741   2.027   .     S
O740   Zn742   2.027   .     S
C755   O791    1.280   .     A
C755   O794    1.279   .     A
C755   C764    1.412   .     S
C756   O792    1.280   .     A
C756   C763    1.412   .     S
C756   O793    1.279   .     A
C757   C782    1.401   .     A
C757   H787    1.084   .     S
C758   H788    1.084   .     S
C758   C781    1.401   .     A
C758   C262    1.387   1_556 S
C759   C764    1.398   .     A
C759   F805    1.359   .     S
C760   C763    1.398   .     A
C760   F806    1.359   .     S
C760   C820    1.373   .     S
C761   C763    1.398   .     A
C761   F807    1.359   .     S
C761   C817    1.373   .     S
C762   C764    1.398   .     A
C762   F808    1.359   .     S
C765   F809    1.355   .     S
C765   N790    1.367   .     A
C766   N789    1.367   .     A
C766   F810    1.355   .     S
C766   C941    1.416   .     S
C767   N790    1.366   .     A
C767   F811    1.355   .     S
C768   F812    1.355   .     S
C768   N789    1.366   .     A
C768   C939    1.416   .     S
C769   O798    1.286   .     A
C769   C774    1.443   .     S
C769   O795    1.289   .     A
C770   O797    1.286   .     A
C770   C773    1.443   .     S
C770   O796    1.289   .     A
C771   C781    1.387   .     A
C771   C773    1.404   .     A
C771   F801    1.361   .     S
C772   C782    1.387   .     A
C772   C774    1.404   .     A
C772   F802    1.361   .     S
C773   C775    1.398   .     A
C774   C776    1.398   .     A
C775   H785    1.084   .     S
C775   C777    1.384   .     A
C776   H786    1.084   .     S
C776   C778    1.384   .     A
C777   C783    1.402   .     A
C777   C779    1.412   .     A
C778   C784    1.402   .     A
C778   C780    1.412   .     A
C779   C781    1.412   .     A
C779   C258    1.394   1_556 S
C780   C782    1.412   .     A
C783   F803    1.359   .     S
C783   C235    1.387   1_556 S
C784   F804    1.359   .     S
N789   Zn799   2.007   .     S
N790   Zn800   2.007   .     S
O791   Zn799   1.993   .     S
O792   Zn800   1.993   .     S
O793   Zn799   1.992   .     S
O794   Zn800   1.992   .     S
O795   Zn799   2.020   .     S
O796   Zn800   2.020   .     S
O797   Zn799   2.027   .     S
O798   Zn800   2.027   .     S
C813   O849    1.280   .     A
C813   O852    1.279   .     A
C813   C822    1.412   .     S
C814   O850    1.280   .     A
C814   C821    1.412   .     S
C814   O851    1.279   .     A
C815   C840    1.401   .     A
C815   H845    1.084   .     S
C816   H846    1.084   .     S
C816   C839    1.401   .     A
C816   C320    1.387   1_556 S
C817   C822    1.398   .     A
C817   F863    1.359   .     S
C818   C821    1.398   .     A
C818   F864    1.359   .     S
C818   C704    1.373   1_655 S
C819   C821    1.398   .     A
C819   F865    1.359   .     S
C819   C701    1.373   1_655 S
C820   C822    1.398   .     A
C820   F866    1.359   .     S
C823   F867    1.355   .     S
C823   N848    1.367   .     A
C824   N847    1.367   .     A
C824   F868    1.355   .     S
C824   C999    1.416   .     S
C825   N848    1.366   .     A
C825   F869    1.355   .     S
C826   F870    1.355   .     S
C826   N847    1.366   .     A
C826   C997    1.416   .     S
C827   O856    1.286   .     A
C827   C832    1.443   .     S
C827   O853    1.289   .     A
C828   O855    1.286   .     A
C828   C831    1.443   .     S
C828   O854    1.289   .     A
C829   C839    1.387   .     A
C829   C831    1.404   .     A
C829   F859    1.361   .     S
C830   C840    1.387   .     A
C830   C832    1.404   .     A
C830   F860    1.361   .     S
C831   C833    1.398   .     A
C832   C834    1.398   .     A
C833   H843    1.084   .     S
C833   C835    1.384   .     A
C834   H844    1.084   .     S
C834   C836    1.384   .     A
C835   C841    1.402   .     A
C835   C837    1.412   .     A
C836   C842    1.402   .     A
C836   C838    1.412   .     A
C837   C839    1.412   .     A
C837   C316    1.394   1_556 S
C838   C840    1.412   .     A
C841   F861    1.359   .     S
C841   C293    1.387   1_556 S
C842   F862    1.359   .     S
N847   Zn857   2.007   .     S
N848   Zn858   2.007   .     S
O849   Zn857   1.993   .     S
O850   Zn858   1.993   .     S
O851   Zn857   1.992   .     S
O852   Zn858   1.992   .     S
O853   Zn857   2.020   .     S
O854   Zn858   2.020   .     S
O855   Zn857   2.027   .     S
O856   Zn858   2.027   .     S
C871   O907    1.280   .     A
C871   O910    1.279   .     A
C871   C880    1.412   .     S
C872   O908    1.280   .     A
C872   C879    1.412   .     S
C872   O909    1.279   .     A
C873   C898    1.401   .     A
C873   H903    1.084   .     S
C874   H904    1.084   .     S
C874   C897    1.401   .     A
C874   C378    1.387   1_556 S
C875   C880    1.398   .     A
C875   F921    1.359   .     S
C875   C993    1.373   1_455 S
C876   C879    1.398   .     A
C876   F922    1.359   .     S
C876   C936    1.373   .     S
C877   C879    1.398   .     A
C877   F923    1.359   .     S
C877   C933    1.373   .     S
C878   C880    1.398   .     A
C878   F924    1.359   .     S
C878   C992    1.373   1_455 S
C881   F925    1.355   .     S
C881   N906    1.367   .     A
C882   N905    1.367   .     A
C882   F926    1.355   .     S
C882   C535    1.416   1_565 S
C883   N906    1.366   .     A
C883   F927    1.355   .     S
C884   F928    1.355   .     S
C884   N905    1.366   .     A
C884   C533    1.416   1_565 S
C885   O914    1.286   .     A
C885   C890    1.443   .     S
C885   O911    1.289   .     A
C886   O913    1.286   .     A
C886   C889    1.443   .     S
C886   O912    1.289   .     A
C887   C897    1.387   .     A
C887   C889    1.404   .     A
C887   F917    1.361   .     S
C888   C898    1.387   .     A
C888   C890    1.404   .     A
C888   F918    1.361   .     S
C889   C891    1.398   .     A
C890   C892    1.398   .     A
C891   H901    1.084   .     S
C891   C893    1.384   .     A
C892   H902    1.084   .     S
C892   C894    1.384   .     A
C893   C899    1.402   .     A
C893   C895    1.412   .     A
C894   C900    1.402   .     A
C894   C896    1.412   .     A
C895   C897    1.412   .     A
C895   C374    1.394   1_556 S
C896   C898    1.412   .     A
C899   F919    1.359   .     S
C899   C351    1.387   1_556 S
C900   F920    1.359   .     S
N905   Zn915   2.007   .     S
N906   Zn916   2.007   .     S
O907   Zn915   1.993   .     S
O908   Zn916   1.993   .     S
O909   Zn915   1.992   .     S
O910   Zn916   1.992   .     S
O911   Zn915   2.020   .     S
O912   Zn916   2.020   .     S
O913   Zn915   2.027   .     S
O914   Zn916   2.027   .     S
C929   O965    1.280   .     A
C929   O968    1.279   .     A
C929   C938    1.412   .     S
C930   O966    1.280   .     A
C930   C937    1.412   .     S
C930   O967    1.279   .     A
C931   C956    1.401   .     A
C931   H961    1.084   .     S
C932   H962    1.084   .     S
C932   C955    1.401   .     A
C932   C436    1.387   1_556 S
C933   C938    1.398   .     A
C933   F979    1.359   .     S
C934   C937    1.398   .     A
C934   F980    1.359   .     S
C934   C994    1.373   .     S
C935   C937    1.398   .     A
C935   F981    1.359   .     S
C935   C991    1.373   .     S
C936   C938    1.398   .     A
C936   F982    1.359   .     S
C939   F983    1.355   .     S
C939   N964    1.367   .     A
C940   N963    1.367   .     A
C940   F984    1.355   .     S
C940   C593    1.416   1_565 S
C941   N964    1.366   .     A
C941   F985    1.355   .     S
C942   F986    1.355   .     S
C942   N963    1.366   .     A
C942   C591    1.416   1_565 S
C943   O972    1.286   .     A
C943   C948    1.443   .     S
C943   O969    1.289   .     A
C944   O971    1.286   .     A
C944   C947    1.443   .     S
C944   O970    1.289   .     A
C945   C955    1.387   .     A
C945   C947    1.404   .     A
C945   F975    1.361   .     S
C946   C956    1.387   .     A
C946   C948    1.404   .     A
C946   F976    1.361   .     S
C947   C949    1.398   .     A
C948   C950    1.398   .     A
C949   H959    1.084   .     S
C949   C951    1.384   .     A
C950   H960    1.084   .     S
C950   C952    1.384   .     A
C951   C957    1.402   .     A
C951   C953    1.412   .     A
C952   C958    1.402   .     A
C952   C954    1.412   .     A
C953   C955    1.412   .     A
C953   C432    1.394   1_556 S
C954   C956    1.412   .     A
C957   F977    1.359   .     S
C957   C409    1.387   1_556 S
C958   F978    1.359   .     S
N963   Zn973   2.007   .     S
N964   Zn974   2.007   .     S
O965   Zn973   1.993   .     S
O966   Zn974   1.993   .     S
O967   Zn973   1.992   .     S
O968   Zn974   1.992   .     S
O969   Zn973   2.020   .     S
O970   Zn974   2.020   .     S
O971   Zn973   2.027   .     S
O972   Zn974   2.027   .     S
C987   O1023   1.280   .     A
C987   O1026   1.279   .     A
C987   C996    1.412   .     S
C988   O1024   1.280   .     A
C988   C995    1.412   .     S
C988   O1025   1.279   .     A
C989   C1014   1.401   .     A
C989   H1019   1.084   .     S
C990   H1020   1.084   .     S
C990   C1013   1.401   .     A
C990   C494    1.387   1_556 S
C991   C996    1.398   .     A
C991   F1037   1.359   .     S
C992   C995    1.398   .     A
C992   F1038   1.359   .     S
C992   C878    1.373   1_655 S
C993   C995    1.398   .     A
C993   F1039   1.359   .     S
C993   C875    1.373   1_655 S
C994   C996    1.398   .     A
C994   F1040   1.359   .     S
C997   F1041   1.355   .     S
C997   N1022   1.367   .     A
C998   N1021   1.367   .     A
C998   F1042   1.355   .     S
C998   C651    1.416   1_565 S
C999   N1022   1.366   .     A
C999   F1043   1.355   .     S
C1000  F1044   1.355   .     S
C1000  N1021   1.366   .     A
C1000  C649    1.416   1_565 S
C1001  O1030   1.286   .     A
C1001  C1006   1.443   .     S
C1001  O1027   1.289   .     A
C1002  O1029   1.286   .     A
C1002  C1005   1.443   .     S
C1002  O1028   1.289   .     A
C1003  C1013   1.387   .     A
C1003  C1005   1.404   .     A
C1003  F1033   1.361   .     S
C1004  C1014   1.387   .     A
C1004  C1006   1.404   .     A
C1004  F1034   1.361   .     S
C1005  C1007   1.398   .     A
C1006  C1008   1.398   .     A
C1007  H1017   1.084   .     S
C1007  C1009   1.384   .     A
C1008  H1018   1.084   .     S
C1008  C1010   1.384   .     A
C1009  C1015   1.402   .     A
C1009  C1011   1.412   .     A
C1010  C1016   1.402   .     A
C1010  C1012   1.412   .     A
C1011  C1013   1.412   .     A
C1011  C490    1.394   1_556 S
C1012  C1014   1.412   .     A
C1015  F1035   1.359   .     S
C1015  C467    1.387   1_556 S
C1016  F1036   1.359   .     S
N1021  Zn1031  2.007   .     S
N1022  Zn1032  2.007   .     S
O1023  Zn1031  1.993   .     S
O1024  Zn1032  1.993   .     S
O1025  Zn1031  1.992   .     S
O1026  Zn1032  1.992   .     S
O1027  Zn1031  2.020   .     S
O1028  Zn1032  2.020   .     S
O1029  Zn1031  2.027   .     S
O1030  Zn1032  2.027   .     S
