data_str_m3_o1_o2_pcu_sym.122
_audit_creation_date              2020-01-03
_audit_creation_method            'Materials Studio'
_symmetry_space_group_name_H-M    'P1'
_symmetry_Int_Tables_number       1
_symmetry_cell_setting            triclinic
loop_
_symmetry_equiv_pos_as_xyz
  x,y,z
_cell_length_a                    32.0864
_cell_length_b                    29.6632
_cell_length_c                    30.3666
_cell_angle_alpha                 89.9736
_cell_angle_beta                  93.8166
_cell_angle_gamma                 89.9860
loop_
_atom_site_label
_atom_site_type_symbol
_atom_site_fract_x
_atom_site_fract_y
_atom_site_fract_z
_atom_site_U_iso_or_equiv
_atom_site_adp_type
_atom_site_occupancy
C1     C     0.08705   0.16654   0.25506   0.00000  Uiso   1.00
C2     C     0.24629   0.16654   0.24496   0.00000  Uiso   1.00
C3     C     0.16848   0.16638   0.16390   0.00000  Uiso   1.00
C4     C     0.16483   0.16637   0.33609   0.00000  Uiso   1.00
C5     C     0.19469   0.02403   0.27707   0.00000  Uiso   1.00
C6     C     0.13743   0.30962   0.22439   0.00000  Uiso   1.00
C7     C     0.13864   0.02406   0.22294   0.00000  Uiso   1.00
C8     C     0.19591   0.30958   0.27561   0.00000  Uiso   1.00
C9     C     0.02097   0.12458   0.25692   0.00000  Uiso   1.00
C10    C     0.31269   0.20694   0.24215   0.00000  Uiso   1.00
C11    C     0.31241   0.12458   0.24322   0.00000  Uiso   1.00
C12    C     0.02064   0.20694   0.25789   0.00000  Uiso   1.00
C13    C     0.18265   0.19853   0.04562   0.00000  Uiso   1.00
C14    C     0.16910   0.12004   0.45129   0.00000  Uiso   1.00
C15    C     0.15033   0.19846   0.45429   0.00000  Uiso   1.00
C16    C     0.16417   0.12003   0.04875   0.00000  Uiso   1.00
C17    C     0.17963   0.20306   0.09071   0.00000  Uiso   1.00
C18    C     0.16337   0.12154   0.40575   0.00000  Uiso   1.00
C19    C     0.15343   0.20300   0.40921   0.00000  Uiso   1.00
C20    C     0.16995   0.12156   0.09429   0.00000  Uiso   1.00
C21    C     0.17264   0.16412   0.11603   0.00000  Uiso   1.00
C22    C     0.16060   0.16409   0.38396   0.00000  Uiso   1.00
C23    C     0.17001   0.15880   0.02403   0.00000  Uiso   1.00
C24    C     0.16308   0.15878   0.47595   0.00000  Uiso   1.00
C25    C     0.29079   0.16595   0.24011   0.00000  Uiso   1.00
C26    C     0.04256   0.16596   0.25997   0.00000  Uiso   1.00
H27    H     0.19236   0.22737   0.02725   0.00000  Uiso   1.00
H28    H     0.17721   0.08810   0.46673   0.00000  Uiso   1.00
H29    H     0.14051   0.22729   0.47261   0.00000  Uiso   1.00
H30    H     0.15614   0.08806   0.03335   0.00000  Uiso   1.00
N31    N     0.16667   0.28573   0.25000   0.00000  Uiso   1.00
N32    N     0.16667   0.04760   0.25000   0.00000  Uiso   1.00
O33    O     0.10559   0.20487   0.24999   0.00000  Uiso   1.00
O34    O     0.22774   0.12846   0.25000   0.00000  Uiso   1.00
O35    O     0.22774   0.20487   0.25000   0.00000  Uiso   1.00
O36    O     0.10559   0.12846   0.24999   0.00000  Uiso   1.00
O37    O     0.16666   0.20489   0.18453   0.00000  Uiso   1.00
O38    O     0.16667   0.12845   0.31547   0.00000  Uiso   1.00
O39    O     0.16667   0.20489   0.31547   0.00000  Uiso   1.00
O40    O     0.16666   0.12845   0.18453   0.00000  Uiso   1.00
Zn41   Zn    0.16667   0.21771   0.25000   0.00000  Uiso   1.00
Zn42   Zn    0.16667   0.11563   0.25000   0.00000  Uiso   1.00
Br43   Br    0.23245   0.05553   0.31816   0.00000  Uiso   1.00
Br44   Br    0.09300   0.27939   0.19091   0.00000  Uiso   1.00
Br45   Br    0.10086   0.05562   0.18185   0.00000  Uiso   1.00
Br46   Br    0.24034   0.27931   0.30910   0.00000  Uiso   1.00
O47    O     0.18650   0.24515   0.10936   0.00000  Uiso   1.00
C48    C     0.14920   0.27092   0.10472   0.00000  Uiso   1.00
H49    H     0.15318   0.29930   0.12844   0.00000  Uiso   1.00
H50    H     0.12170   0.25070   0.11339   0.00000  Uiso   1.00
C51    C     0.14000   0.29083   0.05825   0.00000  Uiso   1.00
H52    H     0.16906   0.30321   0.04459   0.00000  Uiso   1.00
H53    H     0.12624   0.26433   0.03609   0.00000  Uiso   1.00
C54    C     0.10826   0.32913   0.05849   0.00000  Uiso   1.00
H55    H     0.10222   0.00912   0.02447   0.00000  Uiso   1.00
H56    H     0.07838   0.31673   0.07052   0.00000  Uiso   1.00
H57    H     0.12028   0.02360   0.08009   0.00000  Uiso   1.00
O58    O     0.16247   0.08089   0.38343   0.00000  Uiso   1.00
C59    C     0.12051   0.06909   0.37099   0.00000  Uiso   1.00
H60    H     0.12126   0.04458   0.34338   0.00000  Uiso   1.00
H61    H     0.10157   0.09842   0.35820   0.00000  Uiso   1.00
C62    C     0.09927   0.04657   0.40909   0.00000  Uiso   1.00
H63    H     0.11889   0.01835   0.42225   0.00000  Uiso   1.00
H64    H     0.09563   0.07126   0.43605   0.00000  Uiso   1.00
C65    C     0.05624   0.02829   0.39396   0.00000  Uiso   1.00
H66    H     0.03556   0.05614   0.38137   0.00000  Uiso   1.00
H67    H     0.04190   0.01207   0.42224   0.00000  Uiso   1.00
H68    H     0.05893   0.00272   0.36757   0.00000  Uiso   1.00
O69    O     0.14656   0.24509   0.39051   0.00000  Uiso   1.00
C70    C     0.18387   0.27082   0.39511   0.00000  Uiso   1.00
H71    H     0.17988   0.29925   0.37142   0.00000  Uiso   1.00
H72    H     0.21134   0.25058   0.38639   0.00000  Uiso   1.00
C73    C     0.19314   0.29060   0.44159   0.00000  Uiso   1.00
H74    H     0.16410   0.30296   0.45529   0.00000  Uiso   1.00
H75    H     0.20693   0.26404   0.46369   0.00000  Uiso   1.00
C76    C     0.22489   0.32887   0.44138   0.00000  Uiso   1.00
H77    H     0.23097   0.00875   0.47543   0.00000  Uiso   1.00
H78    H     0.25475   0.31648   0.42929   0.00000  Uiso   1.00
H79    H     0.21285   0.02340   0.41985   0.00000  Uiso   1.00
O80    O     0.17098   0.08091   0.11666   0.00000  Uiso   1.00
C81    C     0.21298   0.06929   0.12921   0.00000  Uiso   1.00
H82    H     0.21235   0.04555   0.15747   0.00000  Uiso   1.00
H83    H     0.23207   0.09885   0.14110   0.00000  Uiso   1.00
C84    C     0.23390   0.04557   0.09161   0.00000  Uiso   1.00
H85    H     0.21464   0.01641   0.08020   0.00000  Uiso   1.00
H86    H     0.23649   0.06910   0.06347   0.00000  Uiso   1.00
C87    C     0.27751   0.02879   0.10655   0.00000  Uiso   1.00
H88    H     0.29780   0.05752   0.11759   0.00000  Uiso   1.00
H89    H     0.29165   0.01175   0.07861   0.00000  Uiso   1.00
H90    H     0.27583   0.00425   0.13402   0.00000  Uiso   1.00
Br91   Br    0.04524   0.06811   0.27804   0.00000  Uiso   1.00
Br92   Br    0.29054   0.26131   0.21434   0.00000  Uiso   1.00
Br93   Br    0.28819   0.06812   0.22214   0.00000  Uiso   1.00
Br94   Br    0.04277   0.26131   0.28564   0.00000  Uiso   1.00
C95    C     0.42039   0.16654   0.25506   0.00000  Uiso   1.00
C96    C     0.57962   0.16654   0.24496   0.00000  Uiso   1.00
C97    C     0.50182   0.16638   0.16390   0.00000  Uiso   1.00
C98    C     0.49816   0.16637   0.33609   0.00000  Uiso   1.00
C99    C     0.52803   0.02403   0.27707   0.00000  Uiso   1.00
C100   C     0.47076   0.30962   0.22439   0.00000  Uiso   1.00
C101   C     0.47197   0.02406   0.22294   0.00000  Uiso   1.00
C102   C     0.52924   0.30958   0.27561   0.00000  Uiso   1.00
C103   C     0.35430   0.12458   0.25692   0.00000  Uiso   1.00
C104   C     0.64602   0.20694   0.24215   0.00000  Uiso   1.00
C105   C     0.64574   0.12458   0.24322   0.00000  Uiso   1.00
C106   C     0.35397   0.20694   0.25789   0.00000  Uiso   1.00
C107   C     0.51598   0.19853   0.04562   0.00000  Uiso   1.00
C108   C     0.50243   0.12004   0.45129   0.00000  Uiso   1.00
C109   C     0.48366   0.19846   0.45429   0.00000  Uiso   1.00
C110   C     0.49750   0.12003   0.04875   0.00000  Uiso   1.00
C111   C     0.51297   0.20306   0.09071   0.00000  Uiso   1.00
C112   C     0.49671   0.12154   0.40575   0.00000  Uiso   1.00
C113   C     0.48676   0.20300   0.40921   0.00000  Uiso   1.00
C114   C     0.50328   0.12156   0.09429   0.00000  Uiso   1.00
C115   C     0.50597   0.16412   0.11603   0.00000  Uiso   1.00
C116   C     0.49393   0.16409   0.38396   0.00000  Uiso   1.00
C117   C     0.50334   0.15880   0.02403   0.00000  Uiso   1.00
C118   C     0.49641   0.15878   0.47595   0.00000  Uiso   1.00
C119   C     0.62413   0.16595   0.24011   0.00000  Uiso   1.00
C120   C     0.37589   0.16596   0.25997   0.00000  Uiso   1.00
H121   H     0.52570   0.22737   0.02725   0.00000  Uiso   1.00
H122   H     0.51055   0.08810   0.46673   0.00000  Uiso   1.00
H123   H     0.47384   0.22729   0.47261   0.00000  Uiso   1.00
H124   H     0.48948   0.08806   0.03335   0.00000  Uiso   1.00
N125   N     0.50000   0.28573   0.25000   0.00000  Uiso   1.00
N126   N     0.50000   0.04760   0.25000   0.00000  Uiso   1.00
O127   O     0.43892   0.20487   0.24999   0.00000  Uiso   1.00
O128   O     0.56108   0.12846   0.25000   0.00000  Uiso   1.00
O129   O     0.56108   0.20487   0.25000   0.00000  Uiso   1.00
O130   O     0.43892   0.12846   0.24999   0.00000  Uiso   1.00
O131   O     0.50000   0.20489   0.18453   0.00000  Uiso   1.00
O132   O     0.50000   0.12845   0.31547   0.00000  Uiso   1.00
O133   O     0.50000   0.20489   0.31547   0.00000  Uiso   1.00
O134   O     0.50000   0.12845   0.18453   0.00000  Uiso   1.00
Zn135  Zn    0.50000   0.21771   0.25000   0.00000  Uiso   1.00
Zn136  Zn    0.50000   0.11563   0.25000   0.00000  Uiso   1.00
Br137  Br    0.56578   0.05553   0.31816   0.00000  Uiso   1.00
Br138  Br    0.42633   0.27939   0.19091   0.00000  Uiso   1.00
Br139  Br    0.43419   0.05562   0.18185   0.00000  Uiso   1.00
Br140  Br    0.57368   0.27931   0.30910   0.00000  Uiso   1.00
O141   O     0.51983   0.24515   0.10936   0.00000  Uiso   1.00
C142   C     0.48254   0.27092   0.10472   0.00000  Uiso   1.00
H143   H     0.48651   0.29930   0.12844   0.00000  Uiso   1.00
H144   H     0.45504   0.25070   0.11339   0.00000  Uiso   1.00
C145   C     0.47334   0.29083   0.05825   0.00000  Uiso   1.00
H146   H     0.50240   0.30321   0.04459   0.00000  Uiso   1.00
H147   H     0.45957   0.26433   0.03609   0.00000  Uiso   1.00
C148   C     0.44159   0.32913   0.05849   0.00000  Uiso   1.00
H149   H     0.43556   0.00912   0.02447   0.00000  Uiso   1.00
H150   H     0.41172   0.31673   0.07052   0.00000  Uiso   1.00
H151   H     0.45362   0.02360   0.08009   0.00000  Uiso   1.00
O152   O     0.49581   0.08089   0.38343   0.00000  Uiso   1.00
C153   C     0.45384   0.06909   0.37099   0.00000  Uiso   1.00
H154   H     0.45459   0.04458   0.34338   0.00000  Uiso   1.00
H155   H     0.43490   0.09842   0.35820   0.00000  Uiso   1.00
C156   C     0.43260   0.04657   0.40909   0.00000  Uiso   1.00
H157   H     0.45222   0.01835   0.42225   0.00000  Uiso   1.00
H158   H     0.42896   0.07126   0.43605   0.00000  Uiso   1.00
C159   C     0.38957   0.02829   0.39396   0.00000  Uiso   1.00
H160   H     0.36890   0.05614   0.38137   0.00000  Uiso   1.00
H161   H     0.37524   0.01207   0.42224   0.00000  Uiso   1.00
H162   H     0.39226   0.00272   0.36757   0.00000  Uiso   1.00
O163   O     0.47990   0.24509   0.39051   0.00000  Uiso   1.00
C164   C     0.51720   0.27082   0.39511   0.00000  Uiso   1.00
H165   H     0.51322   0.29925   0.37142   0.00000  Uiso   1.00
H166   H     0.54467   0.25058   0.38639   0.00000  Uiso   1.00
C167   C     0.52647   0.29060   0.44159   0.00000  Uiso   1.00
H168   H     0.49743   0.30296   0.45529   0.00000  Uiso   1.00
H169   H     0.54026   0.26404   0.46369   0.00000  Uiso   1.00
C170   C     0.55823   0.32887   0.44138   0.00000  Uiso   1.00
H171   H     0.56431   0.00875   0.47543   0.00000  Uiso   1.00
H172   H     0.58808   0.31648   0.42929   0.00000  Uiso   1.00
H173   H     0.54618   0.02340   0.41985   0.00000  Uiso   1.00
O174   O     0.50431   0.08091   0.11666   0.00000  Uiso   1.00
C175   C     0.54631   0.06929   0.12921   0.00000  Uiso   1.00
H176   H     0.54569   0.04555   0.15747   0.00000  Uiso   1.00
H177   H     0.56541   0.09885   0.14110   0.00000  Uiso   1.00
C178   C     0.56723   0.04557   0.09161   0.00000  Uiso   1.00
H179   H     0.54797   0.01641   0.08020   0.00000  Uiso   1.00
H180   H     0.56982   0.06910   0.06347   0.00000  Uiso   1.00
C181   C     0.61084   0.02879   0.10655   0.00000  Uiso   1.00
H182   H     0.63113   0.05752   0.11759   0.00000  Uiso   1.00
H183   H     0.62498   0.01175   0.07861   0.00000  Uiso   1.00
H184   H     0.60917   0.00425   0.13402   0.00000  Uiso   1.00
Br185  Br    0.37858   0.06811   0.27804   0.00000  Uiso   1.00
Br186  Br    0.62387   0.26131   0.21434   0.00000  Uiso   1.00
Br187  Br    0.62152   0.06812   0.22214   0.00000  Uiso   1.00
Br188  Br    0.37610   0.26131   0.28564   0.00000  Uiso   1.00
C189   C     0.75372   0.16654   0.25506   0.00000  Uiso   1.00
C190   C     0.91295   0.16654   0.24496   0.00000  Uiso   1.00
C191   C     0.83515   0.16638   0.16390   0.00000  Uiso   1.00
C192   C     0.83150   0.16637   0.33609   0.00000  Uiso   1.00
C193   C     0.86136   0.02403   0.27707   0.00000  Uiso   1.00
C194   C     0.80409   0.30962   0.22439   0.00000  Uiso   1.00
C195   C     0.80530   0.02406   0.22294   0.00000  Uiso   1.00
C196   C     0.86257   0.30958   0.27561   0.00000  Uiso   1.00
C197   C     0.68763   0.12458   0.25692   0.00000  Uiso   1.00
C198   C     0.97936   0.20694   0.24215   0.00000  Uiso   1.00
C199   C     0.97908   0.12458   0.24322   0.00000  Uiso   1.00
C200   C     0.68731   0.20694   0.25789   0.00000  Uiso   1.00
C201   C     0.84931   0.19853   0.04562   0.00000  Uiso   1.00
C202   C     0.83577   0.12004   0.45129   0.00000  Uiso   1.00
C203   C     0.81700   0.19846   0.45429   0.00000  Uiso   1.00
C204   C     0.83084   0.12003   0.04875   0.00000  Uiso   1.00
C205   C     0.84630   0.20306   0.09071   0.00000  Uiso   1.00
C206   C     0.83004   0.12154   0.40575   0.00000  Uiso   1.00
C207   C     0.82010   0.20300   0.40921   0.00000  Uiso   1.00
C208   C     0.83661   0.12156   0.09429   0.00000  Uiso   1.00
C209   C     0.83931   0.16412   0.11603   0.00000  Uiso   1.00
C210   C     0.82727   0.16409   0.38396   0.00000  Uiso   1.00
C211   C     0.83668   0.15880   0.02403   0.00000  Uiso   1.00
C212   C     0.82975   0.15878   0.47595   0.00000  Uiso   1.00
C213   C     0.95746   0.16595   0.24011   0.00000  Uiso   1.00
C214   C     0.70923   0.16596   0.25997   0.00000  Uiso   1.00
H215   H     0.85903   0.22737   0.02725   0.00000  Uiso   1.00
H216   H     0.84388   0.08810   0.46673   0.00000  Uiso   1.00
H217   H     0.80718   0.22729   0.47261   0.00000  Uiso   1.00
H218   H     0.82281   0.08806   0.03335   0.00000  Uiso   1.00
N219   N     0.83333   0.28573   0.25000   0.00000  Uiso   1.00
N220   N     0.83333   0.04760   0.25000   0.00000  Uiso   1.00
O221   O     0.77226   0.20487   0.24999   0.00000  Uiso   1.00
O222   O     0.89441   0.12846   0.25000   0.00000  Uiso   1.00
O223   O     0.89441   0.20487   0.25000   0.00000  Uiso   1.00
O224   O     0.77226   0.12846   0.24999   0.00000  Uiso   1.00
O225   O     0.83333   0.20489   0.18453   0.00000  Uiso   1.00
O226   O     0.83334   0.12845   0.31547   0.00000  Uiso   1.00
O227   O     0.83334   0.20489   0.31547   0.00000  Uiso   1.00
O228   O     0.83333   0.12845   0.18453   0.00000  Uiso   1.00
Zn229  Zn    0.83333   0.21771   0.25000   0.00000  Uiso   1.00
Zn230  Zn    0.83333   0.11563   0.25000   0.00000  Uiso   1.00
Br231  Br    0.89911   0.05553   0.31816   0.00000  Uiso   1.00
Br232  Br    0.75967   0.27939   0.19091   0.00000  Uiso   1.00
Br233  Br    0.76753   0.05562   0.18185   0.00000  Uiso   1.00
Br234  Br    0.90701   0.27931   0.30910   0.00000  Uiso   1.00
O235   O     0.85317   0.24515   0.10936   0.00000  Uiso   1.00
C236   C     0.81587   0.27092   0.10472   0.00000  Uiso   1.00
H237   H     0.81984   0.29930   0.12844   0.00000  Uiso   1.00
H238   H     0.78837   0.25070   0.11339   0.00000  Uiso   1.00
C239   C     0.80667   0.29083   0.05825   0.00000  Uiso   1.00
H240   H     0.83573   0.30321   0.04459   0.00000  Uiso   1.00
H241   H     0.79290   0.26433   0.03609   0.00000  Uiso   1.00
C242   C     0.77492   0.32913   0.05849   0.00000  Uiso   1.00
H243   H     0.76889   0.00912   0.02447   0.00000  Uiso   1.00
H244   H     0.74505   0.31673   0.07052   0.00000  Uiso   1.00
H245   H     0.78695   0.02360   0.08009   0.00000  Uiso   1.00
O246   O     0.82914   0.08089   0.38343   0.00000  Uiso   1.00
C247   C     0.78718   0.06909   0.37099   0.00000  Uiso   1.00
H248   H     0.78793   0.04458   0.34338   0.00000  Uiso   1.00
H249   H     0.76823   0.09842   0.35820   0.00000  Uiso   1.00
C250   C     0.76593   0.04657   0.40909   0.00000  Uiso   1.00
H251   H     0.78556   0.01835   0.42225   0.00000  Uiso   1.00
H252   H     0.76229   0.07126   0.43605   0.00000  Uiso   1.00
C253   C     0.72290   0.02829   0.39396   0.00000  Uiso   1.00
H254   H     0.70223   0.05614   0.38137   0.00000  Uiso   1.00
H255   H     0.70857   0.01207   0.42224   0.00000  Uiso   1.00
H256   H     0.72559   0.00272   0.36757   0.00000  Uiso   1.00
O257   O     0.81323   0.24509   0.39051   0.00000  Uiso   1.00
C258   C     0.85054   0.27082   0.39511   0.00000  Uiso   1.00
H259   H     0.84655   0.29925   0.37142   0.00000  Uiso   1.00
H260   H     0.87801   0.25058   0.38639   0.00000  Uiso   1.00
C261   C     0.85981   0.29060   0.44159   0.00000  Uiso   1.00
H262   H     0.83076   0.30296   0.45529   0.00000  Uiso   1.00
H263   H     0.87359   0.26404   0.46369   0.00000  Uiso   1.00
C264   C     0.89156   0.32887   0.44138   0.00000  Uiso   1.00
H265   H     0.89764   0.00875   0.47543   0.00000  Uiso   1.00
H266   H     0.92141   0.31648   0.42929   0.00000  Uiso   1.00
H267   H     0.87952   0.02340   0.41985   0.00000  Uiso   1.00
O268   O     0.83765   0.08091   0.11666   0.00000  Uiso   1.00
C269   C     0.87964   0.06929   0.12921   0.00000  Uiso   1.00
H270   H     0.87902   0.04555   0.15747   0.00000  Uiso   1.00
H271   H     0.89874   0.09885   0.14110   0.00000  Uiso   1.00
C272   C     0.90057   0.04557   0.09161   0.00000  Uiso   1.00
H273   H     0.88131   0.01641   0.08020   0.00000  Uiso   1.00
H274   H     0.90315   0.06910   0.06347   0.00000  Uiso   1.00
C275   C     0.94418   0.02879   0.10655   0.00000  Uiso   1.00
H276   H     0.96447   0.05752   0.11759   0.00000  Uiso   1.00
H277   H     0.95831   0.01175   0.07861   0.00000  Uiso   1.00
H278   H     0.94250   0.00425   0.13402   0.00000  Uiso   1.00
Br279  Br    0.71191   0.06811   0.27804   0.00000  Uiso   1.00
Br280  Br    0.95721   0.26131   0.21434   0.00000  Uiso   1.00
Br281  Br    0.95485   0.06812   0.22214   0.00000  Uiso   1.00
Br282  Br    0.70943   0.26131   0.28564   0.00000  Uiso   1.00
C283   C     0.08705   0.49988   0.25506   0.00000  Uiso   1.00
C284   C     0.24629   0.49987   0.24496   0.00000  Uiso   1.00
C285   C     0.16848   0.49971   0.16390   0.00000  Uiso   1.00
C286   C     0.16483   0.49970   0.33609   0.00000  Uiso   1.00
C287   C     0.19469   0.35736   0.27707   0.00000  Uiso   1.00
C288   C     0.13743   0.64295   0.22439   0.00000  Uiso   1.00
C289   C     0.13864   0.35740   0.22294   0.00000  Uiso   1.00
C290   C     0.19591   0.64291   0.27561   0.00000  Uiso   1.00
C291   C     0.02097   0.45792   0.25692   0.00000  Uiso   1.00
C292   C     0.31269   0.54027   0.24215   0.00000  Uiso   1.00
C293   C     0.31241   0.45791   0.24322   0.00000  Uiso   1.00
C294   C     0.02064   0.54027   0.25789   0.00000  Uiso   1.00
C295   C     0.18265   0.53186   0.04562   0.00000  Uiso   1.00
C296   C     0.16910   0.45337   0.45129   0.00000  Uiso   1.00
C297   C     0.15033   0.53180   0.45429   0.00000  Uiso   1.00
C298   C     0.16417   0.45337   0.04875   0.00000  Uiso   1.00
C299   C     0.17963   0.53640   0.09071   0.00000  Uiso   1.00
C300   C     0.16337   0.45487   0.40575   0.00000  Uiso   1.00
C301   C     0.15343   0.53634   0.40921   0.00000  Uiso   1.00
C302   C     0.16995   0.45489   0.09429   0.00000  Uiso   1.00
C303   C     0.17264   0.49746   0.11603   0.00000  Uiso   1.00
C304   C     0.16060   0.49742   0.38396   0.00000  Uiso   1.00
C305   C     0.17001   0.49213   0.02403   0.00000  Uiso   1.00
C306   C     0.16308   0.49211   0.47595   0.00000  Uiso   1.00
C307   C     0.29079   0.49928   0.24011   0.00000  Uiso   1.00
C308   C     0.04256   0.49929   0.25997   0.00000  Uiso   1.00
H309   H     0.19236   0.56070   0.02725   0.00000  Uiso   1.00
H310   H     0.17721   0.42143   0.46673   0.00000  Uiso   1.00
H311   H     0.14051   0.56062   0.47261   0.00000  Uiso   1.00
H312   H     0.15614   0.42140   0.03335   0.00000  Uiso   1.00
N313   N     0.16667   0.61907   0.25000   0.00000  Uiso   1.00
N314   N     0.16667   0.38093   0.25000   0.00000  Uiso   1.00
O315   O     0.10559   0.53821   0.24999   0.00000  Uiso   1.00
O316   O     0.22774   0.46179   0.25000   0.00000  Uiso   1.00
O317   O     0.22774   0.53821   0.25000   0.00000  Uiso   1.00
O318   O     0.10559   0.46179   0.24999   0.00000  Uiso   1.00
O319   O     0.16666   0.53822   0.18453   0.00000  Uiso   1.00
O320   O     0.16667   0.46178   0.31547   0.00000  Uiso   1.00
O321   O     0.16667   0.53822   0.31547   0.00000  Uiso   1.00
O322   O     0.16666   0.46178   0.18453   0.00000  Uiso   1.00
Zn323  Zn    0.16667   0.55104   0.25000   0.00000  Uiso   1.00
Zn324  Zn    0.16667   0.44896   0.25000   0.00000  Uiso   1.00
Br325  Br    0.23245   0.38886   0.31816   0.00000  Uiso   1.00
Br326  Br    0.09300   0.61272   0.19091   0.00000  Uiso   1.00
Br327  Br    0.10086   0.38895   0.18185   0.00000  Uiso   1.00
Br328  Br    0.24034   0.61265   0.30910   0.00000  Uiso   1.00
O329   O     0.18650   0.57849   0.10936   0.00000  Uiso   1.00
C330   C     0.14920   0.60426   0.10472   0.00000  Uiso   1.00
H331   H     0.15318   0.63263   0.12844   0.00000  Uiso   1.00
H332   H     0.12170   0.58404   0.11339   0.00000  Uiso   1.00
C333   C     0.14000   0.62416   0.05825   0.00000  Uiso   1.00
H334   H     0.16906   0.63655   0.04459   0.00000  Uiso   1.00
H335   H     0.12624   0.59767   0.03609   0.00000  Uiso   1.00
C336   C     0.10826   0.66246   0.05849   0.00000  Uiso   1.00
H337   H     0.10222   0.34245   0.02447   0.00000  Uiso   1.00
H338   H     0.07838   0.65006   0.07052   0.00000  Uiso   1.00
H339   H     0.12028   0.35693   0.08009   0.00000  Uiso   1.00
O340   O     0.16247   0.41422   0.38343   0.00000  Uiso   1.00
C341   C     0.12051   0.40242   0.37099   0.00000  Uiso   1.00
H342   H     0.12126   0.37792   0.34338   0.00000  Uiso   1.00
H343   H     0.10157   0.43175   0.35820   0.00000  Uiso   1.00
C344   C     0.09927   0.37990   0.40909   0.00000  Uiso   1.00
H345   H     0.11889   0.35168   0.42225   0.00000  Uiso   1.00
H346   H     0.09563   0.40459   0.43605   0.00000  Uiso   1.00
C347   C     0.05624   0.36162   0.39396   0.00000  Uiso   1.00
H348   H     0.03556   0.38947   0.38137   0.00000  Uiso   1.00
H349   H     0.04190   0.34541   0.42224   0.00000  Uiso   1.00
H350   H     0.05893   0.33606   0.36757   0.00000  Uiso   1.00
O351   O     0.14656   0.57842   0.39051   0.00000  Uiso   1.00
C352   C     0.18387   0.60415   0.39511   0.00000  Uiso   1.00
H353   H     0.17988   0.63258   0.37142   0.00000  Uiso   1.00
H354   H     0.21134   0.58392   0.38639   0.00000  Uiso   1.00
C355   C     0.19314   0.62393   0.44159   0.00000  Uiso   1.00
H356   H     0.16410   0.63629   0.45529   0.00000  Uiso   1.00
H357   H     0.20693   0.59737   0.46369   0.00000  Uiso   1.00
C358   C     0.22489   0.66220   0.44138   0.00000  Uiso   1.00
H359   H     0.23097   0.34209   0.47543   0.00000  Uiso   1.00
H360   H     0.25475   0.64982   0.42929   0.00000  Uiso   1.00
H361   H     0.21285   0.35674   0.41985   0.00000  Uiso   1.00
O362   O     0.17098   0.41424   0.11666   0.00000  Uiso   1.00
C363   C     0.21298   0.40262   0.12921   0.00000  Uiso   1.00
H364   H     0.21235   0.37889   0.15747   0.00000  Uiso   1.00
H365   H     0.23207   0.43218   0.14110   0.00000  Uiso   1.00
C366   C     0.23390   0.37891   0.09161   0.00000  Uiso   1.00
H367   H     0.21464   0.34974   0.08020   0.00000  Uiso   1.00
H368   H     0.23649   0.40244   0.06347   0.00000  Uiso   1.00
C369   C     0.27751   0.36212   0.10655   0.00000  Uiso   1.00
H370   H     0.29780   0.39085   0.11759   0.00000  Uiso   1.00
H371   H     0.29165   0.34508   0.07861   0.00000  Uiso   1.00
H372   H     0.27583   0.33759   0.13402   0.00000  Uiso   1.00
Br373  Br    0.04524   0.40145   0.27804   0.00000  Uiso   1.00
Br374  Br    0.29054   0.59464   0.21434   0.00000  Uiso   1.00
Br375  Br    0.28819   0.40145   0.22214   0.00000  Uiso   1.00
Br376  Br    0.04277   0.59465   0.28564   0.00000  Uiso   1.00
C377   C     0.42039   0.49988   0.25506   0.00000  Uiso   1.00
C378   C     0.57962   0.49987   0.24496   0.00000  Uiso   1.00
C379   C     0.50182   0.49971   0.16390   0.00000  Uiso   1.00
C380   C     0.49816   0.49970   0.33609   0.00000  Uiso   1.00
C381   C     0.52803   0.35736   0.27707   0.00000  Uiso   1.00
C382   C     0.47076   0.64295   0.22439   0.00000  Uiso   1.00
C383   C     0.47197   0.35740   0.22294   0.00000  Uiso   1.00
C384   C     0.52924   0.64291   0.27561   0.00000  Uiso   1.00
C385   C     0.35430   0.45792   0.25692   0.00000  Uiso   1.00
C386   C     0.64602   0.54027   0.24215   0.00000  Uiso   1.00
C387   C     0.64574   0.45791   0.24322   0.00000  Uiso   1.00
C388   C     0.35397   0.54027   0.25789   0.00000  Uiso   1.00
C389   C     0.51598   0.53186   0.04562   0.00000  Uiso   1.00
C390   C     0.50243   0.45337   0.45129   0.00000  Uiso   1.00
C391   C     0.48366   0.53180   0.45429   0.00000  Uiso   1.00
C392   C     0.49750   0.45337   0.04875   0.00000  Uiso   1.00
C393   C     0.51297   0.53640   0.09071   0.00000  Uiso   1.00
C394   C     0.49671   0.45487   0.40575   0.00000  Uiso   1.00
C395   C     0.48676   0.53634   0.40921   0.00000  Uiso   1.00
C396   C     0.50328   0.45489   0.09429   0.00000  Uiso   1.00
C397   C     0.50597   0.49746   0.11603   0.00000  Uiso   1.00
C398   C     0.49393   0.49742   0.38396   0.00000  Uiso   1.00
C399   C     0.50334   0.49213   0.02403   0.00000  Uiso   1.00
C400   C     0.49641   0.49211   0.47595   0.00000  Uiso   1.00
C401   C     0.62413   0.49928   0.24011   0.00000  Uiso   1.00
C402   C     0.37589   0.49929   0.25997   0.00000  Uiso   1.00
H403   H     0.52570   0.56070   0.02725   0.00000  Uiso   1.00
H404   H     0.51055   0.42143   0.46673   0.00000  Uiso   1.00
H405   H     0.47384   0.56062   0.47261   0.00000  Uiso   1.00
H406   H     0.48948   0.42140   0.03335   0.00000  Uiso   1.00
N407   N     0.50000   0.61907   0.25000   0.00000  Uiso   1.00
N408   N     0.50000   0.38093   0.25000   0.00000  Uiso   1.00
O409   O     0.43892   0.53821   0.24999   0.00000  Uiso   1.00
O410   O     0.56108   0.46179   0.25000   0.00000  Uiso   1.00
O411   O     0.56108   0.53821   0.25000   0.00000  Uiso   1.00
O412   O     0.43892   0.46179   0.24999   0.00000  Uiso   1.00
O413   O     0.50000   0.53822   0.18453   0.00000  Uiso   1.00
O414   O     0.50000   0.46178   0.31547   0.00000  Uiso   1.00
O415   O     0.50000   0.53822   0.31547   0.00000  Uiso   1.00
O416   O     0.50000   0.46178   0.18453   0.00000  Uiso   1.00
Zn417  Zn    0.50000   0.55104   0.25000   0.00000  Uiso   1.00
Zn418  Zn    0.50000   0.44896   0.25000   0.00000  Uiso   1.00
Br419  Br    0.56578   0.38886   0.31816   0.00000  Uiso   1.00
Br420  Br    0.42633   0.61272   0.19091   0.00000  Uiso   1.00
Br421  Br    0.43419   0.38895   0.18185   0.00000  Uiso   1.00
Br422  Br    0.57368   0.61265   0.30910   0.00000  Uiso   1.00
O423   O     0.51983   0.57849   0.10936   0.00000  Uiso   1.00
C424   C     0.48254   0.60426   0.10472   0.00000  Uiso   1.00
H425   H     0.48651   0.63263   0.12844   0.00000  Uiso   1.00
H426   H     0.45504   0.58404   0.11339   0.00000  Uiso   1.00
C427   C     0.47334   0.62416   0.05825   0.00000  Uiso   1.00
H428   H     0.50240   0.63655   0.04459   0.00000  Uiso   1.00
H429   H     0.45957   0.59767   0.03609   0.00000  Uiso   1.00
C430   C     0.44159   0.66246   0.05849   0.00000  Uiso   1.00
H431   H     0.43556   0.34245   0.02447   0.00000  Uiso   1.00
H432   H     0.41172   0.65006   0.07052   0.00000  Uiso   1.00
H433   H     0.45362   0.35693   0.08009   0.00000  Uiso   1.00
O434   O     0.49581   0.41422   0.38343   0.00000  Uiso   1.00
C435   C     0.45384   0.40242   0.37099   0.00000  Uiso   1.00
H436   H     0.45459   0.37792   0.34338   0.00000  Uiso   1.00
H437   H     0.43490   0.43175   0.35820   0.00000  Uiso   1.00
C438   C     0.43260   0.37990   0.40909   0.00000  Uiso   1.00
H439   H     0.45222   0.35168   0.42225   0.00000  Uiso   1.00
H440   H     0.42896   0.40459   0.43605   0.00000  Uiso   1.00
C441   C     0.38957   0.36162   0.39396   0.00000  Uiso   1.00
H442   H     0.36890   0.38947   0.38137   0.00000  Uiso   1.00
H443   H     0.37524   0.34541   0.42224   0.00000  Uiso   1.00
H444   H     0.39226   0.33606   0.36757   0.00000  Uiso   1.00
O445   O     0.47990   0.57842   0.39051   0.00000  Uiso   1.00
C446   C     0.51720   0.60415   0.39511   0.00000  Uiso   1.00
H447   H     0.51322   0.63258   0.37142   0.00000  Uiso   1.00
H448   H     0.54467   0.58392   0.38639   0.00000  Uiso   1.00
C449   C     0.52647   0.62393   0.44159   0.00000  Uiso   1.00
H450   H     0.49743   0.63629   0.45529   0.00000  Uiso   1.00
H451   H     0.54026   0.59737   0.46369   0.00000  Uiso   1.00
C452   C     0.55823   0.66220   0.44138   0.00000  Uiso   1.00
H453   H     0.56431   0.34209   0.47543   0.00000  Uiso   1.00
H454   H     0.58808   0.64982   0.42929   0.00000  Uiso   1.00
H455   H     0.54618   0.35674   0.41985   0.00000  Uiso   1.00
O456   O     0.50431   0.41424   0.11666   0.00000  Uiso   1.00
C457   C     0.54631   0.40262   0.12921   0.00000  Uiso   1.00
H458   H     0.54569   0.37889   0.15747   0.00000  Uiso   1.00
H459   H     0.56541   0.43218   0.14110   0.00000  Uiso   1.00
C460   C     0.56723   0.37891   0.09161   0.00000  Uiso   1.00
H461   H     0.54797   0.34974   0.08020   0.00000  Uiso   1.00
H462   H     0.56982   0.40244   0.06347   0.00000  Uiso   1.00
C463   C     0.61084   0.36212   0.10655   0.00000  Uiso   1.00
H464   H     0.63113   0.39085   0.11759   0.00000  Uiso   1.00
H465   H     0.62498   0.34508   0.07861   0.00000  Uiso   1.00
H466   H     0.60917   0.33759   0.13402   0.00000  Uiso   1.00
Br467  Br    0.37858   0.40145   0.27804   0.00000  Uiso   1.00
Br468  Br    0.62387   0.59464   0.21434   0.00000  Uiso   1.00
Br469  Br    0.62152   0.40145   0.22214   0.00000  Uiso   1.00
Br470  Br    0.37610   0.59465   0.28564   0.00000  Uiso   1.00
C471   C     0.75372   0.49988   0.25506   0.00000  Uiso   1.00
C472   C     0.91295   0.49987   0.24496   0.00000  Uiso   1.00
C473   C     0.83515   0.49971   0.16390   0.00000  Uiso   1.00
C474   C     0.83150   0.49970   0.33609   0.00000  Uiso   1.00
C475   C     0.86136   0.35736   0.27707   0.00000  Uiso   1.00
C476   C     0.80409   0.64295   0.22439   0.00000  Uiso   1.00
C477   C     0.80530   0.35740   0.22294   0.00000  Uiso   1.00
C478   C     0.86257   0.64291   0.27561   0.00000  Uiso   1.00
C479   C     0.68763   0.45792   0.25692   0.00000  Uiso   1.00
C480   C     0.97936   0.54027   0.24215   0.00000  Uiso   1.00
C481   C     0.97908   0.45791   0.24322   0.00000  Uiso   1.00
C482   C     0.68731   0.54027   0.25789   0.00000  Uiso   1.00
C483   C     0.84931   0.53186   0.04562   0.00000  Uiso   1.00
C484   C     0.83577   0.45337   0.45129   0.00000  Uiso   1.00
C485   C     0.81700   0.53180   0.45429   0.00000  Uiso   1.00
C486   C     0.83084   0.45337   0.04875   0.00000  Uiso   1.00
C487   C     0.84630   0.53640   0.09071   0.00000  Uiso   1.00
C488   C     0.83004   0.45487   0.40575   0.00000  Uiso   1.00
C489   C     0.82010   0.53634   0.40921   0.00000  Uiso   1.00
C490   C     0.83661   0.45489   0.09429   0.00000  Uiso   1.00
C491   C     0.83931   0.49746   0.11603   0.00000  Uiso   1.00
C492   C     0.82727   0.49742   0.38396   0.00000  Uiso   1.00
C493   C     0.83668   0.49213   0.02403   0.00000  Uiso   1.00
C494   C     0.82975   0.49211   0.47595   0.00000  Uiso   1.00
C495   C     0.95746   0.49928   0.24011   0.00000  Uiso   1.00
C496   C     0.70923   0.49929   0.25997   0.00000  Uiso   1.00
H497   H     0.85903   0.56070   0.02725   0.00000  Uiso   1.00
H498   H     0.84388   0.42143   0.46673   0.00000  Uiso   1.00
H499   H     0.80718   0.56062   0.47261   0.00000  Uiso   1.00
H500   H     0.82281   0.42140   0.03335   0.00000  Uiso   1.00
N501   N     0.83333   0.61907   0.25000   0.00000  Uiso   1.00
N502   N     0.83333   0.38093   0.25000   0.00000  Uiso   1.00
O503   O     0.77226   0.53821   0.24999   0.00000  Uiso   1.00
O504   O     0.89441   0.46179   0.25000   0.00000  Uiso   1.00
O505   O     0.89441   0.53821   0.25000   0.00000  Uiso   1.00
O506   O     0.77226   0.46179   0.24999   0.00000  Uiso   1.00
O507   O     0.83333   0.53822   0.18453   0.00000  Uiso   1.00
O508   O     0.83334   0.46178   0.31547   0.00000  Uiso   1.00
O509   O     0.83334   0.53822   0.31547   0.00000  Uiso   1.00
O510   O     0.83333   0.46178   0.18453   0.00000  Uiso   1.00
Zn511  Zn    0.83333   0.55104   0.25000   0.00000  Uiso   1.00
Zn512  Zn    0.83333   0.44896   0.25000   0.00000  Uiso   1.00
Br513  Br    0.89911   0.38886   0.31816   0.00000  Uiso   1.00
Br514  Br    0.75967   0.61272   0.19091   0.00000  Uiso   1.00
Br515  Br    0.76753   0.38895   0.18185   0.00000  Uiso   1.00
Br516  Br    0.90701   0.61265   0.30910   0.00000  Uiso   1.00
O517   O     0.85317   0.57849   0.10936   0.00000  Uiso   1.00
C518   C     0.81587   0.60426   0.10472   0.00000  Uiso   1.00
H519   H     0.81984   0.63263   0.12844   0.00000  Uiso   1.00
H520   H     0.78837   0.58404   0.11339   0.00000  Uiso   1.00
C521   C     0.80667   0.62416   0.05825   0.00000  Uiso   1.00
H522   H     0.83573   0.63655   0.04459   0.00000  Uiso   1.00
H523   H     0.79290   0.59767   0.03609   0.00000  Uiso   1.00
C524   C     0.77492   0.66246   0.05849   0.00000  Uiso   1.00
H525   H     0.76889   0.34245   0.02447   0.00000  Uiso   1.00
H526   H     0.74505   0.65006   0.07052   0.00000  Uiso   1.00
H527   H     0.78695   0.35693   0.08009   0.00000  Uiso   1.00
O528   O     0.82914   0.41422   0.38343   0.00000  Uiso   1.00
C529   C     0.78718   0.40242   0.37099   0.00000  Uiso   1.00
H530   H     0.78793   0.37792   0.34338   0.00000  Uiso   1.00
H531   H     0.76823   0.43175   0.35820   0.00000  Uiso   1.00
C532   C     0.76593   0.37990   0.40909   0.00000  Uiso   1.00
H533   H     0.78556   0.35168   0.42225   0.00000  Uiso   1.00
H534   H     0.76229   0.40459   0.43605   0.00000  Uiso   1.00
C535   C     0.72290   0.36162   0.39396   0.00000  Uiso   1.00
H536   H     0.70223   0.38947   0.38137   0.00000  Uiso   1.00
H537   H     0.70857   0.34541   0.42224   0.00000  Uiso   1.00
H538   H     0.72559   0.33606   0.36757   0.00000  Uiso   1.00
O539   O     0.81323   0.57842   0.39051   0.00000  Uiso   1.00
C540   C     0.85054   0.60415   0.39511   0.00000  Uiso   1.00
H541   H     0.84655   0.63258   0.37142   0.00000  Uiso   1.00
H542   H     0.87801   0.58392   0.38639   0.00000  Uiso   1.00
C543   C     0.85981   0.62393   0.44159   0.00000  Uiso   1.00
H544   H     0.83076   0.63629   0.45529   0.00000  Uiso   1.00
H545   H     0.87359   0.59737   0.46369   0.00000  Uiso   1.00
C546   C     0.89156   0.66220   0.44138   0.00000  Uiso   1.00
H547   H     0.89764   0.34209   0.47543   0.00000  Uiso   1.00
H548   H     0.92141   0.64982   0.42929   0.00000  Uiso   1.00
H549   H     0.87952   0.35674   0.41985   0.00000  Uiso   1.00
O550   O     0.83765   0.41424   0.11666   0.00000  Uiso   1.00
C551   C     0.87964   0.40262   0.12921   0.00000  Uiso   1.00
H552   H     0.87902   0.37889   0.15747   0.00000  Uiso   1.00
H553   H     0.89874   0.43218   0.14110   0.00000  Uiso   1.00
C554   C     0.90057   0.37891   0.09161   0.00000  Uiso   1.00
H555   H     0.88131   0.34974   0.08020   0.00000  Uiso   1.00
H556   H     0.90315   0.40244   0.06347   0.00000  Uiso   1.00
C557   C     0.94418   0.36212   0.10655   0.00000  Uiso   1.00
H558   H     0.96447   0.39085   0.11759   0.00000  Uiso   1.00
H559   H     0.95831   0.34508   0.07861   0.00000  Uiso   1.00
H560   H     0.94250   0.33759   0.13402   0.00000  Uiso   1.00
Br561  Br    0.71191   0.40145   0.27804   0.00000  Uiso   1.00
Br562  Br    0.95721   0.59464   0.21434   0.00000  Uiso   1.00
Br563  Br    0.95485   0.40145   0.22214   0.00000  Uiso   1.00
Br564  Br    0.70943   0.59465   0.28564   0.00000  Uiso   1.00
C565   C     0.08705   0.83321   0.25506   0.00000  Uiso   1.00
C566   C     0.24629   0.83321   0.24496   0.00000  Uiso   1.00
C567   C     0.16848   0.83305   0.16390   0.00000  Uiso   1.00
C568   C     0.16483   0.83303   0.33609   0.00000  Uiso   1.00
C569   C     0.19469   0.69069   0.27707   0.00000  Uiso   1.00
C570   C     0.13743   0.97628   0.22439   0.00000  Uiso   1.00
C571   C     0.13864   0.69073   0.22294   0.00000  Uiso   1.00
C572   C     0.19591   0.97625   0.27561   0.00000  Uiso   1.00
C573   C     0.02097   0.79125   0.25692   0.00000  Uiso   1.00
C574   C     0.31269   0.87360   0.24215   0.00000  Uiso   1.00
C575   C     0.31241   0.79125   0.24322   0.00000  Uiso   1.00
C576   C     0.02064   0.87360   0.25789   0.00000  Uiso   1.00
C577   C     0.18265   0.86520   0.04562   0.00000  Uiso   1.00
C578   C     0.16910   0.78671   0.45129   0.00000  Uiso   1.00
C579   C     0.15033   0.86513   0.45429   0.00000  Uiso   1.00
C580   C     0.16417   0.78670   0.04875   0.00000  Uiso   1.00
C581   C     0.17963   0.86973   0.09071   0.00000  Uiso   1.00
C582   C     0.16337   0.78821   0.40575   0.00000  Uiso   1.00
C583   C     0.15343   0.86967   0.40921   0.00000  Uiso   1.00
C584   C     0.16995   0.78822   0.09429   0.00000  Uiso   1.00
C585   C     0.17264   0.83079   0.11603   0.00000  Uiso   1.00
C586   C     0.16060   0.83076   0.38396   0.00000  Uiso   1.00
C587   C     0.17001   0.82546   0.02403   0.00000  Uiso   1.00
C588   C     0.16308   0.82544   0.47595   0.00000  Uiso   1.00
C589   C     0.29079   0.83262   0.24011   0.00000  Uiso   1.00
C590   C     0.04256   0.83262   0.25997   0.00000  Uiso   1.00
H591   H     0.19236   0.89404   0.02725   0.00000  Uiso   1.00
H592   H     0.17721   0.75476   0.46673   0.00000  Uiso   1.00
H593   H     0.14051   0.89396   0.47261   0.00000  Uiso   1.00
H594   H     0.15614   0.75473   0.03335   0.00000  Uiso   1.00
N595   N     0.16667   0.95240   0.25000   0.00000  Uiso   1.00
N596   N     0.16667   0.71427   0.25000   0.00000  Uiso   1.00
O597   O     0.10559   0.87154   0.24999   0.00000  Uiso   1.00
O598   O     0.22774   0.79513   0.25000   0.00000  Uiso   1.00
O599   O     0.22774   0.87154   0.25000   0.00000  Uiso   1.00
O600   O     0.10559   0.79513   0.24999   0.00000  Uiso   1.00
O601   O     0.16666   0.87155   0.18453   0.00000  Uiso   1.00
O602   O     0.16667   0.79511   0.31547   0.00000  Uiso   1.00
O603   O     0.16667   0.87155   0.31547   0.00000  Uiso   1.00
O604   O     0.16666   0.79511   0.18453   0.00000  Uiso   1.00
Zn605  Zn    0.16667   0.88437   0.25000   0.00000  Uiso   1.00
Zn606  Zn    0.16667   0.78229   0.25000   0.00000  Uiso   1.00
Br607  Br    0.23245   0.72220   0.31816   0.00000  Uiso   1.00
Br608  Br    0.09300   0.94605   0.19091   0.00000  Uiso   1.00
Br609  Br    0.10086   0.72228   0.18185   0.00000  Uiso   1.00
Br610  Br    0.24034   0.94598   0.30910   0.00000  Uiso   1.00
O611   O     0.18650   0.91182   0.10936   0.00000  Uiso   1.00
C612   C     0.14920   0.93759   0.10472   0.00000  Uiso   1.00
H613   H     0.15318   0.96597   0.12844   0.00000  Uiso   1.00
H614   H     0.12170   0.91737   0.11339   0.00000  Uiso   1.00
C615   C     0.14000   0.95749   0.05825   0.00000  Uiso   1.00
H616   H     0.16906   0.96988   0.04459   0.00000  Uiso   1.00
H617   H     0.12624   0.93100   0.03609   0.00000  Uiso   1.00
C618   C     0.10826   0.99579   0.05849   0.00000  Uiso   1.00
H619   H     0.10222   0.67579   0.02447   0.00000  Uiso   1.00
H620   H     0.07838   0.98340   0.07052   0.00000  Uiso   1.00
H621   H     0.12028   0.69026   0.08009   0.00000  Uiso   1.00
O622   O     0.16247   0.74756   0.38343   0.00000  Uiso   1.00
C623   C     0.12051   0.73575   0.37099   0.00000  Uiso   1.00
H624   H     0.12126   0.71125   0.34338   0.00000  Uiso   1.00
H625   H     0.10157   0.76508   0.35820   0.00000  Uiso   1.00
C626   C     0.09927   0.71323   0.40909   0.00000  Uiso   1.00
H627   H     0.11889   0.68501   0.42225   0.00000  Uiso   1.00
H628   H     0.09563   0.73792   0.43605   0.00000  Uiso   1.00
C629   C     0.05624   0.69496   0.39396   0.00000  Uiso   1.00
H630   H     0.03556   0.72280   0.38137   0.00000  Uiso   1.00
H631   H     0.04190   0.67874   0.42224   0.00000  Uiso   1.00
H632   H     0.05893   0.66939   0.36757   0.00000  Uiso   1.00
O633   O     0.14656   0.91176   0.39051   0.00000  Uiso   1.00
C634   C     0.18387   0.93749   0.39511   0.00000  Uiso   1.00
H635   H     0.17988   0.96592   0.37142   0.00000  Uiso   1.00
H636   H     0.21134   0.91725   0.38639   0.00000  Uiso   1.00
C637   C     0.19314   0.95726   0.44159   0.00000  Uiso   1.00
H638   H     0.16410   0.96962   0.45529   0.00000  Uiso   1.00
H639   H     0.20693   0.93070   0.46369   0.00000  Uiso   1.00
C640   C     0.22489   0.99553   0.44138   0.00000  Uiso   1.00
H641   H     0.23097   0.67542   0.47543   0.00000  Uiso   1.00
H642   H     0.25475   0.98315   0.42929   0.00000  Uiso   1.00
H643   H     0.21285   0.69007   0.41985   0.00000  Uiso   1.00
O644   O     0.17098   0.74758   0.11666   0.00000  Uiso   1.00
C645   C     0.21298   0.73596   0.12921   0.00000  Uiso   1.00
H646   H     0.21235   0.71222   0.15747   0.00000  Uiso   1.00
H647   H     0.23207   0.76552   0.14110   0.00000  Uiso   1.00
C648   C     0.23390   0.71224   0.09161   0.00000  Uiso   1.00
H649   H     0.21464   0.68308   0.08020   0.00000  Uiso   1.00
H650   H     0.23649   0.73577   0.06347   0.00000  Uiso   1.00
C651   C     0.27751   0.69546   0.10655   0.00000  Uiso   1.00
H652   H     0.29780   0.72419   0.11759   0.00000  Uiso   1.00
H653   H     0.29165   0.67841   0.07861   0.00000  Uiso   1.00
H654   H     0.27583   0.67092   0.13402   0.00000  Uiso   1.00
Br655  Br    0.04524   0.73478   0.27804   0.00000  Uiso   1.00
Br656  Br    0.29054   0.92798   0.21434   0.00000  Uiso   1.00
Br657  Br    0.28819   0.73478   0.22214   0.00000  Uiso   1.00
Br658  Br    0.04277   0.92798   0.28564   0.00000  Uiso   1.00
C659   C     0.42039   0.83321   0.25506   0.00000  Uiso   1.00
C660   C     0.57962   0.83321   0.24496   0.00000  Uiso   1.00
C661   C     0.50182   0.83305   0.16390   0.00000  Uiso   1.00
C662   C     0.49816   0.83303   0.33609   0.00000  Uiso   1.00
C663   C     0.52803   0.69069   0.27707   0.00000  Uiso   1.00
C664   C     0.47076   0.97628   0.22439   0.00000  Uiso   1.00
C665   C     0.47197   0.69073   0.22294   0.00000  Uiso   1.00
C666   C     0.52924   0.97625   0.27561   0.00000  Uiso   1.00
C667   C     0.35430   0.79125   0.25692   0.00000  Uiso   1.00
C668   C     0.64602   0.87360   0.24215   0.00000  Uiso   1.00
C669   C     0.64574   0.79125   0.24322   0.00000  Uiso   1.00
C670   C     0.35397   0.87360   0.25789   0.00000  Uiso   1.00
C671   C     0.51598   0.86520   0.04562   0.00000  Uiso   1.00
C672   C     0.50243   0.78671   0.45129   0.00000  Uiso   1.00
C673   C     0.48366   0.86513   0.45429   0.00000  Uiso   1.00
C674   C     0.49750   0.78670   0.04875   0.00000  Uiso   1.00
C675   C     0.51297   0.86973   0.09071   0.00000  Uiso   1.00
C676   C     0.49671   0.78821   0.40575   0.00000  Uiso   1.00
C677   C     0.48676   0.86967   0.40921   0.00000  Uiso   1.00
C678   C     0.50328   0.78822   0.09429   0.00000  Uiso   1.00
C679   C     0.50597   0.83079   0.11603   0.00000  Uiso   1.00
C680   C     0.49393   0.83076   0.38396   0.00000  Uiso   1.00
C681   C     0.50334   0.82546   0.02403   0.00000  Uiso   1.00
C682   C     0.49641   0.82544   0.47595   0.00000  Uiso   1.00
C683   C     0.62413   0.83262   0.24011   0.00000  Uiso   1.00
C684   C     0.37589   0.83262   0.25997   0.00000  Uiso   1.00
H685   H     0.52570   0.89404   0.02725   0.00000  Uiso   1.00
H686   H     0.51055   0.75476   0.46673   0.00000  Uiso   1.00
H687   H     0.47384   0.89396   0.47261   0.00000  Uiso   1.00
H688   H     0.48948   0.75473   0.03335   0.00000  Uiso   1.00
N689   N     0.50000   0.95240   0.25000   0.00000  Uiso   1.00
N690   N     0.50000   0.71427   0.25000   0.00000  Uiso   1.00
O691   O     0.43892   0.87154   0.24999   0.00000  Uiso   1.00
O692   O     0.56108   0.79513   0.25000   0.00000  Uiso   1.00
O693   O     0.56108   0.87154   0.25000   0.00000  Uiso   1.00
O694   O     0.43892   0.79513   0.24999   0.00000  Uiso   1.00
O695   O     0.50000   0.87155   0.18453   0.00000  Uiso   1.00
O696   O     0.50000   0.79511   0.31547   0.00000  Uiso   1.00
O697   O     0.50000   0.87155   0.31547   0.00000  Uiso   1.00
O698   O     0.50000   0.79511   0.18453   0.00000  Uiso   1.00
Zn699  Zn    0.50000   0.88437   0.25000   0.00000  Uiso   1.00
Zn700  Zn    0.50000   0.78229   0.25000   0.00000  Uiso   1.00
Br701  Br    0.56578   0.72220   0.31816   0.00000  Uiso   1.00
Br702  Br    0.42633   0.94605   0.19091   0.00000  Uiso   1.00
Br703  Br    0.43419   0.72228   0.18185   0.00000  Uiso   1.00
Br704  Br    0.57368   0.94598   0.30910   0.00000  Uiso   1.00
O705   O     0.51983   0.91182   0.10936   0.00000  Uiso   1.00
C706   C     0.48254   0.93759   0.10472   0.00000  Uiso   1.00
H707   H     0.48651   0.96597   0.12844   0.00000  Uiso   1.00
H708   H     0.45504   0.91737   0.11339   0.00000  Uiso   1.00
C709   C     0.47334   0.95749   0.05825   0.00000  Uiso   1.00
H710   H     0.50240   0.96988   0.04459   0.00000  Uiso   1.00
H711   H     0.45957   0.93100   0.03609   0.00000  Uiso   1.00
C712   C     0.44159   0.99579   0.05849   0.00000  Uiso   1.00
H713   H     0.43556   0.67579   0.02447   0.00000  Uiso   1.00
H714   H     0.41172   0.98340   0.07052   0.00000  Uiso   1.00
H715   H     0.45362   0.69026   0.08009   0.00000  Uiso   1.00
O716   O     0.49581   0.74756   0.38343   0.00000  Uiso   1.00
C717   C     0.45384   0.73575   0.37099   0.00000  Uiso   1.00
H718   H     0.45459   0.71125   0.34338   0.00000  Uiso   1.00
H719   H     0.43490   0.76508   0.35820   0.00000  Uiso   1.00
C720   C     0.43260   0.71323   0.40909   0.00000  Uiso   1.00
H721   H     0.45222   0.68501   0.42225   0.00000  Uiso   1.00
H722   H     0.42896   0.73792   0.43605   0.00000  Uiso   1.00
C723   C     0.38957   0.69496   0.39396   0.00000  Uiso   1.00
H724   H     0.36890   0.72280   0.38137   0.00000  Uiso   1.00
H725   H     0.37524   0.67874   0.42224   0.00000  Uiso   1.00
H726   H     0.39226   0.66939   0.36757   0.00000  Uiso   1.00
O727   O     0.47990   0.91176   0.39051   0.00000  Uiso   1.00
C728   C     0.51720   0.93749   0.39511   0.00000  Uiso   1.00
H729   H     0.51322   0.96592   0.37142   0.00000  Uiso   1.00
H730   H     0.54467   0.91725   0.38639   0.00000  Uiso   1.00
C731   C     0.52647   0.95726   0.44159   0.00000  Uiso   1.00
H732   H     0.49743   0.96962   0.45529   0.00000  Uiso   1.00
H733   H     0.54026   0.93070   0.46369   0.00000  Uiso   1.00
C734   C     0.55823   0.99553   0.44138   0.00000  Uiso   1.00
H735   H     0.56431   0.67542   0.47543   0.00000  Uiso   1.00
H736   H     0.58808   0.98315   0.42929   0.00000  Uiso   1.00
H737   H     0.54618   0.69007   0.41985   0.00000  Uiso   1.00
O738   O     0.50431   0.74758   0.11666   0.00000  Uiso   1.00
C739   C     0.54631   0.73596   0.12921   0.00000  Uiso   1.00
H740   H     0.54569   0.71222   0.15747   0.00000  Uiso   1.00
H741   H     0.56541   0.76552   0.14110   0.00000  Uiso   1.00
C742   C     0.56723   0.71224   0.09161   0.00000  Uiso   1.00
H743   H     0.54797   0.68308   0.08020   0.00000  Uiso   1.00
H744   H     0.56982   0.73577   0.06347   0.00000  Uiso   1.00
C745   C     0.61084   0.69546   0.10655   0.00000  Uiso   1.00
H746   H     0.63113   0.72419   0.11759   0.00000  Uiso   1.00
H747   H     0.62498   0.67841   0.07861   0.00000  Uiso   1.00
H748   H     0.60917   0.67092   0.13402   0.00000  Uiso   1.00
Br749  Br    0.37858   0.73478   0.27804   0.00000  Uiso   1.00
Br750  Br    0.62387   0.92798   0.21434   0.00000  Uiso   1.00
Br751  Br    0.62152   0.73478   0.22214   0.00000  Uiso   1.00
Br752  Br    0.37610   0.92798   0.28564   0.00000  Uiso   1.00
C753   C     0.75372   0.83321   0.25506   0.00000  Uiso   1.00
C754   C     0.91295   0.83321   0.24496   0.00000  Uiso   1.00
C755   C     0.83515   0.83305   0.16390   0.00000  Uiso   1.00
C756   C     0.83150   0.83303   0.33609   0.00000  Uiso   1.00
C757   C     0.86136   0.69069   0.27707   0.00000  Uiso   1.00
C758   C     0.80409   0.97628   0.22439   0.00000  Uiso   1.00
C759   C     0.80530   0.69073   0.22294   0.00000  Uiso   1.00
C760   C     0.86257   0.97625   0.27561   0.00000  Uiso   1.00
C761   C     0.68763   0.79125   0.25692   0.00000  Uiso   1.00
C762   C     0.97936   0.87360   0.24215   0.00000  Uiso   1.00
C763   C     0.97908   0.79125   0.24322   0.00000  Uiso   1.00
C764   C     0.68731   0.87360   0.25789   0.00000  Uiso   1.00
C765   C     0.84931   0.86520   0.04562   0.00000  Uiso   1.00
C766   C     0.83577   0.78671   0.45129   0.00000  Uiso   1.00
C767   C     0.81700   0.86513   0.45429   0.00000  Uiso   1.00
C768   C     0.83084   0.78670   0.04875   0.00000  Uiso   1.00
C769   C     0.84630   0.86973   0.09071   0.00000  Uiso   1.00
C770   C     0.83004   0.78821   0.40575   0.00000  Uiso   1.00
C771   C     0.82010   0.86967   0.40921   0.00000  Uiso   1.00
C772   C     0.83661   0.78822   0.09429   0.00000  Uiso   1.00
C773   C     0.83931   0.83079   0.11603   0.00000  Uiso   1.00
C774   C     0.82727   0.83076   0.38396   0.00000  Uiso   1.00
C775   C     0.83668   0.82546   0.02403   0.00000  Uiso   1.00
C776   C     0.82975   0.82544   0.47595   0.00000  Uiso   1.00
C777   C     0.95746   0.83262   0.24011   0.00000  Uiso   1.00
C778   C     0.70923   0.83262   0.25997   0.00000  Uiso   1.00
H779   H     0.85903   0.89404   0.02725   0.00000  Uiso   1.00
H780   H     0.84388   0.75476   0.46673   0.00000  Uiso   1.00
H781   H     0.80718   0.89396   0.47261   0.00000  Uiso   1.00
H782   H     0.82281   0.75473   0.03335   0.00000  Uiso   1.00
N783   N     0.83333   0.95240   0.25000   0.00000  Uiso   1.00
N784   N     0.83333   0.71427   0.25000   0.00000  Uiso   1.00
O785   O     0.77226   0.87154   0.24999   0.00000  Uiso   1.00
O786   O     0.89441   0.79513   0.25000   0.00000  Uiso   1.00
O787   O     0.89441   0.87154   0.25000   0.00000  Uiso   1.00
O788   O     0.77226   0.79513   0.24999   0.00000  Uiso   1.00
O789   O     0.83333   0.87155   0.18453   0.00000  Uiso   1.00
O790   O     0.83334   0.79511   0.31547   0.00000  Uiso   1.00
O791   O     0.83334   0.87155   0.31547   0.00000  Uiso   1.00
O792   O     0.83333   0.79511   0.18453   0.00000  Uiso   1.00
Zn793  Zn    0.83333   0.88437   0.25000   0.00000  Uiso   1.00
Zn794  Zn    0.83333   0.78229   0.25000   0.00000  Uiso   1.00
Br795  Br    0.89911   0.72220   0.31816   0.00000  Uiso   1.00
Br796  Br    0.75967   0.94605   0.19091   0.00000  Uiso   1.00
Br797  Br    0.76753   0.72228   0.18185   0.00000  Uiso   1.00
Br798  Br    0.90701   0.94598   0.30910   0.00000  Uiso   1.00
O799   O     0.85317   0.91182   0.10936   0.00000  Uiso   1.00
C800   C     0.81587   0.93759   0.10472   0.00000  Uiso   1.00
H801   H     0.81984   0.96597   0.12844   0.00000  Uiso   1.00
H802   H     0.78837   0.91737   0.11339   0.00000  Uiso   1.00
C803   C     0.80667   0.95749   0.05825   0.00000  Uiso   1.00
H804   H     0.83573   0.96988   0.04459   0.00000  Uiso   1.00
H805   H     0.79290   0.93100   0.03609   0.00000  Uiso   1.00
C806   C     0.77492   0.99579   0.05849   0.00000  Uiso   1.00
H807   H     0.76889   0.67579   0.02447   0.00000  Uiso   1.00
H808   H     0.74505   0.98340   0.07052   0.00000  Uiso   1.00
H809   H     0.78695   0.69026   0.08009   0.00000  Uiso   1.00
O810   O     0.82914   0.74756   0.38343   0.00000  Uiso   1.00
C811   C     0.78718   0.73575   0.37099   0.00000  Uiso   1.00
H812   H     0.78793   0.71125   0.34338   0.00000  Uiso   1.00
H813   H     0.76823   0.76508   0.35820   0.00000  Uiso   1.00
C814   C     0.76593   0.71323   0.40909   0.00000  Uiso   1.00
H815   H     0.78556   0.68501   0.42225   0.00000  Uiso   1.00
H816   H     0.76229   0.73792   0.43605   0.00000  Uiso   1.00
C817   C     0.72290   0.69496   0.39396   0.00000  Uiso   1.00
H818   H     0.70223   0.72280   0.38137   0.00000  Uiso   1.00
H819   H     0.70857   0.67874   0.42224   0.00000  Uiso   1.00
H820   H     0.72559   0.66939   0.36757   0.00000  Uiso   1.00
O821   O     0.81323   0.91176   0.39051   0.00000  Uiso   1.00
C822   C     0.85054   0.93749   0.39511   0.00000  Uiso   1.00
H823   H     0.84655   0.96592   0.37142   0.00000  Uiso   1.00
H824   H     0.87801   0.91725   0.38639   0.00000  Uiso   1.00
C825   C     0.85981   0.95726   0.44159   0.00000  Uiso   1.00
H826   H     0.83076   0.96962   0.45529   0.00000  Uiso   1.00
H827   H     0.87359   0.93070   0.46369   0.00000  Uiso   1.00
C828   C     0.89156   0.99553   0.44138   0.00000  Uiso   1.00
H829   H     0.89764   0.67542   0.47543   0.00000  Uiso   1.00
H830   H     0.92141   0.98315   0.42929   0.00000  Uiso   1.00
H831   H     0.87952   0.69007   0.41985   0.00000  Uiso   1.00
O832   O     0.83765   0.74758   0.11666   0.00000  Uiso   1.00
C833   C     0.87964   0.73596   0.12921   0.00000  Uiso   1.00
H834   H     0.87902   0.71222   0.15747   0.00000  Uiso   1.00
H835   H     0.89874   0.76552   0.14110   0.00000  Uiso   1.00
C836   C     0.90057   0.71224   0.09161   0.00000  Uiso   1.00
H837   H     0.88131   0.68308   0.08020   0.00000  Uiso   1.00
H838   H     0.90315   0.73577   0.06347   0.00000  Uiso   1.00
C839   C     0.94418   0.69546   0.10655   0.00000  Uiso   1.00
H840   H     0.96447   0.72419   0.11759   0.00000  Uiso   1.00
H841   H     0.95831   0.67841   0.07861   0.00000  Uiso   1.00
H842   H     0.94250   0.67092   0.13402   0.00000  Uiso   1.00
Br843  Br    0.71191   0.73478   0.27804   0.00000  Uiso   1.00
Br844  Br    0.95721   0.92798   0.21434   0.00000  Uiso   1.00
Br845  Br    0.95485   0.73478   0.22214   0.00000  Uiso   1.00
Br846  Br    0.70943   0.92798   0.28564   0.00000  Uiso   1.00
C847   C     0.08705   0.16654   0.75506   0.00000  Uiso   1.00
C848   C     0.24629   0.16654   0.74496   0.00000  Uiso   1.00
C849   C     0.16848   0.16638   0.66390   0.00000  Uiso   1.00
C850   C     0.16483   0.16637   0.83609   0.00000  Uiso   1.00
C851   C     0.19469   0.02403   0.77707   0.00000  Uiso   1.00
C852   C     0.13743   0.30962   0.72439   0.00000  Uiso   1.00
C853   C     0.13864   0.02406   0.72294   0.00000  Uiso   1.00
C854   C     0.19591   0.30958   0.77561   0.00000  Uiso   1.00
C855   C     0.02097   0.12458   0.75692   0.00000  Uiso   1.00
C856   C     0.31269   0.20694   0.74215   0.00000  Uiso   1.00
C857   C     0.31241   0.12458   0.74322   0.00000  Uiso   1.00
C858   C     0.02064   0.20694   0.75789   0.00000  Uiso   1.00
C859   C     0.18265   0.19853   0.54562   0.00000  Uiso   1.00
C860   C     0.16910   0.12004   0.95129   0.00000  Uiso   1.00
C861   C     0.15033   0.19846   0.95429   0.00000  Uiso   1.00
C862   C     0.16417   0.12003   0.54875   0.00000  Uiso   1.00
C863   C     0.17963   0.20306   0.59071   0.00000  Uiso   1.00
C864   C     0.16337   0.12154   0.90575   0.00000  Uiso   1.00
C865   C     0.15343   0.20300   0.90921   0.00000  Uiso   1.00
C866   C     0.16995   0.12156   0.59429   0.00000  Uiso   1.00
C867   C     0.17264   0.16412   0.61603   0.00000  Uiso   1.00
C868   C     0.16060   0.16409   0.88396   0.00000  Uiso   1.00
C869   C     0.17001   0.15880   0.52403   0.00000  Uiso   1.00
C870   C     0.16308   0.15878   0.97595   0.00000  Uiso   1.00
C871   C     0.29079   0.16595   0.74011   0.00000  Uiso   1.00
C872   C     0.04256   0.16596   0.75997   0.00000  Uiso   1.00
H873   H     0.19236   0.22737   0.52725   0.00000  Uiso   1.00
H874   H     0.17721   0.08810   0.96673   0.00000  Uiso   1.00
H875   H     0.14051   0.22729   0.97261   0.00000  Uiso   1.00
H876   H     0.15614   0.08806   0.53335   0.00000  Uiso   1.00
N877   N     0.16667   0.28573   0.75000   0.00000  Uiso   1.00
N878   N     0.16667   0.04760   0.75000   0.00000  Uiso   1.00
O879   O     0.10559   0.20487   0.74999   0.00000  Uiso   1.00
O880   O     0.22774   0.12846   0.75000   0.00000  Uiso   1.00
O881   O     0.22774   0.20487   0.75000   0.00000  Uiso   1.00
O882   O     0.10559   0.12846   0.74999   0.00000  Uiso   1.00
O883   O     0.16666   0.20489   0.68453   0.00000  Uiso   1.00
O884   O     0.16667   0.12845   0.81547   0.00000  Uiso   1.00
O885   O     0.16667   0.20489   0.81547   0.00000  Uiso   1.00
O886   O     0.16666   0.12845   0.68453   0.00000  Uiso   1.00
Zn887  Zn    0.16667   0.21771   0.75000   0.00000  Uiso   1.00
Zn888  Zn    0.16667   0.11563   0.75000   0.00000  Uiso   1.00
Br889  Br    0.23245   0.05553   0.81816   0.00000  Uiso   1.00
Br890  Br    0.09300   0.27939   0.69091   0.00000  Uiso   1.00
Br891  Br    0.10086   0.05562   0.68185   0.00000  Uiso   1.00
Br892  Br    0.24034   0.27931   0.80910   0.00000  Uiso   1.00
O893   O     0.18650   0.24515   0.60936   0.00000  Uiso   1.00
C894   C     0.14920   0.27092   0.60472   0.00000  Uiso   1.00
H895   H     0.15318   0.29930   0.62844   0.00000  Uiso   1.00
H896   H     0.12170   0.25070   0.61339   0.00000  Uiso   1.00
C897   C     0.14000   0.29083   0.55825   0.00000  Uiso   1.00
H898   H     0.16906   0.30321   0.54459   0.00000  Uiso   1.00
H899   H     0.12624   0.26433   0.53609   0.00000  Uiso   1.00
C900   C     0.10826   0.32913   0.55849   0.00000  Uiso   1.00
H901   H     0.10222   0.00912   0.52447   0.00000  Uiso   1.00
H902   H     0.07838   0.31673   0.57052   0.00000  Uiso   1.00
H903   H     0.12028   0.02360   0.58009   0.00000  Uiso   1.00
O904   O     0.16247   0.08089   0.88343   0.00000  Uiso   1.00
C905   C     0.12051   0.06909   0.87099   0.00000  Uiso   1.00
H906   H     0.12126   0.04458   0.84338   0.00000  Uiso   1.00
H907   H     0.10157   0.09842   0.85820   0.00000  Uiso   1.00
C908   C     0.09927   0.04657   0.90909   0.00000  Uiso   1.00
H909   H     0.11889   0.01835   0.92225   0.00000  Uiso   1.00
H910   H     0.09563   0.07126   0.93605   0.00000  Uiso   1.00
C911   C     0.05624   0.02829   0.89396   0.00000  Uiso   1.00
H912   H     0.03556   0.05614   0.88137   0.00000  Uiso   1.00
H913   H     0.04190   0.01207   0.92224   0.00000  Uiso   1.00
H914   H     0.05893   0.00272   0.86757   0.00000  Uiso   1.00
O915   O     0.14656   0.24509   0.89051   0.00000  Uiso   1.00
C916   C     0.18387   0.27082   0.89511   0.00000  Uiso   1.00
H917   H     0.17988   0.29925   0.87142   0.00000  Uiso   1.00
H918   H     0.21134   0.25058   0.88639   0.00000  Uiso   1.00
C919   C     0.19314   0.29060   0.94159   0.00000  Uiso   1.00
H920   H     0.16410   0.30296   0.95529   0.00000  Uiso   1.00
H921   H     0.20693   0.26404   0.96369   0.00000  Uiso   1.00
C922   C     0.22489   0.32887   0.94138   0.00000  Uiso   1.00
H923   H     0.23097   0.00875   0.97543   0.00000  Uiso   1.00
H924   H     0.25475   0.31648   0.92929   0.00000  Uiso   1.00
H925   H     0.21285   0.02340   0.91985   0.00000  Uiso   1.00
O926   O     0.17098   0.08091   0.61666   0.00000  Uiso   1.00
C927   C     0.21298   0.06929   0.62921   0.00000  Uiso   1.00
H928   H     0.21235   0.04555   0.65747   0.00000  Uiso   1.00
H929   H     0.23207   0.09885   0.64110   0.00000  Uiso   1.00
C930   C     0.23390   0.04557   0.59161   0.00000  Uiso   1.00
H931   H     0.21464   0.01641   0.58020   0.00000  Uiso   1.00
H932   H     0.23649   0.06910   0.56347   0.00000  Uiso   1.00
C933   C     0.27751   0.02879   0.60655   0.00000  Uiso   1.00
H934   H     0.29780   0.05752   0.61759   0.00000  Uiso   1.00
H935   H     0.29165   0.01175   0.57861   0.00000  Uiso   1.00
H936   H     0.27583   0.00425   0.63402   0.00000  Uiso   1.00
Br937  Br    0.04524   0.06811   0.77804   0.00000  Uiso   1.00
Br938  Br    0.29054   0.26131   0.71434   0.00000  Uiso   1.00
Br939  Br    0.28819   0.06812   0.72214   0.00000  Uiso   1.00
Br940  Br    0.04277   0.26131   0.78564   0.00000  Uiso   1.00
C941   C     0.42039   0.16654   0.75506   0.00000  Uiso   1.00
C942   C     0.57962   0.16654   0.74496   0.00000  Uiso   1.00
C943   C     0.50182   0.16638   0.66390   0.00000  Uiso   1.00
C944   C     0.49816   0.16637   0.83609   0.00000  Uiso   1.00
C945   C     0.52803   0.02403   0.77707   0.00000  Uiso   1.00
C946   C     0.47076   0.30962   0.72439   0.00000  Uiso   1.00
C947   C     0.47197   0.02406   0.72294   0.00000  Uiso   1.00
C948   C     0.52924   0.30958   0.77561   0.00000  Uiso   1.00
C949   C     0.35430   0.12458   0.75692   0.00000  Uiso   1.00
C950   C     0.64602   0.20694   0.74215   0.00000  Uiso   1.00
C951   C     0.64574   0.12458   0.74322   0.00000  Uiso   1.00
C952   C     0.35397   0.20694   0.75789   0.00000  Uiso   1.00
C953   C     0.51598   0.19853   0.54562   0.00000  Uiso   1.00
C954   C     0.50243   0.12004   0.95129   0.00000  Uiso   1.00
C955   C     0.48366   0.19846   0.95429   0.00000  Uiso   1.00
C956   C     0.49750   0.12003   0.54875   0.00000  Uiso   1.00
C957   C     0.51297   0.20306   0.59071   0.00000  Uiso   1.00
C958   C     0.49671   0.12154   0.90575   0.00000  Uiso   1.00
C959   C     0.48676   0.20300   0.90921   0.00000  Uiso   1.00
C960   C     0.50328   0.12156   0.59429   0.00000  Uiso   1.00
C961   C     0.50597   0.16412   0.61603   0.00000  Uiso   1.00
C962   C     0.49393   0.16409   0.88396   0.00000  Uiso   1.00
C963   C     0.50334   0.15880   0.52403   0.00000  Uiso   1.00
C964   C     0.49641   0.15878   0.97595   0.00000  Uiso   1.00
C965   C     0.62413   0.16595   0.74011   0.00000  Uiso   1.00
C966   C     0.37589   0.16596   0.75997   0.00000  Uiso   1.00
H967   H     0.52570   0.22737   0.52725   0.00000  Uiso   1.00
H968   H     0.51055   0.08810   0.96673   0.00000  Uiso   1.00
H969   H     0.47384   0.22729   0.97261   0.00000  Uiso   1.00
H970   H     0.48948   0.08806   0.53335   0.00000  Uiso   1.00
N971   N     0.50000   0.28573   0.75000   0.00000  Uiso   1.00
N972   N     0.50000   0.04760   0.75000   0.00000  Uiso   1.00
O973   O     0.43892   0.20487   0.74999   0.00000  Uiso   1.00
O974   O     0.56108   0.12846   0.75000   0.00000  Uiso   1.00
O975   O     0.56108   0.20487   0.75000   0.00000  Uiso   1.00
O976   O     0.43892   0.12846   0.74999   0.00000  Uiso   1.00
O977   O     0.50000   0.20489   0.68453   0.00000  Uiso   1.00
O978   O     0.50000   0.12845   0.81547   0.00000  Uiso   1.00
O979   O     0.50000   0.20489   0.81547   0.00000  Uiso   1.00
O980   O     0.50000   0.12845   0.68453   0.00000  Uiso   1.00
Zn981  Zn    0.50000   0.21771   0.75000   0.00000  Uiso   1.00
Zn982  Zn    0.50000   0.11563   0.75000   0.00000  Uiso   1.00
Br983  Br    0.56578   0.05553   0.81816   0.00000  Uiso   1.00
Br984  Br    0.42633   0.27939   0.69091   0.00000  Uiso   1.00
Br985  Br    0.43419   0.05562   0.68185   0.00000  Uiso   1.00
Br986  Br    0.57368   0.27931   0.80910   0.00000  Uiso   1.00
O987   O     0.51983   0.24515   0.60936   0.00000  Uiso   1.00
C988   C     0.48254   0.27092   0.60472   0.00000  Uiso   1.00
H989   H     0.48651   0.29930   0.62844   0.00000  Uiso   1.00
H990   H     0.45504   0.25070   0.61339   0.00000  Uiso   1.00
C991   C     0.47334   0.29083   0.55825   0.00000  Uiso   1.00
H992   H     0.50240   0.30321   0.54459   0.00000  Uiso   1.00
H993   H     0.45957   0.26433   0.53609   0.00000  Uiso   1.00
C994   C     0.44159   0.32913   0.55849   0.00000  Uiso   1.00
H995   H     0.43556   0.00912   0.52447   0.00000  Uiso   1.00
H996   H     0.41172   0.31673   0.57052   0.00000  Uiso   1.00
H997   H     0.45362   0.02360   0.58009   0.00000  Uiso   1.00
O998   O     0.49581   0.08089   0.88343   0.00000  Uiso   1.00
C999   C     0.45384   0.06909   0.87099   0.00000  Uiso   1.00
H1000  H     0.45459   0.04458   0.84338   0.00000  Uiso   1.00
H1001  H     0.43490   0.09842   0.85820   0.00000  Uiso   1.00
C1002  C     0.43260   0.04657   0.90909   0.00000  Uiso   1.00
H1003  H     0.45222   0.01835   0.92225   0.00000  Uiso   1.00
H1004  H     0.42896   0.07126   0.93605   0.00000  Uiso   1.00
C1005  C     0.38957   0.02829   0.89396   0.00000  Uiso   1.00
H1006  H     0.36890   0.05614   0.88137   0.00000  Uiso   1.00
H1007  H     0.37524   0.01207   0.92224   0.00000  Uiso   1.00
H1008  H     0.39226   0.00272   0.86757   0.00000  Uiso   1.00
O1009  O     0.47990   0.24509   0.89051   0.00000  Uiso   1.00
C1010  C     0.51720   0.27082   0.89511   0.00000  Uiso   1.00
H1011  H     0.51322   0.29925   0.87142   0.00000  Uiso   1.00
H1012  H     0.54467   0.25058   0.88639   0.00000  Uiso   1.00
C1013  C     0.52647   0.29060   0.94159   0.00000  Uiso   1.00
H1014  H     0.49743   0.30296   0.95529   0.00000  Uiso   1.00
H1015  H     0.54026   0.26404   0.96369   0.00000  Uiso   1.00
C1016  C     0.55823   0.32887   0.94138   0.00000  Uiso   1.00
H1017  H     0.56431   0.00875   0.97543   0.00000  Uiso   1.00
H1018  H     0.58808   0.31648   0.92929   0.00000  Uiso   1.00
H1019  H     0.54618   0.02340   0.91985   0.00000  Uiso   1.00
O1020  O     0.50431   0.08091   0.61666   0.00000  Uiso   1.00
C1021  C     0.54631   0.06929   0.62921   0.00000  Uiso   1.00
H1022  H     0.54569   0.04555   0.65747   0.00000  Uiso   1.00
H1023  H     0.56541   0.09885   0.64110   0.00000  Uiso   1.00
C1024  C     0.56723   0.04557   0.59161   0.00000  Uiso   1.00
H1025  H     0.54797   0.01641   0.58020   0.00000  Uiso   1.00
H1026  H     0.56982   0.06910   0.56347   0.00000  Uiso   1.00
C1027  C     0.61084   0.02879   0.60655   0.00000  Uiso   1.00
H1028  H     0.63113   0.05752   0.61759   0.00000  Uiso   1.00
H1029  H     0.62498   0.01175   0.57861   0.00000  Uiso   1.00
H1030  H     0.60917   0.00425   0.63402   0.00000  Uiso   1.00
Br1031 Br    0.37858   0.06811   0.77804   0.00000  Uiso   1.00
Br1032 Br    0.62387   0.26131   0.71434   0.00000  Uiso   1.00
Br1033 Br    0.62152   0.06812   0.72214   0.00000  Uiso   1.00
Br1034 Br    0.37610   0.26131   0.78564   0.00000  Uiso   1.00
C1035  C     0.75372   0.16654   0.75506   0.00000  Uiso   1.00
C1036  C     0.91295   0.16654   0.74496   0.00000  Uiso   1.00
C1037  C     0.83515   0.16638   0.66390   0.00000  Uiso   1.00
C1038  C     0.83150   0.16637   0.83609   0.00000  Uiso   1.00
C1039  C     0.86136   0.02403   0.77707   0.00000  Uiso   1.00
C1040  C     0.80409   0.30962   0.72439   0.00000  Uiso   1.00
C1041  C     0.80530   0.02406   0.72294   0.00000  Uiso   1.00
C1042  C     0.86257   0.30958   0.77561   0.00000  Uiso   1.00
C1043  C     0.68763   0.12458   0.75692   0.00000  Uiso   1.00
C1044  C     0.97936   0.20694   0.74215   0.00000  Uiso   1.00
C1045  C     0.97908   0.12458   0.74322   0.00000  Uiso   1.00
C1046  C     0.68731   0.20694   0.75789   0.00000  Uiso   1.00
C1047  C     0.84931   0.19853   0.54562   0.00000  Uiso   1.00
C1048  C     0.83577   0.12004   0.95129   0.00000  Uiso   1.00
C1049  C     0.81700   0.19846   0.95429   0.00000  Uiso   1.00
C1050  C     0.83084   0.12003   0.54875   0.00000  Uiso   1.00
C1051  C     0.84630   0.20306   0.59071   0.00000  Uiso   1.00
C1052  C     0.83004   0.12154   0.90575   0.00000  Uiso   1.00
C1053  C     0.82010   0.20300   0.90921   0.00000  Uiso   1.00
C1054  C     0.83661   0.12156   0.59429   0.00000  Uiso   1.00
C1055  C     0.83931   0.16412   0.61603   0.00000  Uiso   1.00
C1056  C     0.82727   0.16409   0.88396   0.00000  Uiso   1.00
C1057  C     0.83668   0.15880   0.52403   0.00000  Uiso   1.00
C1058  C     0.82975   0.15878   0.97595   0.00000  Uiso   1.00
C1059  C     0.95746   0.16595   0.74011   0.00000  Uiso   1.00
C1060  C     0.70923   0.16596   0.75997   0.00000  Uiso   1.00
H1061  H     0.85903   0.22737   0.52725   0.00000  Uiso   1.00
H1062  H     0.84388   0.08810   0.96673   0.00000  Uiso   1.00
H1063  H     0.80718   0.22729   0.97261   0.00000  Uiso   1.00
H1064  H     0.82281   0.08806   0.53335   0.00000  Uiso   1.00
N1065  N     0.83333   0.28573   0.75000   0.00000  Uiso   1.00
N1066  N     0.83333   0.04760   0.75000   0.00000  Uiso   1.00
O1067  O     0.77226   0.20487   0.74999   0.00000  Uiso   1.00
O1068  O     0.89441   0.12846   0.75000   0.00000  Uiso   1.00
O1069  O     0.89441   0.20487   0.75000   0.00000  Uiso   1.00
O1070  O     0.77226   0.12846   0.74999   0.00000  Uiso   1.00
O1071  O     0.83333   0.20489   0.68453   0.00000  Uiso   1.00
O1072  O     0.83334   0.12845   0.81547   0.00000  Uiso   1.00
O1073  O     0.83334   0.20489   0.81547   0.00000  Uiso   1.00
O1074  O     0.83333   0.12845   0.68453   0.00000  Uiso   1.00
Zn1075 Zn    0.83333   0.21771   0.75000   0.00000  Uiso   1.00
Zn1076 Zn    0.83333   0.11563   0.75000   0.00000  Uiso   1.00
Br1077 Br    0.89911   0.05553   0.81816   0.00000  Uiso   1.00
Br1078 Br    0.75967   0.27939   0.69091   0.00000  Uiso   1.00
Br1079 Br    0.76753   0.05562   0.68185   0.00000  Uiso   1.00
Br1080 Br    0.90701   0.27931   0.80910   0.00000  Uiso   1.00
O1081  O     0.85317   0.24515   0.60936   0.00000  Uiso   1.00
C1082  C     0.81587   0.27092   0.60472   0.00000  Uiso   1.00
H1083  H     0.81984   0.29930   0.62844   0.00000  Uiso   1.00
H1084  H     0.78837   0.25070   0.61339   0.00000  Uiso   1.00
C1085  C     0.80667   0.29083   0.55825   0.00000  Uiso   1.00
H1086  H     0.83573   0.30321   0.54459   0.00000  Uiso   1.00
H1087  H     0.79290   0.26433   0.53609   0.00000  Uiso   1.00
C1088  C     0.77492   0.32913   0.55849   0.00000  Uiso   1.00
H1089  H     0.76889   0.00912   0.52447   0.00000  Uiso   1.00
H1090  H     0.74505   0.31673   0.57052   0.00000  Uiso   1.00
H1091  H     0.78695   0.02360   0.58009   0.00000  Uiso   1.00
O1092  O     0.82914   0.08089   0.88343   0.00000  Uiso   1.00
C1093  C     0.78718   0.06909   0.87099   0.00000  Uiso   1.00
H1094  H     0.78793   0.04458   0.84338   0.00000  Uiso   1.00
H1095  H     0.76823   0.09842   0.85820   0.00000  Uiso   1.00
C1096  C     0.76593   0.04657   0.90909   0.00000  Uiso   1.00
H1097  H     0.78556   0.01835   0.92225   0.00000  Uiso   1.00
H1098  H     0.76229   0.07126   0.93605   0.00000  Uiso   1.00
C1099  C     0.72290   0.02829   0.89396   0.00000  Uiso   1.00
H1100  H     0.70223   0.05614   0.88137   0.00000  Uiso   1.00
H1101  H     0.70857   0.01207   0.92224   0.00000  Uiso   1.00
H1102  H     0.72559   0.00272   0.86757   0.00000  Uiso   1.00
O1103  O     0.81323   0.24509   0.89051   0.00000  Uiso   1.00
C1104  C     0.85054   0.27082   0.89511   0.00000  Uiso   1.00
H1105  H     0.84655   0.29925   0.87142   0.00000  Uiso   1.00
H1106  H     0.87801   0.25058   0.88639   0.00000  Uiso   1.00
C1107  C     0.85981   0.29060   0.94159   0.00000  Uiso   1.00
H1108  H     0.83076   0.30296   0.95529   0.00000  Uiso   1.00
H1109  H     0.87359   0.26404   0.96369   0.00000  Uiso   1.00
C1110  C     0.89156   0.32887   0.94138   0.00000  Uiso   1.00
H1111  H     0.89764   0.00875   0.97543   0.00000  Uiso   1.00
H1112  H     0.92141   0.31648   0.92929   0.00000  Uiso   1.00
H1113  H     0.87952   0.02340   0.91985   0.00000  Uiso   1.00
O1114  O     0.83765   0.08091   0.61666   0.00000  Uiso   1.00
C1115  C     0.87964   0.06929   0.62921   0.00000  Uiso   1.00
H1116  H     0.87902   0.04555   0.65747   0.00000  Uiso   1.00
H1117  H     0.89874   0.09885   0.64110   0.00000  Uiso   1.00
C1118  C     0.90057   0.04557   0.59161   0.00000  Uiso   1.00
H1119  H     0.88131   0.01641   0.58020   0.00000  Uiso   1.00
H1120  H     0.90315   0.06910   0.56347   0.00000  Uiso   1.00
C1121  C     0.94418   0.02879   0.60655   0.00000  Uiso   1.00
H1122  H     0.96447   0.05752   0.61759   0.00000  Uiso   1.00
H1123  H     0.95831   0.01175   0.57861   0.00000  Uiso   1.00
H1124  H     0.94250   0.00425   0.63402   0.00000  Uiso   1.00
Br1125 Br    0.71191   0.06811   0.77804   0.00000  Uiso   1.00
Br1126 Br    0.95721   0.26131   0.71434   0.00000  Uiso   1.00
Br1127 Br    0.95485   0.06812   0.72214   0.00000  Uiso   1.00
Br1128 Br    0.70943   0.26131   0.78564   0.00000  Uiso   1.00
C1129  C     0.08705   0.49988   0.75506   0.00000  Uiso   1.00
C1130  C     0.24629   0.49987   0.74496   0.00000  Uiso   1.00
C1131  C     0.16848   0.49971   0.66390   0.00000  Uiso   1.00
C1132  C     0.16483   0.49970   0.83609   0.00000  Uiso   1.00
C1133  C     0.19469   0.35736   0.77707   0.00000  Uiso   1.00
C1134  C     0.13743   0.64295   0.72439   0.00000  Uiso   1.00
C1135  C     0.13864   0.35740   0.72294   0.00000  Uiso   1.00
C1136  C     0.19591   0.64291   0.77561   0.00000  Uiso   1.00
C1137  C     0.02097   0.45792   0.75692   0.00000  Uiso   1.00
C1138  C     0.31269   0.54027   0.74215   0.00000  Uiso   1.00
C1139  C     0.31241   0.45791   0.74322   0.00000  Uiso   1.00
C1140  C     0.02064   0.54027   0.75789   0.00000  Uiso   1.00
C1141  C     0.18265   0.53186   0.54562   0.00000  Uiso   1.00
C1142  C     0.16910   0.45337   0.95129   0.00000  Uiso   1.00
C1143  C     0.15033   0.53180   0.95429   0.00000  Uiso   1.00
C1144  C     0.16417   0.45337   0.54875   0.00000  Uiso   1.00
C1145  C     0.17963   0.53640   0.59071   0.00000  Uiso   1.00
C1146  C     0.16337   0.45487   0.90575   0.00000  Uiso   1.00
C1147  C     0.15343   0.53634   0.90921   0.00000  Uiso   1.00
C1148  C     0.16995   0.45489   0.59429   0.00000  Uiso   1.00
C1149  C     0.17264   0.49746   0.61603   0.00000  Uiso   1.00
C1150  C     0.16060   0.49742   0.88396   0.00000  Uiso   1.00
C1151  C     0.17001   0.49213   0.52403   0.00000  Uiso   1.00
C1152  C     0.16308   0.49211   0.97595   0.00000  Uiso   1.00
C1153  C     0.29079   0.49928   0.74011   0.00000  Uiso   1.00
C1154  C     0.04256   0.49929   0.75997   0.00000  Uiso   1.00
H1155  H     0.19236   0.56070   0.52725   0.00000  Uiso   1.00
H1156  H     0.17721   0.42143   0.96673   0.00000  Uiso   1.00
H1157  H     0.14051   0.56062   0.97261   0.00000  Uiso   1.00
H1158  H     0.15614   0.42140   0.53335   0.00000  Uiso   1.00
N1159  N     0.16667   0.61907   0.75000   0.00000  Uiso   1.00
N1160  N     0.16667   0.38093   0.75000   0.00000  Uiso   1.00
O1161  O     0.10559   0.53821   0.74999   0.00000  Uiso   1.00
O1162  O     0.22774   0.46179   0.75000   0.00000  Uiso   1.00
O1163  O     0.22774   0.53821   0.75000   0.00000  Uiso   1.00
O1164  O     0.10559   0.46179   0.74999   0.00000  Uiso   1.00
O1165  O     0.16666   0.53822   0.68453   0.00000  Uiso   1.00
O1166  O     0.16667   0.46178   0.81547   0.00000  Uiso   1.00
O1167  O     0.16667   0.53822   0.81547   0.00000  Uiso   1.00
O1168  O     0.16666   0.46178   0.68453   0.00000  Uiso   1.00
Zn1169 Zn    0.16667   0.55104   0.75000   0.00000  Uiso   1.00
Zn1170 Zn    0.16667   0.44896   0.75000   0.00000  Uiso   1.00
Br1171 Br    0.23245   0.38886   0.81816   0.00000  Uiso   1.00
Br1172 Br    0.09300   0.61272   0.69091   0.00000  Uiso   1.00
Br1173 Br    0.10086   0.38895   0.68185   0.00000  Uiso   1.00
Br1174 Br    0.24034   0.61265   0.80910   0.00000  Uiso   1.00
O1175  O     0.18650   0.57849   0.60936   0.00000  Uiso   1.00
C1176  C     0.14920   0.60426   0.60472   0.00000  Uiso   1.00
H1177  H     0.15318   0.63263   0.62844   0.00000  Uiso   1.00
H1178  H     0.12170   0.58404   0.61339   0.00000  Uiso   1.00
C1179  C     0.14000   0.62416   0.55825   0.00000  Uiso   1.00
H1180  H     0.16906   0.63655   0.54459   0.00000  Uiso   1.00
H1181  H     0.12624   0.59767   0.53609   0.00000  Uiso   1.00
C1182  C     0.10826   0.66246   0.55849   0.00000  Uiso   1.00
H1183  H     0.10222   0.34245   0.52447   0.00000  Uiso   1.00
H1184  H     0.07838   0.65006   0.57052   0.00000  Uiso   1.00
H1185  H     0.12028   0.35693   0.58009   0.00000  Uiso   1.00
O1186  O     0.16247   0.41422   0.88343   0.00000  Uiso   1.00
C1187  C     0.12051   0.40242   0.87099   0.00000  Uiso   1.00
H1188  H     0.12126   0.37792   0.84338   0.00000  Uiso   1.00
H1189  H     0.10157   0.43175   0.85820   0.00000  Uiso   1.00
C1190  C     0.09927   0.37990   0.90909   0.00000  Uiso   1.00
H1191  H     0.11889   0.35168   0.92225   0.00000  Uiso   1.00
H1192  H     0.09563   0.40459   0.93605   0.00000  Uiso   1.00
C1193  C     0.05624   0.36162   0.89396   0.00000  Uiso   1.00
H1194  H     0.03556   0.38947   0.88137   0.00000  Uiso   1.00
H1195  H     0.04190   0.34541   0.92224   0.00000  Uiso   1.00
H1196  H     0.05893   0.33606   0.86757   0.00000  Uiso   1.00
O1197  O     0.14656   0.57842   0.89051   0.00000  Uiso   1.00
C1198  C     0.18387   0.60415   0.89511   0.00000  Uiso   1.00
H1199  H     0.17988   0.63258   0.87142   0.00000  Uiso   1.00
H1200  H     0.21134   0.58392   0.88639   0.00000  Uiso   1.00
C1201  C     0.19314   0.62393   0.94159   0.00000  Uiso   1.00
H1202  H     0.16410   0.63629   0.95529   0.00000  Uiso   1.00
H1203  H     0.20693   0.59737   0.96369   0.00000  Uiso   1.00
C1204  C     0.22489   0.66220   0.94138   0.00000  Uiso   1.00
H1205  H     0.23097   0.34209   0.97543   0.00000  Uiso   1.00
H1206  H     0.25475   0.64982   0.92929   0.00000  Uiso   1.00
H1207  H     0.21285   0.35674   0.91985   0.00000  Uiso   1.00
O1208  O     0.17098   0.41424   0.61666   0.00000  Uiso   1.00
C1209  C     0.21298   0.40262   0.62921   0.00000  Uiso   1.00
H1210  H     0.21235   0.37889   0.65747   0.00000  Uiso   1.00
H1211  H     0.23207   0.43218   0.64110   0.00000  Uiso   1.00
C1212  C     0.23390   0.37891   0.59161   0.00000  Uiso   1.00
H1213  H     0.21464   0.34974   0.58020   0.00000  Uiso   1.00
H1214  H     0.23649   0.40244   0.56347   0.00000  Uiso   1.00
C1215  C     0.27751   0.36212   0.60655   0.00000  Uiso   1.00
H1216  H     0.29780   0.39085   0.61759   0.00000  Uiso   1.00
H1217  H     0.29165   0.34508   0.57861   0.00000  Uiso   1.00
H1218  H     0.27583   0.33759   0.63402   0.00000  Uiso   1.00
Br1219 Br    0.04524   0.40145   0.77804   0.00000  Uiso   1.00
Br1220 Br    0.29054   0.59464   0.71434   0.00000  Uiso   1.00
Br1221 Br    0.28819   0.40145   0.72214   0.00000  Uiso   1.00
Br1222 Br    0.04277   0.59465   0.78564   0.00000  Uiso   1.00
C1223  C     0.42039   0.49988   0.75506   0.00000  Uiso   1.00
C1224  C     0.57962   0.49987   0.74496   0.00000  Uiso   1.00
C1225  C     0.50182   0.49971   0.66390   0.00000  Uiso   1.00
C1226  C     0.49816   0.49970   0.83609   0.00000  Uiso   1.00
C1227  C     0.52803   0.35736   0.77707   0.00000  Uiso   1.00
C1228  C     0.47076   0.64295   0.72439   0.00000  Uiso   1.00
C1229  C     0.47197   0.35740   0.72294   0.00000  Uiso   1.00
C1230  C     0.52924   0.64291   0.77561   0.00000  Uiso   1.00
C1231  C     0.35430   0.45792   0.75692   0.00000  Uiso   1.00
C1232  C     0.64602   0.54027   0.74215   0.00000  Uiso   1.00
C1233  C     0.64574   0.45791   0.74322   0.00000  Uiso   1.00
C1234  C     0.35397   0.54027   0.75789   0.00000  Uiso   1.00
C1235  C     0.51598   0.53186   0.54562   0.00000  Uiso   1.00
C1236  C     0.50243   0.45337   0.95129   0.00000  Uiso   1.00
C1237  C     0.48366   0.53180   0.95429   0.00000  Uiso   1.00
C1238  C     0.49750   0.45337   0.54875   0.00000  Uiso   1.00
C1239  C     0.51297   0.53640   0.59071   0.00000  Uiso   1.00
C1240  C     0.49671   0.45487   0.90575   0.00000  Uiso   1.00
C1241  C     0.48676   0.53634   0.90921   0.00000  Uiso   1.00
C1242  C     0.50328   0.45489   0.59429   0.00000  Uiso   1.00
C1243  C     0.50597   0.49746   0.61603   0.00000  Uiso   1.00
C1244  C     0.49393   0.49742   0.88396   0.00000  Uiso   1.00
C1245  C     0.50334   0.49213   0.52403   0.00000  Uiso   1.00
C1246  C     0.49641   0.49211   0.97595   0.00000  Uiso   1.00
C1247  C     0.62413   0.49928   0.74011   0.00000  Uiso   1.00
C1248  C     0.37589   0.49929   0.75997   0.00000  Uiso   1.00
H1249  H     0.52570   0.56070   0.52725   0.00000  Uiso   1.00
H1250  H     0.51055   0.42143   0.96673   0.00000  Uiso   1.00
H1251  H     0.47384   0.56062   0.97261   0.00000  Uiso   1.00
H1252  H     0.48948   0.42140   0.53335   0.00000  Uiso   1.00
N1253  N     0.50000   0.61907   0.75000   0.00000  Uiso   1.00
N1254  N     0.50000   0.38093   0.75000   0.00000  Uiso   1.00
O1255  O     0.43892   0.53821   0.74999   0.00000  Uiso   1.00
O1256  O     0.56108   0.46179   0.75000   0.00000  Uiso   1.00
O1257  O     0.56108   0.53821   0.75000   0.00000  Uiso   1.00
O1258  O     0.43892   0.46179   0.74999   0.00000  Uiso   1.00
O1259  O     0.50000   0.53822   0.68453   0.00000  Uiso   1.00
O1260  O     0.50000   0.46178   0.81547   0.00000  Uiso   1.00
O1261  O     0.50000   0.53822   0.81547   0.00000  Uiso   1.00
O1262  O     0.50000   0.46178   0.68453   0.00000  Uiso   1.00
Zn1263 Zn    0.50000   0.55104   0.75000   0.00000  Uiso   1.00
Zn1264 Zn    0.50000   0.44896   0.75000   0.00000  Uiso   1.00
Br1265 Br    0.56578   0.38886   0.81816   0.00000  Uiso   1.00
Br1266 Br    0.42633   0.61272   0.69091   0.00000  Uiso   1.00
Br1267 Br    0.43419   0.38895   0.68185   0.00000  Uiso   1.00
Br1268 Br    0.57368   0.61265   0.80910   0.00000  Uiso   1.00
O1269  O     0.51983   0.57849   0.60936   0.00000  Uiso   1.00
C1270  C     0.48254   0.60426   0.60472   0.00000  Uiso   1.00
H1271  H     0.48651   0.63263   0.62844   0.00000  Uiso   1.00
H1272  H     0.45504   0.58404   0.61339   0.00000  Uiso   1.00
C1273  C     0.47334   0.62416   0.55825   0.00000  Uiso   1.00
H1274  H     0.50240   0.63655   0.54459   0.00000  Uiso   1.00
H1275  H     0.45957   0.59767   0.53609   0.00000  Uiso   1.00
C1276  C     0.44159   0.66246   0.55849   0.00000  Uiso   1.00
H1277  H     0.43556   0.34245   0.52447   0.00000  Uiso   1.00
H1278  H     0.41172   0.65006   0.57052   0.00000  Uiso   1.00
H1279  H     0.45362   0.35693   0.58009   0.00000  Uiso   1.00
O1280  O     0.49581   0.41422   0.88343   0.00000  Uiso   1.00
C1281  C     0.45384   0.40242   0.87099   0.00000  Uiso   1.00
H1282  H     0.45459   0.37792   0.84338   0.00000  Uiso   1.00
H1283  H     0.43490   0.43175   0.85820   0.00000  Uiso   1.00
C1284  C     0.43260   0.37990   0.90909   0.00000  Uiso   1.00
H1285  H     0.45222   0.35168   0.92225   0.00000  Uiso   1.00
H1286  H     0.42896   0.40459   0.93605   0.00000  Uiso   1.00
C1287  C     0.38957   0.36162   0.89396   0.00000  Uiso   1.00
H1288  H     0.36890   0.38947   0.88137   0.00000  Uiso   1.00
H1289  H     0.37524   0.34541   0.92224   0.00000  Uiso   1.00
H1290  H     0.39226   0.33606   0.86757   0.00000  Uiso   1.00
O1291  O     0.47990   0.57842   0.89051   0.00000  Uiso   1.00
C1292  C     0.51720   0.60415   0.89511   0.00000  Uiso   1.00
H1293  H     0.51322   0.63258   0.87142   0.00000  Uiso   1.00
H1294  H     0.54467   0.58392   0.88639   0.00000  Uiso   1.00
C1295  C     0.52647   0.62393   0.94159   0.00000  Uiso   1.00
H1296  H     0.49743   0.63629   0.95529   0.00000  Uiso   1.00
H1297  H     0.54026   0.59737   0.96369   0.00000  Uiso   1.00
C1298  C     0.55823   0.66220   0.94138   0.00000  Uiso   1.00
H1299  H     0.56431   0.34209   0.97543   0.00000  Uiso   1.00
H1300  H     0.58808   0.64982   0.92929   0.00000  Uiso   1.00
H1301  H     0.54618   0.35674   0.91985   0.00000  Uiso   1.00
O1302  O     0.50431   0.41424   0.61666   0.00000  Uiso   1.00
C1303  C     0.54631   0.40262   0.62921   0.00000  Uiso   1.00
H1304  H     0.54569   0.37889   0.65747   0.00000  Uiso   1.00
H1305  H     0.56541   0.43218   0.64110   0.00000  Uiso   1.00
C1306  C     0.56723   0.37891   0.59161   0.00000  Uiso   1.00
H1307  H     0.54797   0.34974   0.58020   0.00000  Uiso   1.00
H1308  H     0.56982   0.40244   0.56347   0.00000  Uiso   1.00
C1309  C     0.61084   0.36212   0.60655   0.00000  Uiso   1.00
H1310  H     0.63113   0.39085   0.61759   0.00000  Uiso   1.00
H1311  H     0.62498   0.34508   0.57861   0.00000  Uiso   1.00
H1312  H     0.60917   0.33759   0.63402   0.00000  Uiso   1.00
Br1313 Br    0.37858   0.40145   0.77804   0.00000  Uiso   1.00
Br1314 Br    0.62387   0.59464   0.71434   0.00000  Uiso   1.00
Br1315 Br    0.62152   0.40145   0.72214   0.00000  Uiso   1.00
Br1316 Br    0.37610   0.59465   0.78564   0.00000  Uiso   1.00
C1317  C     0.75372   0.49988   0.75506   0.00000  Uiso   1.00
C1318  C     0.91295   0.49987   0.74496   0.00000  Uiso   1.00
C1319  C     0.83515   0.49971   0.66390   0.00000  Uiso   1.00
C1320  C     0.83150   0.49970   0.83609   0.00000  Uiso   1.00
C1321  C     0.86136   0.35736   0.77707   0.00000  Uiso   1.00
C1322  C     0.80409   0.64295   0.72439   0.00000  Uiso   1.00
C1323  C     0.80530   0.35740   0.72294   0.00000  Uiso   1.00
C1324  C     0.86257   0.64291   0.77561   0.00000  Uiso   1.00
C1325  C     0.68763   0.45792   0.75692   0.00000  Uiso   1.00
C1326  C     0.97936   0.54027   0.74215   0.00000  Uiso   1.00
C1327  C     0.97908   0.45791   0.74322   0.00000  Uiso   1.00
C1328  C     0.68731   0.54027   0.75789   0.00000  Uiso   1.00
C1329  C     0.84931   0.53186   0.54562   0.00000  Uiso   1.00
C1330  C     0.83577   0.45337   0.95129   0.00000  Uiso   1.00
C1331  C     0.81700   0.53180   0.95429   0.00000  Uiso   1.00
C1332  C     0.83084   0.45337   0.54875   0.00000  Uiso   1.00
C1333  C     0.84630   0.53640   0.59071   0.00000  Uiso   1.00
C1334  C     0.83004   0.45487   0.90575   0.00000  Uiso   1.00
C1335  C     0.82010   0.53634   0.90921   0.00000  Uiso   1.00
C1336  C     0.83661   0.45489   0.59429   0.00000  Uiso   1.00
C1337  C     0.83931   0.49746   0.61603   0.00000  Uiso   1.00
C1338  C     0.82727   0.49742   0.88396   0.00000  Uiso   1.00
C1339  C     0.83668   0.49213   0.52403   0.00000  Uiso   1.00
C1340  C     0.82975   0.49211   0.97595   0.00000  Uiso   1.00
C1341  C     0.95746   0.49928   0.74011   0.00000  Uiso   1.00
C1342  C     0.70923   0.49929   0.75997   0.00000  Uiso   1.00
H1343  H     0.85903   0.56070   0.52725   0.00000  Uiso   1.00
H1344  H     0.84388   0.42143   0.96673   0.00000  Uiso   1.00
H1345  H     0.80718   0.56062   0.97261   0.00000  Uiso   1.00
H1346  H     0.82281   0.42140   0.53335   0.00000  Uiso   1.00
N1347  N     0.83333   0.61907   0.75000   0.00000  Uiso   1.00
N1348  N     0.83333   0.38093   0.75000   0.00000  Uiso   1.00
O1349  O     0.77226   0.53821   0.74999   0.00000  Uiso   1.00
O1350  O     0.89441   0.46179   0.75000   0.00000  Uiso   1.00
O1351  O     0.89441   0.53821   0.75000   0.00000  Uiso   1.00
O1352  O     0.77226   0.46179   0.74999   0.00000  Uiso   1.00
O1353  O     0.83333   0.53822   0.68453   0.00000  Uiso   1.00
O1354  O     0.83334   0.46178   0.81547   0.00000  Uiso   1.00
O1355  O     0.83334   0.53822   0.81547   0.00000  Uiso   1.00
O1356  O     0.83333   0.46178   0.68453   0.00000  Uiso   1.00
Zn1357 Zn    0.83333   0.55104   0.75000   0.00000  Uiso   1.00
Zn1358 Zn    0.83333   0.44896   0.75000   0.00000  Uiso   1.00
Br1359 Br    0.89911   0.38886   0.81816   0.00000  Uiso   1.00
Br1360 Br    0.75967   0.61272   0.69091   0.00000  Uiso   1.00
Br1361 Br    0.76753   0.38895   0.68185   0.00000  Uiso   1.00
Br1362 Br    0.90701   0.61265   0.80910   0.00000  Uiso   1.00
O1363  O     0.85317   0.57849   0.60936   0.00000  Uiso   1.00
C1364  C     0.81587   0.60426   0.60472   0.00000  Uiso   1.00
H1365  H     0.81984   0.63263   0.62844   0.00000  Uiso   1.00
H1366  H     0.78837   0.58404   0.61339   0.00000  Uiso   1.00
C1367  C     0.80667   0.62416   0.55825   0.00000  Uiso   1.00
H1368  H     0.83573   0.63655   0.54459   0.00000  Uiso   1.00
H1369  H     0.79290   0.59767   0.53609   0.00000  Uiso   1.00
C1370  C     0.77492   0.66246   0.55849   0.00000  Uiso   1.00
H1371  H     0.76889   0.34245   0.52447   0.00000  Uiso   1.00
H1372  H     0.74505   0.65006   0.57052   0.00000  Uiso   1.00
H1373  H     0.78695   0.35693   0.58009   0.00000  Uiso   1.00
O1374  O     0.82914   0.41422   0.88343   0.00000  Uiso   1.00
C1375  C     0.78718   0.40242   0.87099   0.00000  Uiso   1.00
H1376  H     0.78793   0.37792   0.84338   0.00000  Uiso   1.00
H1377  H     0.76823   0.43175   0.85820   0.00000  Uiso   1.00
C1378  C     0.76593   0.37990   0.90909   0.00000  Uiso   1.00
H1379  H     0.78556   0.35168   0.92225   0.00000  Uiso   1.00
H1380  H     0.76229   0.40459   0.93605   0.00000  Uiso   1.00
C1381  C     0.72290   0.36162   0.89396   0.00000  Uiso   1.00
H1382  H     0.70223   0.38947   0.88137   0.00000  Uiso   1.00
H1383  H     0.70857   0.34541   0.92224   0.00000  Uiso   1.00
H1384  H     0.72559   0.33606   0.86757   0.00000  Uiso   1.00
O1385  O     0.81323   0.57842   0.89051   0.00000  Uiso   1.00
C1386  C     0.85054   0.60415   0.89511   0.00000  Uiso   1.00
H1387  H     0.84655   0.63258   0.87142   0.00000  Uiso   1.00
H1388  H     0.87801   0.58392   0.88639   0.00000  Uiso   1.00
C1389  C     0.85981   0.62393   0.94159   0.00000  Uiso   1.00
H1390  H     0.83076   0.63629   0.95529   0.00000  Uiso   1.00
H1391  H     0.87359   0.59737   0.96369   0.00000  Uiso   1.00
C1392  C     0.89156   0.66220   0.94138   0.00000  Uiso   1.00
H1393  H     0.89764   0.34209   0.97543   0.00000  Uiso   1.00
H1394  H     0.92141   0.64982   0.92929   0.00000  Uiso   1.00
H1395  H     0.87952   0.35674   0.91985   0.00000  Uiso   1.00
O1396  O     0.83765   0.41424   0.61666   0.00000  Uiso   1.00
C1397  C     0.87964   0.40262   0.62921   0.00000  Uiso   1.00
H1398  H     0.87902   0.37889   0.65747   0.00000  Uiso   1.00
H1399  H     0.89874   0.43218   0.64110   0.00000  Uiso   1.00
C1400  C     0.90057   0.37891   0.59161   0.00000  Uiso   1.00
H1401  H     0.88131   0.34974   0.58020   0.00000  Uiso   1.00
H1402  H     0.90315   0.40244   0.56347   0.00000  Uiso   1.00
C1403  C     0.94418   0.36212   0.60655   0.00000  Uiso   1.00
H1404  H     0.96447   0.39085   0.61759   0.00000  Uiso   1.00
H1405  H     0.95831   0.34508   0.57861   0.00000  Uiso   1.00
H1406  H     0.94250   0.33759   0.63402   0.00000  Uiso   1.00
Br1407 Br    0.71191   0.40145   0.77804   0.00000  Uiso   1.00
Br1408 Br    0.95721   0.59464   0.71434   0.00000  Uiso   1.00
Br1409 Br    0.95485   0.40145   0.72214   0.00000  Uiso   1.00
Br1410 Br    0.70943   0.59465   0.78564   0.00000  Uiso   1.00
C1411  C     0.08705   0.83321   0.75506   0.00000  Uiso   1.00
C1412  C     0.24629   0.83321   0.74496   0.00000  Uiso   1.00
C1413  C     0.16848   0.83305   0.66390   0.00000  Uiso   1.00
C1414  C     0.16483   0.83303   0.83609   0.00000  Uiso   1.00
C1415  C     0.19469   0.69069   0.77707   0.00000  Uiso   1.00
C1416  C     0.13743   0.97628   0.72439   0.00000  Uiso   1.00
C1417  C     0.13864   0.69073   0.72294   0.00000  Uiso   1.00
C1418  C     0.19591   0.97625   0.77561   0.00000  Uiso   1.00
C1419  C     0.02097   0.79125   0.75692   0.00000  Uiso   1.00
C1420  C     0.31269   0.87360   0.74215   0.00000  Uiso   1.00
C1421  C     0.31241   0.79125   0.74322   0.00000  Uiso   1.00
C1422  C     0.02064   0.87360   0.75789   0.00000  Uiso   1.00
C1423  C     0.18265   0.86520   0.54562   0.00000  Uiso   1.00
C1424  C     0.16910   0.78671   0.95129   0.00000  Uiso   1.00
C1425  C     0.15033   0.86513   0.95429   0.00000  Uiso   1.00
C1426  C     0.16417   0.78670   0.54875   0.00000  Uiso   1.00
C1427  C     0.17963   0.86973   0.59071   0.00000  Uiso   1.00
C1428  C     0.16337   0.78821   0.90575   0.00000  Uiso   1.00
C1429  C     0.15343   0.86967   0.90921   0.00000  Uiso   1.00
C1430  C     0.16995   0.78822   0.59429   0.00000  Uiso   1.00
C1431  C     0.17264   0.83079   0.61603   0.00000  Uiso   1.00
C1432  C     0.16060   0.83076   0.88396   0.00000  Uiso   1.00
C1433  C     0.17001   0.82546   0.52403   0.00000  Uiso   1.00
C1434  C     0.16308   0.82544   0.97595   0.00000  Uiso   1.00
C1435  C     0.29079   0.83262   0.74011   0.00000  Uiso   1.00
C1436  C     0.04256   0.83262   0.75997   0.00000  Uiso   1.00
H1437  H     0.19236   0.89404   0.52725   0.00000  Uiso   1.00
H1438  H     0.17721   0.75476   0.96673   0.00000  Uiso   1.00
H1439  H     0.14051   0.89396   0.97261   0.00000  Uiso   1.00
H1440  H     0.15614   0.75473   0.53335   0.00000  Uiso   1.00
N1441  N     0.16667   0.95240   0.75000   0.00000  Uiso   1.00
N1442  N     0.16667   0.71427   0.75000   0.00000  Uiso   1.00
O1443  O     0.10559   0.87154   0.74999   0.00000  Uiso   1.00
O1444  O     0.22774   0.79513   0.75000   0.00000  Uiso   1.00
O1445  O     0.22774   0.87154   0.75000   0.00000  Uiso   1.00
O1446  O     0.10559   0.79513   0.74999   0.00000  Uiso   1.00
O1447  O     0.16666   0.87155   0.68453   0.00000  Uiso   1.00
O1448  O     0.16667   0.79511   0.81547   0.00000  Uiso   1.00
O1449  O     0.16667   0.87155   0.81547   0.00000  Uiso   1.00
O1450  O     0.16666   0.79511   0.68453   0.00000  Uiso   1.00
Zn1451 Zn    0.16667   0.88437   0.75000   0.00000  Uiso   1.00
Zn1452 Zn    0.16667   0.78229   0.75000   0.00000  Uiso   1.00
Br1453 Br    0.23245   0.72220   0.81816   0.00000  Uiso   1.00
Br1454 Br    0.09300   0.94605   0.69091   0.00000  Uiso   1.00
Br1455 Br    0.10086   0.72228   0.68185   0.00000  Uiso   1.00
Br1456 Br    0.24034   0.94598   0.80910   0.00000  Uiso   1.00
O1457  O     0.18650   0.91182   0.60936   0.00000  Uiso   1.00
C1458  C     0.14920   0.93759   0.60472   0.00000  Uiso   1.00
H1459  H     0.15318   0.96597   0.62844   0.00000  Uiso   1.00
H1460  H     0.12170   0.91737   0.61339   0.00000  Uiso   1.00
C1461  C     0.14000   0.95749   0.55825   0.00000  Uiso   1.00
H1462  H     0.16906   0.96988   0.54459   0.00000  Uiso   1.00
H1463  H     0.12624   0.93100   0.53609   0.00000  Uiso   1.00
C1464  C     0.10826   0.99579   0.55849   0.00000  Uiso   1.00
H1465  H     0.10222   0.67579   0.52447   0.00000  Uiso   1.00
H1466  H     0.07838   0.98340   0.57052   0.00000  Uiso   1.00
H1467  H     0.12028   0.69026   0.58009   0.00000  Uiso   1.00
O1468  O     0.16247   0.74756   0.88343   0.00000  Uiso   1.00
C1469  C     0.12051   0.73575   0.87099   0.00000  Uiso   1.00
H1470  H     0.12126   0.71125   0.84338   0.00000  Uiso   1.00
H1471  H     0.10157   0.76508   0.85820   0.00000  Uiso   1.00
C1472  C     0.09927   0.71323   0.90909   0.00000  Uiso   1.00
H1473  H     0.11889   0.68501   0.92225   0.00000  Uiso   1.00
H1474  H     0.09563   0.73792   0.93605   0.00000  Uiso   1.00
C1475  C     0.05624   0.69496   0.89396   0.00000  Uiso   1.00
H1476  H     0.03556   0.72280   0.88137   0.00000  Uiso   1.00
H1477  H     0.04190   0.67874   0.92224   0.00000  Uiso   1.00
H1478  H     0.05893   0.66939   0.86757   0.00000  Uiso   1.00
O1479  O     0.14656   0.91176   0.89051   0.00000  Uiso   1.00
C1480  C     0.18387   0.93749   0.89511   0.00000  Uiso   1.00
H1481  H     0.17988   0.96592   0.87142   0.00000  Uiso   1.00
H1482  H     0.21134   0.91725   0.88639   0.00000  Uiso   1.00
C1483  C     0.19314   0.95726   0.94159   0.00000  Uiso   1.00
H1484  H     0.16410   0.96962   0.95529   0.00000  Uiso   1.00
H1485  H     0.20693   0.93070   0.96369   0.00000  Uiso   1.00
C1486  C     0.22489   0.99553   0.94138   0.00000  Uiso   1.00
H1487  H     0.23097   0.67542   0.97543   0.00000  Uiso   1.00
H1488  H     0.25475   0.98315   0.92929   0.00000  Uiso   1.00
H1489  H     0.21285   0.69007   0.91985   0.00000  Uiso   1.00
O1490  O     0.17098   0.74758   0.61666   0.00000  Uiso   1.00
C1491  C     0.21298   0.73596   0.62921   0.00000  Uiso   1.00
H1492  H     0.21235   0.71222   0.65747   0.00000  Uiso   1.00
H1493  H     0.23207   0.76552   0.64110   0.00000  Uiso   1.00
C1494  C     0.23390   0.71224   0.59161   0.00000  Uiso   1.00
H1495  H     0.21464   0.68308   0.58020   0.00000  Uiso   1.00
H1496  H     0.23649   0.73577   0.56347   0.00000  Uiso   1.00
C1497  C     0.27751   0.69546   0.60655   0.00000  Uiso   1.00
H1498  H     0.29780   0.72419   0.61759   0.00000  Uiso   1.00
H1499  H     0.29165   0.67841   0.57861   0.00000  Uiso   1.00
H1500  H     0.27583   0.67092   0.63402   0.00000  Uiso   1.00
Br1501 Br    0.04524   0.73478   0.77804   0.00000  Uiso   1.00
Br1502 Br    0.29054   0.92798   0.71434   0.00000  Uiso   1.00
Br1503 Br    0.28819   0.73478   0.72214   0.00000  Uiso   1.00
Br1504 Br    0.04277   0.92798   0.78564   0.00000  Uiso   1.00
C1505  C     0.42039   0.83321   0.75506   0.00000  Uiso   1.00
C1506  C     0.57962   0.83321   0.74496   0.00000  Uiso   1.00
C1507  C     0.50182   0.83305   0.66390   0.00000  Uiso   1.00
C1508  C     0.49816   0.83303   0.83609   0.00000  Uiso   1.00
C1509  C     0.52803   0.69069   0.77707   0.00000  Uiso   1.00
C1510  C     0.47076   0.97628   0.72439   0.00000  Uiso   1.00
C1511  C     0.47197   0.69073   0.72294   0.00000  Uiso   1.00
C1512  C     0.52924   0.97625   0.77561   0.00000  Uiso   1.00
C1513  C     0.35430   0.79125   0.75692   0.00000  Uiso   1.00
C1514  C     0.64602   0.87360   0.74215   0.00000  Uiso   1.00
C1515  C     0.64574   0.79125   0.74322   0.00000  Uiso   1.00
C1516  C     0.35397   0.87360   0.75789   0.00000  Uiso   1.00
C1517  C     0.51598   0.86520   0.54562   0.00000  Uiso   1.00
C1518  C     0.50243   0.78671   0.95129   0.00000  Uiso   1.00
C1519  C     0.48366   0.86513   0.95429   0.00000  Uiso   1.00
C1520  C     0.49750   0.78670   0.54875   0.00000  Uiso   1.00
C1521  C     0.51297   0.86973   0.59071   0.00000  Uiso   1.00
C1522  C     0.49671   0.78821   0.90575   0.00000  Uiso   1.00
C1523  C     0.48676   0.86967   0.90921   0.00000  Uiso   1.00
C1524  C     0.50328   0.78822   0.59429   0.00000  Uiso   1.00
C1525  C     0.50597   0.83079   0.61603   0.00000  Uiso   1.00
C1526  C     0.49393   0.83076   0.88396   0.00000  Uiso   1.00
C1527  C     0.50334   0.82546   0.52403   0.00000  Uiso   1.00
C1528  C     0.49641   0.82544   0.97595   0.00000  Uiso   1.00
C1529  C     0.62413   0.83262   0.74011   0.00000  Uiso   1.00
C1530  C     0.37589   0.83262   0.75997   0.00000  Uiso   1.00
H1531  H     0.52570   0.89404   0.52725   0.00000  Uiso   1.00
H1532  H     0.51055   0.75476   0.96673   0.00000  Uiso   1.00
H1533  H     0.47384   0.89396   0.97261   0.00000  Uiso   1.00
H1534  H     0.48948   0.75473   0.53335   0.00000  Uiso   1.00
N1535  N     0.50000   0.95240   0.75000   0.00000  Uiso   1.00
N1536  N     0.50000   0.71427   0.75000   0.00000  Uiso   1.00
O1537  O     0.43892   0.87154   0.74999   0.00000  Uiso   1.00
O1538  O     0.56108   0.79513   0.75000   0.00000  Uiso   1.00
O1539  O     0.56108   0.87154   0.75000   0.00000  Uiso   1.00
O1540  O     0.43892   0.79513   0.74999   0.00000  Uiso   1.00
O1541  O     0.50000   0.87155   0.68453   0.00000  Uiso   1.00
O1542  O     0.50000   0.79511   0.81547   0.00000  Uiso   1.00
O1543  O     0.50000   0.87155   0.81547   0.00000  Uiso   1.00
O1544  O     0.50000   0.79511   0.68453   0.00000  Uiso   1.00
Zn1545 Zn    0.50000   0.88437   0.75000   0.00000  Uiso   1.00
Zn1546 Zn    0.50000   0.78229   0.75000   0.00000  Uiso   1.00
Br1547 Br    0.56578   0.72220   0.81816   0.00000  Uiso   1.00
Br1548 Br    0.42633   0.94605   0.69091   0.00000  Uiso   1.00
Br1549 Br    0.43419   0.72228   0.68185   0.00000  Uiso   1.00
Br1550 Br    0.57368   0.94598   0.80910   0.00000  Uiso   1.00
O1551  O     0.51983   0.91182   0.60936   0.00000  Uiso   1.00
C1552  C     0.48254   0.93759   0.60472   0.00000  Uiso   1.00
H1553  H     0.48651   0.96597   0.62844   0.00000  Uiso   1.00
H1554  H     0.45504   0.91737   0.61339   0.00000  Uiso   1.00
C1555  C     0.47334   0.95749   0.55825   0.00000  Uiso   1.00
H1556  H     0.50240   0.96988   0.54459   0.00000  Uiso   1.00
H1557  H     0.45957   0.93100   0.53609   0.00000  Uiso   1.00
C1558  C     0.44159   0.99579   0.55849   0.00000  Uiso   1.00
H1559  H     0.43556   0.67579   0.52447   0.00000  Uiso   1.00
H1560  H     0.41172   0.98340   0.57052   0.00000  Uiso   1.00
H1561  H     0.45362   0.69026   0.58009   0.00000  Uiso   1.00
O1562  O     0.49581   0.74756   0.88343   0.00000  Uiso   1.00
C1563  C     0.45384   0.73575   0.87099   0.00000  Uiso   1.00
H1564  H     0.45459   0.71125   0.84338   0.00000  Uiso   1.00
H1565  H     0.43490   0.76508   0.85820   0.00000  Uiso   1.00
C1566  C     0.43260   0.71323   0.90909   0.00000  Uiso   1.00
H1567  H     0.45222   0.68501   0.92225   0.00000  Uiso   1.00
H1568  H     0.42896   0.73792   0.93605   0.00000  Uiso   1.00
C1569  C     0.38957   0.69496   0.89396   0.00000  Uiso   1.00
H1570  H     0.36890   0.72280   0.88137   0.00000  Uiso   1.00
H1571  H     0.37524   0.67874   0.92224   0.00000  Uiso   1.00
H1572  H     0.39226   0.66939   0.86757   0.00000  Uiso   1.00
O1573  O     0.47990   0.91176   0.89051   0.00000  Uiso   1.00
C1574  C     0.51720   0.93749   0.89511   0.00000  Uiso   1.00
H1575  H     0.51322   0.96592   0.87142   0.00000  Uiso   1.00
H1576  H     0.54467   0.91725   0.88639   0.00000  Uiso   1.00
C1577  C     0.52647   0.95726   0.94159   0.00000  Uiso   1.00
H1578  H     0.49743   0.96962   0.95529   0.00000  Uiso   1.00
H1579  H     0.54026   0.93070   0.96369   0.00000  Uiso   1.00
C1580  C     0.55823   0.99553   0.94138   0.00000  Uiso   1.00
H1581  H     0.56431   0.67542   0.97543   0.00000  Uiso   1.00
H1582  H     0.58808   0.98315   0.92929   0.00000  Uiso   1.00
H1583  H     0.54618   0.69007   0.91985   0.00000  Uiso   1.00
O1584  O     0.50431   0.74758   0.61666   0.00000  Uiso   1.00
C1585  C     0.54631   0.73596   0.62921   0.00000  Uiso   1.00
H1586  H     0.54569   0.71222   0.65747   0.00000  Uiso   1.00
H1587  H     0.56541   0.76552   0.64110   0.00000  Uiso   1.00
C1588  C     0.56723   0.71224   0.59161   0.00000  Uiso   1.00
H1589  H     0.54797   0.68308   0.58020   0.00000  Uiso   1.00
H1590  H     0.56982   0.73577   0.56347   0.00000  Uiso   1.00
C1591  C     0.61084   0.69546   0.60655   0.00000  Uiso   1.00
H1592  H     0.63113   0.72419   0.61759   0.00000  Uiso   1.00
H1593  H     0.62498   0.67841   0.57861   0.00000  Uiso   1.00
H1594  H     0.60917   0.67092   0.63402   0.00000  Uiso   1.00
Br1595 Br    0.37858   0.73478   0.77804   0.00000  Uiso   1.00
Br1596 Br    0.62387   0.92798   0.71434   0.00000  Uiso   1.00
Br1597 Br    0.62152   0.73478   0.72214   0.00000  Uiso   1.00
Br1598 Br    0.37610   0.92798   0.78564   0.00000  Uiso   1.00
C1599  C     0.75372   0.83321   0.75506   0.00000  Uiso   1.00
C1600  C     0.91295   0.83321   0.74496   0.00000  Uiso   1.00
C1601  C     0.83515   0.83305   0.66390   0.00000  Uiso   1.00
C1602  C     0.83150   0.83303   0.83609   0.00000  Uiso   1.00
C1603  C     0.86136   0.69069   0.77707   0.00000  Uiso   1.00
C1604  C     0.80409   0.97628   0.72439   0.00000  Uiso   1.00
C1605  C     0.80530   0.69073   0.72294   0.00000  Uiso   1.00
C1606  C     0.86257   0.97625   0.77561   0.00000  Uiso   1.00
C1607  C     0.68763   0.79125   0.75692   0.00000  Uiso   1.00
C1608  C     0.97936   0.87360   0.74215   0.00000  Uiso   1.00
C1609  C     0.97908   0.79125   0.74322   0.00000  Uiso   1.00
C1610  C     0.68731   0.87360   0.75789   0.00000  Uiso   1.00
C1611  C     0.84931   0.86520   0.54562   0.00000  Uiso   1.00
C1612  C     0.83577   0.78671   0.95129   0.00000  Uiso   1.00
C1613  C     0.81700   0.86513   0.95429   0.00000  Uiso   1.00
C1614  C     0.83084   0.78670   0.54875   0.00000  Uiso   1.00
C1615  C     0.84630   0.86973   0.59071   0.00000  Uiso   1.00
C1616  C     0.83004   0.78821   0.90575   0.00000  Uiso   1.00
C1617  C     0.82010   0.86967   0.90921   0.00000  Uiso   1.00
C1618  C     0.83661   0.78822   0.59429   0.00000  Uiso   1.00
C1619  C     0.83931   0.83079   0.61603   0.00000  Uiso   1.00
C1620  C     0.82727   0.83076   0.88396   0.00000  Uiso   1.00
C1621  C     0.83668   0.82546   0.52403   0.00000  Uiso   1.00
C1622  C     0.82975   0.82544   0.97595   0.00000  Uiso   1.00
C1623  C     0.95746   0.83262   0.74011   0.00000  Uiso   1.00
C1624  C     0.70923   0.83262   0.75997   0.00000  Uiso   1.00
H1625  H     0.85903   0.89404   0.52725   0.00000  Uiso   1.00
H1626  H     0.84388   0.75476   0.96673   0.00000  Uiso   1.00
H1627  H     0.80718   0.89396   0.97261   0.00000  Uiso   1.00
H1628  H     0.82281   0.75473   0.53335   0.00000  Uiso   1.00
N1629  N     0.83333   0.95240   0.75000   0.00000  Uiso   1.00
N1630  N     0.83333   0.71427   0.75000   0.00000  Uiso   1.00
O1631  O     0.77226   0.87154   0.74999   0.00000  Uiso   1.00
O1632  O     0.89441   0.79513   0.75000   0.00000  Uiso   1.00
O1633  O     0.89441   0.87154   0.75000   0.00000  Uiso   1.00
O1634  O     0.77226   0.79513   0.74999   0.00000  Uiso   1.00
O1635  O     0.83333   0.87155   0.68453   0.00000  Uiso   1.00
O1636  O     0.83334   0.79511   0.81547   0.00000  Uiso   1.00
O1637  O     0.83334   0.87155   0.81547   0.00000  Uiso   1.00
O1638  O     0.83333   0.79511   0.68453   0.00000  Uiso   1.00
Zn1639 Zn    0.83333   0.88437   0.75000   0.00000  Uiso   1.00
Zn1640 Zn    0.83333   0.78229   0.75000   0.00000  Uiso   1.00
Br1641 Br    0.89911   0.72220   0.81816   0.00000  Uiso   1.00
Br1642 Br    0.75967   0.94605   0.69091   0.00000  Uiso   1.00
Br1643 Br    0.76753   0.72228   0.68185   0.00000  Uiso   1.00
Br1644 Br    0.90701   0.94598   0.80910   0.00000  Uiso   1.00
O1645  O     0.85317   0.91182   0.60936   0.00000  Uiso   1.00
C1646  C     0.81587   0.93759   0.60472   0.00000  Uiso   1.00
H1647  H     0.81984   0.96597   0.62844   0.00000  Uiso   1.00
H1648  H     0.78837   0.91737   0.61339   0.00000  Uiso   1.00
C1649  C     0.80667   0.95749   0.55825   0.00000  Uiso   1.00
H1650  H     0.83573   0.96988   0.54459   0.00000  Uiso   1.00
H1651  H     0.79290   0.93100   0.53609   0.00000  Uiso   1.00
C1652  C     0.77492   0.99579   0.55849   0.00000  Uiso   1.00
H1653  H     0.76889   0.67579   0.52447   0.00000  Uiso   1.00
H1654  H     0.74505   0.98340   0.57052   0.00000  Uiso   1.00
H1655  H     0.78695   0.69026   0.58009   0.00000  Uiso   1.00
O1656  O     0.82914   0.74756   0.88343   0.00000  Uiso   1.00
C1657  C     0.78718   0.73575   0.87099   0.00000  Uiso   1.00
H1658  H     0.78793   0.71125   0.84338   0.00000  Uiso   1.00
H1659  H     0.76823   0.76508   0.85820   0.00000  Uiso   1.00
C1660  C     0.76593   0.71323   0.90909   0.00000  Uiso   1.00
H1661  H     0.78556   0.68501   0.92225   0.00000  Uiso   1.00
H1662  H     0.76229   0.73792   0.93605   0.00000  Uiso   1.00
C1663  C     0.72290   0.69496   0.89396   0.00000  Uiso   1.00
H1664  H     0.70223   0.72280   0.88137   0.00000  Uiso   1.00
H1665  H     0.70857   0.67874   0.92224   0.00000  Uiso   1.00
H1666  H     0.72559   0.66939   0.86757   0.00000  Uiso   1.00
O1667  O     0.81323   0.91176   0.89051   0.00000  Uiso   1.00
C1668  C     0.85054   0.93749   0.89511   0.00000  Uiso   1.00
H1669  H     0.84655   0.96592   0.87142   0.00000  Uiso   1.00
H1670  H     0.87801   0.91725   0.88639   0.00000  Uiso   1.00
C1671  C     0.85981   0.95726   0.94159   0.00000  Uiso   1.00
H1672  H     0.83076   0.96962   0.95529   0.00000  Uiso   1.00
H1673  H     0.87359   0.93070   0.96369   0.00000  Uiso   1.00
C1674  C     0.89156   0.99553   0.94138   0.00000  Uiso   1.00
H1675  H     0.89764   0.67542   0.97543   0.00000  Uiso   1.00
H1676  H     0.92141   0.98315   0.92929   0.00000  Uiso   1.00
H1677  H     0.87952   0.69007   0.91985   0.00000  Uiso   1.00
O1678  O     0.83765   0.74758   0.61666   0.00000  Uiso   1.00
C1679  C     0.87964   0.73596   0.62921   0.00000  Uiso   1.00
H1680  H     0.87902   0.71222   0.65747   0.00000  Uiso   1.00
H1681  H     0.89874   0.76552   0.64110   0.00000  Uiso   1.00
C1682  C     0.90057   0.71224   0.59161   0.00000  Uiso   1.00
H1683  H     0.88131   0.68308   0.58020   0.00000  Uiso   1.00
H1684  H     0.90315   0.73577   0.56347   0.00000  Uiso   1.00
C1685  C     0.94418   0.69546   0.60655   0.00000  Uiso   1.00
H1686  H     0.96447   0.72419   0.61759   0.00000  Uiso   1.00
H1687  H     0.95831   0.67841   0.57861   0.00000  Uiso   1.00
H1688  H     0.94250   0.67092   0.63402   0.00000  Uiso   1.00
Br1689 Br    0.71191   0.73478   0.77804   0.00000  Uiso   1.00
Br1690 Br    0.95721   0.92798   0.71434   0.00000  Uiso   1.00
Br1691 Br    0.95485   0.73478   0.72214   0.00000  Uiso   1.00
Br1692 Br    0.70943   0.92798   0.78564   0.00000  Uiso   1.00
loop_
_geom_bond_atom_site_label_1
_geom_bond_atom_site_label_2
_geom_bond_distance
_geom_bond_site_symmetry_2
_ccdc_geom_bond_type
C1     O33     1.297   .     A
C1     C26     1.445   .     S
C1     O36     1.291   .     A
C2     O35     1.297   .     A
C2     O34     1.291   .     A
C2     C25     1.445   .     S
C3     O40     1.291   .     A
C3     C21     1.470   .     S
C3     O37     1.306   .     A
C4     C22     1.470   .     S
C4     O39     1.306   .     A
C4     O38     1.291   .     A
C5     N32     1.369   .     A
C5     Br43    1.923   .     S
C5     C572    1.419   1_545 S
C6     N31     1.374   .     A
C6     Br44    1.918   .     S
C6     C289    1.419   .     S
C7     Br45    1.923   .     S
C7     N32     1.369   .     A
C7     C570    1.419   1_545 S
C8     N31     1.374   .     A
C8     Br46    1.918   .     S
C8     C287    1.419   .     S
C9     Br91    1.938   .     S
C9     C26     1.410   .     A
C9     C199    1.380   1_455 S
C10    Br92    1.933   .     S
C10    C25     1.404   .     A
C10    C106    1.378   .     S
C11    C25     1.410   .     A
C11    Br93    1.938   .     S
C11    C103    1.380   .     S
C12    Br94    1.933   .     S
C12    C26     1.404   .     A
C12    C198    1.378   1_455 S
C13    C23     1.396   .     A
C13    C17     1.386   .     A
C13    H27     1.079   .     S
C14    C18     1.384   .     A
C14    C24     1.392   .     A
C14    H28     1.081   .     S
C15    C19     1.386   .     A
C15    H29     1.079   .     S
C15    C24     1.396   .     A
C16    H30     1.081   .     S
C16    C20     1.383   .     A
C16    C23     1.392   .     A
C17    C21     1.413   .     A
C17    O47     1.383   .     S
C18    O58     1.383   .     S
C18    C22     1.425   .     A
C19    C22     1.413   .     A
C19    O69     1.383   .     S
C20    O80     1.383   .     S
C20    C21     1.425   .     A
C23    C870    1.462   1_554 S
C24    C869    1.462   .     S
N31    Zn41    2.018   .     S
N32    Zn42    2.018   .     S
O33    Zn41    1.996   .     S
O34    Zn42    1.996   .     S
O35    Zn41    1.996   .     S
O36    Zn42    1.996   .     S
O37    Zn41    2.024   .     S
O38    Zn42    2.024   .     S
O39    Zn41    2.024   .     S
O40    Zn42    2.024   .     S
O47    C48     1.419   .     S
C48    C51     1.540   .     S
C48    H50     1.113   .     S
C48    H49     1.110   .     S
C51    H52     1.108   .     S
C51    H53     1.108   .     S
C51    C54     1.526   .     S
C54    H56     1.111   .     S
C54    H337    1.111   .     S
C54    H339    1.107   .     S
H55    C618    1.111   1_545 S
H57    C618    1.107   1_545 S
O58    C59     1.418   .     S
C59    H60     1.111   .     S
C59    H61     1.116   .     S
C59    C62     1.534   .     S
C62    H64     1.111   .     S
C62    H63     1.106   .     S
C62    C65     1.526   .     S
C65    H67     1.110   .     S
C65    H68     1.111   .     S
C65    H66     1.111   .     S
O69    C70     1.419   .     S
C70    H71     1.110   .     S
C70    C73     1.539   .     S
C70    H72     1.113   .     S
C73    H74     1.108   .     S
C73    H75     1.107   .     S
C73    C76     1.526   .     S
C76    H78     1.111   .     S
C76    H359    1.111   .     S
C76    H361    1.107   .     S
H77    C640    1.111   1_545 S
H79    C640    1.107   1_545 S
O80    C81     1.418   .     S
C81    H82     1.111   .     S
C81    H83     1.116   .     S
C81    C84     1.534   .     S
C84    C87     1.525   .     S
C84    H86     1.110   .     S
C84    H85     1.106   .     S
C87    H88     1.111   .     S
C87    H89     1.110   .     S
C87    H90     1.111   .     S
C95    O127    1.297   .     A
C95    C120    1.445   .     S
C95    O130    1.291   .     A
C96    O129    1.297   .     A
C96    O128    1.291   .     A
C96    C119    1.445   .     S
C97    O134    1.291   .     A
C97    C115    1.470   .     S
C97    O131    1.306   .     A
C98    C116    1.470   .     S
C98    O133    1.306   .     A
C98    O132    1.291   .     A
C99    N126    1.369   .     A
C99    Br137   1.923   .     S
C99    C666    1.419   1_545 S
C100   N125    1.374   .     A
C100   Br138   1.918   .     S
C100   C383    1.419   .     S
C101   Br139   1.923   .     S
C101   N126    1.369   .     A
C101   C664    1.419   1_545 S
C102   N125    1.374   .     A
C102   Br140   1.918   .     S
C102   C381    1.419   .     S
C103   Br185   1.938   .     S
C103   C120    1.410   .     A
C104   Br186   1.933   .     S
C104   C119    1.404   .     A
C104   C200    1.378   .     S
C105   C119    1.410   .     A
C105   Br187   1.938   .     S
C105   C197    1.380   .     S
C106   Br188   1.933   .     S
C106   C120    1.404   .     A
C107   C117    1.396   .     A
C107   C111    1.386   .     A
C107   H121    1.079   .     S
C108   C112    1.384   .     A
C108   C118    1.392   .     A
C108   H122    1.081   .     S
C109   C113    1.386   .     A
C109   H123    1.079   .     S
C109   C118    1.396   .     A
C110   H124    1.081   .     S
C110   C114    1.383   .     A
C110   C117    1.392   .     A
C111   C115    1.413   .     A
C111   O141    1.383   .     S
C112   O152    1.383   .     S
C112   C116    1.425   .     A
C113   C116    1.413   .     A
C113   O163    1.383   .     S
C114   O174    1.383   .     S
C114   C115    1.425   .     A
C117   C964    1.462   1_554 S
C118   C963    1.462   .     S
N125   Zn135   2.018   .     S
N126   Zn136   2.018   .     S
O127   Zn135   1.996   .     S
O128   Zn136   1.996   .     S
O129   Zn135   1.996   .     S
O130   Zn136   1.996   .     S
O131   Zn135   2.024   .     S
O132   Zn136   2.024   .     S
O133   Zn135   2.024   .     S
O134   Zn136   2.024   .     S
O141   C142    1.419   .     S
C142   C145    1.540   .     S
C142   H144    1.113   .     S
C142   H143    1.110   .     S
C145   H146    1.108   .     S
C145   H147    1.108   .     S
C145   C148    1.526   .     S
C148   H150    1.111   .     S
C148   H431    1.111   .     S
C148   H433    1.107   .     S
H149   C712    1.111   1_545 S
H151   C712    1.107   1_545 S
O152   C153    1.418   .     S
C153   H154    1.111   .     S
C153   H155    1.116   .     S
C153   C156    1.534   .     S
C156   H158    1.111   .     S
C156   H157    1.106   .     S
C156   C159    1.526   .     S
C159   H161    1.110   .     S
C159   H162    1.111   .     S
C159   H160    1.111   .     S
O163   C164    1.419   .     S
C164   H165    1.110   .     S
C164   C167    1.539   .     S
C164   H166    1.113   .     S
C167   H168    1.108   .     S
C167   H169    1.107   .     S
C167   C170    1.526   .     S
C170   H172    1.111   .     S
C170   H453    1.111   .     S
C170   H455    1.107   .     S
H171   C734    1.111   1_545 S
H173   C734    1.107   1_545 S
O174   C175    1.418   .     S
C175   H176    1.111   .     S
C175   H177    1.116   .     S
C175   C178    1.534   .     S
C178   C181    1.525   .     S
C178   H180    1.110   .     S
C178   H179    1.106   .     S
C181   H182    1.111   .     S
C181   H183    1.110   .     S
C181   H184    1.111   .     S
C189   O221    1.297   .     A
C189   C214    1.445   .     S
C189   O224    1.291   .     A
C190   O223    1.297   .     A
C190   O222    1.291   .     A
C190   C213    1.445   .     S
C191   O228    1.291   .     A
C191   C209    1.470   .     S
C191   O225    1.306   .     A
C192   C210    1.470   .     S
C192   O227    1.306   .     A
C192   O226    1.291   .     A
C193   N220    1.369   .     A
C193   Br231   1.923   .     S
C193   C760    1.419   1_545 S
C194   N219    1.374   .     A
C194   Br232   1.918   .     S
C194   C477    1.419   .     S
C195   Br233   1.923   .     S
C195   N220    1.369   .     A
C195   C758    1.419   1_545 S
C196   N219    1.374   .     A
C196   Br234   1.918   .     S
C196   C475    1.419   .     S
C197   Br279   1.938   .     S
C197   C214    1.410   .     A
C198   Br280   1.933   .     S
C198   C213    1.404   .     A
C198   C12     1.378   1_655 S
C199   C213    1.410   .     A
C199   Br281   1.938   .     S
C199   C9      1.380   1_655 S
C200   Br282   1.933   .     S
C200   C214    1.404   .     A
C201   C211    1.396   .     A
C201   C205    1.386   .     A
C201   H215    1.079   .     S
C202   C206    1.384   .     A
C202   C212    1.392   .     A
C202   H216    1.081   .     S
C203   C207    1.386   .     A
C203   H217    1.079   .     S
C203   C212    1.396   .     A
C204   H218    1.081   .     S
C204   C208    1.383   .     A
C204   C211    1.392   .     A
C205   C209    1.413   .     A
C205   O235    1.383   .     S
C206   O246    1.383   .     S
C206   C210    1.425   .     A
C207   C210    1.413   .     A
C207   O257    1.383   .     S
C208   O268    1.383   .     S
C208   C209    1.425   .     A
C211   C1058   1.462   1_554 S
C212   C1057   1.462   .     S
N219   Zn229   2.018   .     S
N220   Zn230   2.018   .     S
O221   Zn229   1.996   .     S
O222   Zn230   1.996   .     S
O223   Zn229   1.996   .     S
O224   Zn230   1.996   .     S
O225   Zn229   2.024   .     S
O226   Zn230   2.024   .     S
O227   Zn229   2.024   .     S
O228   Zn230   2.024   .     S
O235   C236    1.419   .     S
C236   C239    1.540   .     S
C236   H238    1.113   .     S
C236   H237    1.110   .     S
C239   H240    1.108   .     S
C239   H241    1.108   .     S
C239   C242    1.526   .     S
C242   H244    1.111   .     S
C242   H525    1.111   .     S
C242   H527    1.107   .     S
H243   C806    1.111   1_545 S
H245   C806    1.107   1_545 S
O246   C247    1.418   .     S
C247   H248    1.111   .     S
C247   H249    1.116   .     S
C247   C250    1.534   .     S
C250   H252    1.111   .     S
C250   H251    1.106   .     S
C250   C253    1.526   .     S
C253   H255    1.110   .     S
C253   H256    1.111   .     S
C253   H254    1.111   .     S
O257   C258    1.419   .     S
C258   H259    1.110   .     S
C258   C261    1.539   .     S
C258   H260    1.113   .     S
C261   H262    1.108   .     S
C261   H263    1.107   .     S
C261   C264    1.526   .     S
C264   H266    1.111   .     S
C264   H547    1.111   .     S
C264   H549    1.107   .     S
H265   C828    1.111   1_545 S
H267   C828    1.107   1_545 S
O268   C269    1.418   .     S
C269   H270    1.111   .     S
C269   H271    1.116   .     S
C269   C272    1.534   .     S
C272   C275    1.525   .     S
C272   H274    1.110   .     S
C272   H273    1.106   .     S
C275   H276    1.111   .     S
C275   H277    1.110   .     S
C275   H278    1.111   .     S
C283   O315    1.297   .     A
C283   C308    1.445   .     S
C283   O318    1.291   .     A
C284   O317    1.297   .     A
C284   O316    1.291   .     A
C284   C307    1.445   .     S
C285   O322    1.291   .     A
C285   C303    1.470   .     S
C285   O319    1.306   .     A
C286   C304    1.470   .     S
C286   O321    1.306   .     A
C286   O320    1.291   .     A
C287   N314    1.369   .     A
C287   Br325   1.923   .     S
C288   N313    1.374   .     A
C288   Br326   1.918   .     S
C288   C571    1.419   .     S
C289   Br327   1.923   .     S
C289   N314    1.369   .     A
C290   N313    1.374   .     A
C290   Br328   1.918   .     S
C290   C569    1.419   .     S
C291   Br373   1.938   .     S
C291   C308    1.410   .     A
C291   C481    1.380   1_455 S
C292   Br374   1.933   .     S
C292   C307    1.404   .     A
C292   C388    1.378   .     S
C293   C307    1.410   .     A
C293   Br375   1.938   .     S
C293   C385    1.380   .     S
C294   Br376   1.933   .     S
C294   C308    1.404   .     A
C294   C480    1.378   1_455 S
C295   C305    1.396   .     A
C295   C299    1.386   .     A
C295   H309    1.079   .     S
C296   C300    1.384   .     A
C296   C306    1.392   .     A
C296   H310    1.081   .     S
C297   C301    1.386   .     A
C297   H311    1.079   .     S
C297   C306    1.396   .     A
C298   H312    1.081   .     S
C298   C302    1.383   .     A
C298   C305    1.392   .     A
C299   C303    1.413   .     A
C299   O329    1.383   .     S
C300   O340    1.383   .     S
C300   C304    1.425   .     A
C301   C304    1.413   .     A
C301   O351    1.383   .     S
C302   O362    1.383   .     S
C302   C303    1.425   .     A
C305   C1152   1.462   1_554 S
C306   C1151   1.462   .     S
N313   Zn323   2.018   .     S
N314   Zn324   2.018   .     S
O315   Zn323   1.996   .     S
O316   Zn324   1.996   .     S
O317   Zn323   1.996   .     S
O318   Zn324   1.996   .     S
O319   Zn323   2.024   .     S
O320   Zn324   2.024   .     S
O321   Zn323   2.024   .     S
O322   Zn324   2.024   .     S
O329   C330    1.419   .     S
C330   C333    1.540   .     S
C330   H332    1.113   .     S
C330   H331    1.110   .     S
C333   H334    1.108   .     S
C333   H335    1.108   .     S
C333   C336    1.526   .     S
C336   H338    1.111   .     S
C336   H619    1.111   .     S
C336   H621    1.107   .     S
O340   C341    1.418   .     S
C341   H342    1.111   .     S
C341   H343    1.116   .     S
C341   C344    1.534   .     S
C344   H346    1.111   .     S
C344   H345    1.106   .     S
C344   C347    1.526   .     S
C347   H349    1.110   .     S
C347   H350    1.111   .     S
C347   H348    1.111   .     S
O351   C352    1.419   .     S
C352   H353    1.110   .     S
C352   C355    1.539   .     S
C352   H354    1.113   .     S
C355   H356    1.108   .     S
C355   H357    1.107   .     S
C355   C358    1.526   .     S
C358   H360    1.111   .     S
C358   H641    1.111   .     S
C358   H643    1.107   .     S
O362   C363    1.418   .     S
C363   H364    1.111   .     S
C363   H365    1.116   .     S
C363   C366    1.534   .     S
C366   C369    1.525   .     S
C366   H368    1.110   .     S
C366   H367    1.106   .     S
C369   H370    1.111   .     S
C369   H371    1.110   .     S
C369   H372    1.111   .     S
C377   O409    1.297   .     A
C377   C402    1.445   .     S
C377   O412    1.291   .     A
C378   O411    1.297   .     A
C378   O410    1.291   .     A
C378   C401    1.445   .     S
C379   O416    1.291   .     A
C379   C397    1.470   .     S
C379   O413    1.306   .     A
C380   C398    1.470   .     S
C380   O415    1.306   .     A
C380   O414    1.291   .     A
C381   N408    1.369   .     A
C381   Br419   1.923   .     S
C382   N407    1.374   .     A
C382   Br420   1.918   .     S
C382   C665    1.419   .     S
C383   Br421   1.923   .     S
C383   N408    1.369   .     A
C384   N407    1.374   .     A
C384   Br422   1.918   .     S
C384   C663    1.419   .     S
C385   Br467   1.938   .     S
C385   C402    1.410   .     A
C386   Br468   1.933   .     S
C386   C401    1.404   .     A
C386   C482    1.378   .     S
C387   C401    1.410   .     A
C387   Br469   1.938   .     S
C387   C479    1.380   .     S
C388   Br470   1.933   .     S
C388   C402    1.404   .     A
C389   C399    1.396   .     A
C389   C393    1.386   .     A
C389   H403    1.079   .     S
C390   C394    1.384   .     A
C390   C400    1.392   .     A
C390   H404    1.081   .     S
C391   C395    1.386   .     A
C391   H405    1.079   .     S
C391   C400    1.396   .     A
C392   H406    1.081   .     S
C392   C396    1.383   .     A
C392   C399    1.392   .     A
C393   C397    1.413   .     A
C393   O423    1.383   .     S
C394   O434    1.383   .     S
C394   C398    1.425   .     A
C395   C398    1.413   .     A
C395   O445    1.383   .     S
C396   O456    1.383   .     S
C396   C397    1.425   .     A
C399   C1246   1.462   1_554 S
C400   C1245   1.462   .     S
N407   Zn417   2.018   .     S
N408   Zn418   2.018   .     S
O409   Zn417   1.996   .     S
O410   Zn418   1.996   .     S
O411   Zn417   1.996   .     S
O412   Zn418   1.996   .     S
O413   Zn417   2.024   .     S
O414   Zn418   2.024   .     S
O415   Zn417   2.024   .     S
O416   Zn418   2.024   .     S
O423   C424    1.419   .     S
C424   C427    1.540   .     S
C424   H426    1.113   .     S
C424   H425    1.110   .     S
C427   H428    1.108   .     S
C427   H429    1.108   .     S
C427   C430    1.526   .     S
C430   H432    1.111   .     S
C430   H713    1.111   .     S
C430   H715    1.107   .     S
O434   C435    1.418   .     S
C435   H436    1.111   .     S
C435   H437    1.116   .     S
C435   C438    1.534   .     S
C438   H440    1.111   .     S
C438   H439    1.106   .     S
C438   C441    1.526   .     S
C441   H443    1.110   .     S
C441   H444    1.111   .     S
C441   H442    1.111   .     S
O445   C446    1.419   .     S
C446   H447    1.110   .     S
C446   C449    1.539   .     S
C446   H448    1.113   .     S
C449   H450    1.108   .     S
C449   H451    1.107   .     S
C449   C452    1.526   .     S
C452   H454    1.111   .     S
C452   H735    1.111   .     S
C452   H737    1.107   .     S
O456   C457    1.418   .     S
C457   H458    1.111   .     S
C457   H459    1.116   .     S
C457   C460    1.534   .     S
C460   C463    1.525   .     S
C460   H462    1.110   .     S
C460   H461    1.106   .     S
C463   H464    1.111   .     S
C463   H465    1.110   .     S
C463   H466    1.111   .     S
C471   O503    1.297   .     A
C471   C496    1.445   .     S
C471   O506    1.291   .     A
C472   O505    1.297   .     A
C472   O504    1.291   .     A
C472   C495    1.445   .     S
C473   O510    1.291   .     A
C473   C491    1.470   .     S
C473   O507    1.306   .     A
C474   C492    1.470   .     S
C474   O509    1.306   .     A
C474   O508    1.291   .     A
C475   N502    1.369   .     A
C475   Br513   1.923   .     S
C476   N501    1.374   .     A
C476   Br514   1.918   .     S
C476   C759    1.419   .     S
C477   Br515   1.923   .     S
C477   N502    1.369   .     A
C478   N501    1.374   .     A
C478   Br516   1.918   .     S
C478   C757    1.419   .     S
C479   Br561   1.938   .     S
C479   C496    1.410   .     A
C480   Br562   1.933   .     S
C480   C495    1.404   .     A
C480   C294    1.378   1_655 S
C481   C495    1.410   .     A
C481   Br563   1.938   .     S
C481   C291    1.380   1_655 S
C482   Br564   1.933   .     S
C482   C496    1.404   .     A
C483   C493    1.396   .     A
C483   C487    1.386   .     A
C483   H497    1.079   .     S
C484   C488    1.384   .     A
C484   C494    1.392   .     A
C484   H498    1.081   .     S
C485   C489    1.386   .     A
C485   H499    1.079   .     S
C485   C494    1.396   .     A
C486   H500    1.081   .     S
C486   C490    1.383   .     A
C486   C493    1.392   .     A
C487   C491    1.413   .     A
C487   O517    1.383   .     S
C488   O528    1.383   .     S
C488   C492    1.425   .     A
C489   C492    1.413   .     A
C489   O539    1.383   .     S
C490   O550    1.383   .     S
C490   C491    1.425   .     A
C493   C1340   1.462   1_554 S
C494   C1339   1.462   .     S
N501   Zn511   2.018   .     S
N502   Zn512   2.018   .     S
O503   Zn511   1.996   .     S
O504   Zn512   1.996   .     S
O505   Zn511   1.996   .     S
O506   Zn512   1.996   .     S
O507   Zn511   2.024   .     S
O508   Zn512   2.024   .     S
O509   Zn511   2.024   .     S
O510   Zn512   2.024   .     S
O517   C518    1.419   .     S
C518   C521    1.540   .     S
C518   H520    1.113   .     S
C518   H519    1.110   .     S
C521   H522    1.108   .     S
C521   H523    1.108   .     S
C521   C524    1.526   .     S
C524   H526    1.111   .     S
C524   H807    1.111   .     S
C524   H809    1.107   .     S
O528   C529    1.418   .     S
C529   H530    1.111   .     S
C529   H531    1.116   .     S
C529   C532    1.534   .     S
C532   H534    1.111   .     S
C532   H533    1.106   .     S
C532   C535    1.526   .     S
C535   H537    1.110   .     S
C535   H538    1.111   .     S
C535   H536    1.111   .     S
O539   C540    1.419   .     S
C540   H541    1.110   .     S
C540   C543    1.539   .     S
C540   H542    1.113   .     S
C543   H544    1.108   .     S
C543   H545    1.107   .     S
C543   C546    1.526   .     S
C546   H548    1.111   .     S
C546   H829    1.111   .     S
C546   H831    1.107   .     S
O550   C551    1.418   .     S
C551   H552    1.111   .     S
C551   H553    1.116   .     S
C551   C554    1.534   .     S
C554   C557    1.525   .     S
C554   H556    1.110   .     S
C554   H555    1.106   .     S
C557   H558    1.111   .     S
C557   H559    1.110   .     S
C557   H560    1.111   .     S
C565   O597    1.297   .     A
C565   C590    1.445   .     S
C565   O600    1.291   .     A
C566   O599    1.297   .     A
C566   O598    1.291   .     A
C566   C589    1.445   .     S
C567   O604    1.291   .     A
C567   C585    1.470   .     S
C567   O601    1.306   .     A
C568   C586    1.470   .     S
C568   O603    1.306   .     A
C568   O602    1.291   .     A
C569   N596    1.369   .     A
C569   Br607   1.923   .     S
C570   N595    1.374   .     A
C570   Br608   1.918   .     S
C570   C7      1.419   1_565 S
C571   Br609   1.923   .     S
C571   N596    1.369   .     A
C572   N595    1.374   .     A
C572   Br610   1.918   .     S
C572   C5      1.419   1_565 S
C573   Br655   1.938   .     S
C573   C590    1.410   .     A
C573   C763    1.380   1_455 S
C574   Br656   1.933   .     S
C574   C589    1.404   .     A
C574   C670    1.378   .     S
C575   C589    1.410   .     A
C575   Br657   1.938   .     S
C575   C667    1.380   .     S
C576   Br658   1.933   .     S
C576   C590    1.404   .     A
C576   C762    1.378   1_455 S
C577   C587    1.396   .     A
C577   C581    1.386   .     A
C577   H591    1.079   .     S
C578   C582    1.384   .     A
C578   C588    1.392   .     A
C578   H592    1.081   .     S
C579   C583    1.386   .     A
C579   H593    1.079   .     S
C579   C588    1.396   .     A
C580   H594    1.081   .     S
C580   C584    1.383   .     A
C580   C587    1.392   .     A
C581   C585    1.413   .     A
C581   O611    1.383   .     S
C582   O622    1.383   .     S
C582   C586    1.425   .     A
C583   C586    1.413   .     A
C583   O633    1.383   .     S
C584   O644    1.383   .     S
C584   C585    1.425   .     A
C587   C1434   1.462   1_554 S
C588   C1433   1.462   .     S
N595   Zn605   2.018   .     S
N596   Zn606   2.018   .     S
O597   Zn605   1.996   .     S
O598   Zn606   1.996   .     S
O599   Zn605   1.996   .     S
O600   Zn606   1.996   .     S
O601   Zn605   2.024   .     S
O602   Zn606   2.024   .     S
O603   Zn605   2.024   .     S
O604   Zn606   2.024   .     S
O611   C612    1.419   .     S
C612   C615    1.540   .     S
C612   H614    1.113   .     S
C612   H613    1.110   .     S
C615   H616    1.108   .     S
C615   H617    1.108   .     S
C615   C618    1.526   .     S
C618   H620    1.111   .     S
C618   H55     1.111   1_565 S
C618   H57     1.107   1_565 S
O622   C623    1.418   .     S
C623   H624    1.111   .     S
C623   H625    1.116   .     S
C623   C626    1.534   .     S
C626   H628    1.111   .     S
C626   H627    1.106   .     S
C626   C629    1.526   .     S
C629   H631    1.110   .     S
C629   H632    1.111   .     S
C629   H630    1.111   .     S
O633   C634    1.419   .     S
C634   H635    1.110   .     S
C634   C637    1.539   .     S
C634   H636    1.113   .     S
C637   H638    1.108   .     S
C637   H639    1.107   .     S
C637   C640    1.526   .     S
C640   H642    1.111   .     S
C640   H77     1.111   1_565 S
C640   H79     1.107   1_565 S
O644   C645    1.418   .     S
C645   H646    1.111   .     S
C645   H647    1.116   .     S
C645   C648    1.534   .     S
C648   C651    1.525   .     S
C648   H650    1.110   .     S
C648   H649    1.106   .     S
C651   H652    1.111   .     S
C651   H653    1.110   .     S
C651   H654    1.111   .     S
C659   O691    1.297   .     A
C659   C684    1.445   .     S
C659   O694    1.291   .     A
C660   O693    1.297   .     A
C660   O692    1.291   .     A
C660   C683    1.445   .     S
C661   O698    1.291   .     A
C661   C679    1.470   .     S
C661   O695    1.306   .     A
C662   C680    1.470   .     S
C662   O697    1.306   .     A
C662   O696    1.291   .     A
C663   N690    1.369   .     A
C663   Br701   1.923   .     S
C664   N689    1.374   .     A
C664   Br702   1.918   .     S
C664   C101    1.419   1_565 S
C665   Br703   1.923   .     S
C665   N690    1.369   .     A
C666   N689    1.374   .     A
C666   Br704   1.918   .     S
C666   C99     1.419   1_565 S
C667   Br749   1.938   .     S
C667   C684    1.410   .     A
C668   Br750   1.933   .     S
C668   C683    1.404   .     A
C668   C764    1.378   .     S
C669   C683    1.410   .     A
C669   Br751   1.938   .     S
C669   C761    1.380   .     S
C670   Br752   1.933   .     S
C670   C684    1.404   .     A
C671   C681    1.396   .     A
C671   C675    1.386   .     A
C671   H685    1.079   .     S
C672   C676    1.384   .     A
C672   C682    1.392   .     A
C672   H686    1.081   .     S
C673   C677    1.386   .     A
C673   H687    1.079   .     S
C673   C682    1.396   .     A
C674   H688    1.081   .     S
C674   C678    1.383   .     A
C674   C681    1.392   .     A
C675   C679    1.413   .     A
C675   O705    1.383   .     S
C676   O716    1.383   .     S
C676   C680    1.425   .     A
C677   C680    1.413   .     A
C677   O727    1.383   .     S
C678   O738    1.383   .     S
C678   C679    1.425   .     A
C681   C1528   1.462   1_554 S
C682   C1527   1.462   .     S
N689   Zn699   2.018   .     S
N690   Zn700   2.018   .     S
O691   Zn699   1.996   .     S
O692   Zn700   1.996   .     S
O693   Zn699   1.996   .     S
O694   Zn700   1.996   .     S
O695   Zn699   2.024   .     S
O696   Zn700   2.024   .     S
O697   Zn699   2.024   .     S
O698   Zn700   2.024   .     S
O705   C706    1.419   .     S
C706   C709    1.540   .     S
C706   H708    1.113   .     S
C706   H707    1.110   .     S
C709   H710    1.108   .     S
C709   H711    1.108   .     S
C709   C712    1.526   .     S
C712   H714    1.111   .     S
C712   H149    1.111   1_565 S
C712   H151    1.107   1_565 S
O716   C717    1.418   .     S
C717   H718    1.111   .     S
C717   H719    1.116   .     S
C717   C720    1.534   .     S
C720   H722    1.111   .     S
C720   H721    1.106   .     S
C720   C723    1.526   .     S
C723   H725    1.110   .     S
C723   H726    1.111   .     S
C723   H724    1.111   .     S
O727   C728    1.419   .     S
C728   H729    1.110   .     S
C728   C731    1.539   .     S
C728   H730    1.113   .     S
C731   H732    1.108   .     S
C731   H733    1.107   .     S
C731   C734    1.526   .     S
C734   H736    1.111   .     S
C734   H171    1.111   1_565 S
C734   H173    1.107   1_565 S
O738   C739    1.418   .     S
C739   H740    1.111   .     S
C739   H741    1.116   .     S
C739   C742    1.534   .     S
C742   C745    1.525   .     S
C742   H744    1.110   .     S
C742   H743    1.106   .     S
C745   H746    1.111   .     S
C745   H747    1.110   .     S
C745   H748    1.111   .     S
C753   O785    1.297   .     A
C753   C778    1.445   .     S
C753   O788    1.291   .     A
C754   O787    1.297   .     A
C754   O786    1.291   .     A
C754   C777    1.445   .     S
C755   O792    1.291   .     A
C755   C773    1.470   .     S
C755   O789    1.306   .     A
C756   C774    1.470   .     S
C756   O791    1.306   .     A
C756   O790    1.291   .     A
C757   N784    1.369   .     A
C757   Br795   1.923   .     S
C758   N783    1.374   .     A
C758   Br796   1.918   .     S
C758   C195    1.419   1_565 S
C759   Br797   1.923   .     S
C759   N784    1.369   .     A
C760   N783    1.374   .     A
C760   Br798   1.918   .     S
C760   C193    1.419   1_565 S
C761   Br843   1.938   .     S
C761   C778    1.410   .     A
C762   Br844   1.933   .     S
C762   C777    1.404   .     A
C762   C576    1.378   1_655 S
C763   C777    1.410   .     A
C763   Br845   1.938   .     S
C763   C573    1.380   1_655 S
C764   Br846   1.933   .     S
C764   C778    1.404   .     A
C765   C775    1.396   .     A
C765   C769    1.386   .     A
C765   H779    1.079   .     S
C766   C770    1.384   .     A
C766   C776    1.392   .     A
C766   H780    1.081   .     S
C767   C771    1.386   .     A
C767   H781    1.079   .     S
C767   C776    1.396   .     A
C768   H782    1.081   .     S
C768   C772    1.383   .     A
C768   C775    1.392   .     A
C769   C773    1.413   .     A
C769   O799    1.383   .     S
C770   O810    1.383   .     S
C770   C774    1.425   .     A
C771   C774    1.413   .     A
C771   O821    1.383   .     S
C772   O832    1.383   .     S
C772   C773    1.425   .     A
C775   C1622   1.462   1_554 S
C776   C1621   1.462   .     S
N783   Zn793   2.018   .     S
N784   Zn794   2.018   .     S
O785   Zn793   1.996   .     S
O786   Zn794   1.996   .     S
O787   Zn793   1.996   .     S
O788   Zn794   1.996   .     S
O789   Zn793   2.024   .     S
O790   Zn794   2.024   .     S
O791   Zn793   2.024   .     S
O792   Zn794   2.024   .     S
O799   C800    1.419   .     S
C800   C803    1.540   .     S
C800   H802    1.113   .     S
C800   H801    1.110   .     S
C803   H804    1.108   .     S
C803   H805    1.108   .     S
C803   C806    1.526   .     S
C806   H808    1.111   .     S
C806   H243    1.111   1_565 S
C806   H245    1.107   1_565 S
O810   C811    1.418   .     S
C811   H812    1.111   .     S
C811   H813    1.116   .     S
C811   C814    1.534   .     S
C814   H816    1.111   .     S
C814   H815    1.106   .     S
C814   C817    1.526   .     S
C817   H819    1.110   .     S
C817   H820    1.111   .     S
C817   H818    1.111   .     S
O821   C822    1.419   .     S
C822   H823    1.110   .     S
C822   C825    1.539   .     S
C822   H824    1.113   .     S
C825   H826    1.108   .     S
C825   H827    1.107   .     S
C825   C828    1.526   .     S
C828   H830    1.111   .     S
C828   H265    1.111   1_565 S
C828   H267    1.107   1_565 S
O832   C833    1.418   .     S
C833   H834    1.111   .     S
C833   H835    1.116   .     S
C833   C836    1.534   .     S
C836   C839    1.525   .     S
C836   H838    1.110   .     S
C836   H837    1.106   .     S
C839   H840    1.111   .     S
C839   H841    1.110   .     S
C839   H842    1.111   .     S
C847   O879    1.297   .     A
C847   C872    1.445   .     S
C847   O882    1.291   .     A
C848   O881    1.297   .     A
C848   O880    1.291   .     A
C848   C871    1.445   .     S
C849   O886    1.291   .     A
C849   C867    1.470   .     S
C849   O883    1.306   .     A
C850   C868    1.470   .     S
C850   O885    1.306   .     A
C850   O884    1.291   .     A
C851   N878    1.369   .     A
C851   Br889   1.923   .     S
C851   C1418   1.419   1_545 S
C852   N877    1.374   .     A
C852   Br890   1.918   .     S
C852   C1135   1.419   .     S
C853   Br891   1.923   .     S
C853   N878    1.369   .     A
C853   C1416   1.419   1_545 S
C854   N877    1.374   .     A
C854   Br892   1.918   .     S
C854   C1133   1.419   .     S
C855   Br937   1.938   .     S
C855   C872    1.410   .     A
C855   C1045   1.380   1_455 S
C856   Br938   1.933   .     S
C856   C871    1.404   .     A
C856   C952    1.378   .     S
C857   C871    1.410   .     A
C857   Br939   1.938   .     S
C857   C949    1.380   .     S
C858   Br940   1.933   .     S
C858   C872    1.404   .     A
C858   C1044   1.378   1_455 S
C859   C869    1.396   .     A
C859   C863    1.386   .     A
C859   H873    1.079   .     S
C860   C864    1.384   .     A
C860   C870    1.392   .     A
C860   H874    1.081   .     S
C861   C865    1.386   .     A
C861   H875    1.079   .     S
C861   C870    1.396   .     A
C862   H876    1.081   .     S
C862   C866    1.383   .     A
C862   C869    1.392   .     A
C863   C867    1.413   .     A
C863   O893    1.383   .     S
C864   O904    1.383   .     S
C864   C868    1.425   .     A
C865   C868    1.413   .     A
C865   O915    1.383   .     S
C866   O926    1.383   .     S
C866   C867    1.425   .     A
C870   C23     1.462   1_556 S
N877   Zn887   2.018   .     S
N878   Zn888   2.018   .     S
O879   Zn887   1.996   .     S
O880   Zn888   1.996   .     S
O881   Zn887   1.996   .     S
O882   Zn888   1.996   .     S
O883   Zn887   2.024   .     S
O884   Zn888   2.024   .     S
O885   Zn887   2.024   .     S
O886   Zn888   2.024   .     S
O893   C894    1.419   .     S
C894   C897    1.540   .     S
C894   H896    1.113   .     S
C894   H895    1.110   .     S
C897   H898    1.108   .     S
C897   H899    1.108   .     S
C897   C900    1.526   .     S
C900   H902    1.111   .     S
C900   H1183   1.111   .     S
C900   H1185   1.107   .     S
H901   C1464   1.111   1_545 S
H903   C1464   1.107   1_545 S
O904   C905    1.418   .     S
C905   H906    1.111   .     S
C905   H907    1.116   .     S
C905   C908    1.534   .     S
C908   H910    1.111   .     S
C908   H909    1.106   .     S
C908   C911    1.526   .     S
C911   H913    1.110   .     S
C911   H914    1.111   .     S
C911   H912    1.111   .     S
O915   C916    1.419   .     S
C916   H917    1.110   .     S
C916   C919    1.539   .     S
C916   H918    1.113   .     S
C919   H920    1.108   .     S
C919   H921    1.107   .     S
C919   C922    1.526   .     S
C922   H924    1.111   .     S
C922   H1205   1.111   .     S
C922   H1207   1.107   .     S
H923   C1486   1.111   1_545 S
H925   C1486   1.107   1_545 S
O926   C927    1.418   .     S
C927   H928    1.111   .     S
C927   H929    1.116   .     S
C927   C930    1.534   .     S
C930   C933    1.525   .     S
C930   H932    1.110   .     S
C930   H931    1.106   .     S
C933   H934    1.111   .     S
C933   H935    1.110   .     S
C933   H936    1.111   .     S
C941   O973    1.297   .     A
C941   C966    1.445   .     S
C941   O976    1.291   .     A
C942   O975    1.297   .     A
C942   O974    1.291   .     A
C942   C965    1.445   .     S
C943   O980    1.291   .     A
C943   C961    1.470   .     S
C943   O977    1.306   .     A
C944   C962    1.470   .     S
C944   O979    1.306   .     A
C944   O978    1.291   .     A
C945   N972    1.369   .     A
C945   Br983   1.923   .     S
C945   C1512   1.419   1_545 S
C946   N971    1.374   .     A
C946   Br984   1.918   .     S
C946   C1229   1.419   .     S
C947   Br985   1.923   .     S
C947   N972    1.369   .     A
C947   C1510   1.419   1_545 S
C948   N971    1.374   .     A
C948   Br986   1.918   .     S
C948   C1227   1.419   .     S
C949   Br1031  1.938   .     S
C949   C966    1.410   .     A
C950   Br1032  1.933   .     S
C950   C965    1.404   .     A
C950   C1046   1.378   .     S
C951   C965    1.410   .     A
C951   Br1033  1.938   .     S
C951   C1043   1.380   .     S
C952   Br1034  1.933   .     S
C952   C966    1.404   .     A
C953   C963    1.396   .     A
C953   C957    1.386   .     A
C953   H967    1.079   .     S
C954   C958    1.384   .     A
C954   C964    1.392   .     A
C954   H968    1.081   .     S
C955   C959    1.386   .     A
C955   H969    1.079   .     S
C955   C964    1.396   .     A
C956   H970    1.081   .     S
C956   C960    1.383   .     A
C956   C963    1.392   .     A
C957   C961    1.413   .     A
C957   O987    1.383   .     S
C958   O998    1.383   .     S
C958   C962    1.425   .     A
C959   C962    1.413   .     A
C959   O1009   1.383   .     S
C960   O1020   1.383   .     S
C960   C961    1.425   .     A
C964   C117    1.462   1_556 S
N971   Zn981   2.018   .     S
N972   Zn982   2.018   .     S
O973   Zn981   1.996   .     S
O974   Zn982   1.996   .     S
O975   Zn981   1.996   .     S
O976   Zn982   1.996   .     S
O977   Zn981   2.024   .     S
O978   Zn982   2.024   .     S
O979   Zn981   2.024   .     S
O980   Zn982   2.024   .     S
O987   C988    1.419   .     S
C988   C991    1.540   .     S
C988   H990    1.113   .     S
C988   H989    1.110   .     S
C991   H992    1.108   .     S
C991   H993    1.108   .     S
C991   C994    1.526   .     S
C994   H996    1.111   .     S
C994   H1277   1.111   .     S
C994   H1279   1.107   .     S
H995   C1558   1.111   1_545 S
H997   C1558   1.107   1_545 S
O998   C999    1.418   .     S
C999   H1000   1.111   .     S
C999   H1001   1.116   .     S
C999   C1002   1.534   .     S
C1002  H1004   1.111   .     S
C1002  H1003   1.106   .     S
C1002  C1005   1.526   .     S
C1005  H1007   1.110   .     S
C1005  H1008   1.111   .     S
C1005  H1006   1.111   .     S
O1009  C1010   1.419   .     S
C1010  H1011   1.110   .     S
C1010  C1013   1.539   .     S
C1010  H1012   1.113   .     S
C1013  H1014   1.108   .     S
C1013  H1015   1.107   .     S
C1013  C1016   1.526   .     S
C1016  H1018   1.111   .     S
C1016  H1299   1.111   .     S
C1016  H1301   1.107   .     S
H1017  C1580   1.111   1_545 S
H1019  C1580   1.107   1_545 S
O1020  C1021   1.418   .     S
C1021  H1022   1.111   .     S
C1021  H1023   1.116   .     S
C1021  C1024   1.534   .     S
C1024  C1027   1.525   .     S
C1024  H1026   1.110   .     S
C1024  H1025   1.106   .     S
C1027  H1028   1.111   .     S
C1027  H1029   1.110   .     S
C1027  H1030   1.111   .     S
C1035  O1067   1.297   .     A
C1035  C1060   1.445   .     S
C1035  O1070   1.291   .     A
C1036  O1069   1.297   .     A
C1036  O1068   1.291   .     A
C1036  C1059   1.445   .     S
C1037  O1074   1.291   .     A
C1037  C1055   1.470   .     S
C1037  O1071   1.306   .     A
C1038  C1056   1.470   .     S
C1038  O1073   1.306   .     A
C1038  O1072   1.291   .     A
C1039  N1066   1.369   .     A
C1039  Br1077  1.923   .     S
C1039  C1606   1.419   1_545 S
C1040  N1065   1.374   .     A
C1040  Br1078  1.918   .     S
C1040  C1323   1.419   .     S
C1041  Br1079  1.923   .     S
C1041  N1066   1.369   .     A
C1041  C1604   1.419   1_545 S
C1042  N1065   1.374   .     A
C1042  Br1080  1.918   .     S
C1042  C1321   1.419   .     S
C1043  Br1125  1.938   .     S
C1043  C1060   1.410   .     A
C1044  Br1126  1.933   .     S
C1044  C1059   1.404   .     A
C1044  C858    1.378   1_655 S
C1045  C1059   1.410   .     A
C1045  Br1127  1.938   .     S
C1045  C855    1.380   1_655 S
C1046  Br1128  1.933   .     S
C1046  C1060   1.404   .     A
C1047  C1057   1.396   .     A
C1047  C1051   1.386   .     A
C1047  H1061   1.079   .     S
C1048  C1052   1.384   .     A
C1048  C1058   1.392   .     A
C1048  H1062   1.081   .     S
C1049  C1053   1.386   .     A
C1049  H1063   1.079   .     S
C1049  C1058   1.396   .     A
C1050  H1064   1.081   .     S
C1050  C1054   1.383   .     A
C1050  C1057   1.392   .     A
C1051  C1055   1.413   .     A
C1051  O1081   1.383   .     S
C1052  O1092   1.383   .     S
C1052  C1056   1.425   .     A
C1053  C1056   1.413   .     A
C1053  O1103   1.383   .     S
C1054  O1114   1.383   .     S
C1054  C1055   1.425   .     A
C1058  C211    1.462   1_556 S
N1065  Zn1075  2.018   .     S
N1066  Zn1076  2.018   .     S
O1067  Zn1075  1.996   .     S
O1068  Zn1076  1.996   .     S
O1069  Zn1075  1.996   .     S
O1070  Zn1076  1.996   .     S
O1071  Zn1075  2.024   .     S
O1072  Zn1076  2.024   .     S
O1073  Zn1075  2.024   .     S
O1074  Zn1076  2.024   .     S
O1081  C1082   1.419   .     S
C1082  C1085   1.540   .     S
C1082  H1084   1.113   .     S
C1082  H1083   1.110   .     S
C1085  H1086   1.108   .     S
C1085  H1087   1.108   .     S
C1085  C1088   1.526   .     S
C1088  H1090   1.111   .     S
C1088  H1371   1.111   .     S
C1088  H1373   1.107   .     S
H1089  C1652   1.111   1_545 S
H1091  C1652   1.107   1_545 S
O1092  C1093   1.418   .     S
C1093  H1094   1.111   .     S
C1093  H1095   1.116   .     S
C1093  C1096   1.534   .     S
C1096  H1098   1.111   .     S
C1096  H1097   1.106   .     S
C1096  C1099   1.526   .     S
C1099  H1101   1.110   .     S
C1099  H1102   1.111   .     S
C1099  H1100   1.111   .     S
O1103  C1104   1.419   .     S
C1104  H1105   1.110   .     S
C1104  C1107   1.539   .     S
C1104  H1106   1.113   .     S
C1107  H1108   1.108   .     S
C1107  H1109   1.107   .     S
C1107  C1110   1.526   .     S
C1110  H1112   1.111   .     S
C1110  H1393   1.111   .     S
C1110  H1395   1.107   .     S
H1111  C1674   1.111   1_545 S
H1113  C1674   1.107   1_545 S
O1114  C1115   1.418   .     S
C1115  H1116   1.111   .     S
C1115  H1117   1.116   .     S
C1115  C1118   1.534   .     S
C1118  C1121   1.525   .     S
C1118  H1120   1.110   .     S
C1118  H1119   1.106   .     S
C1121  H1122   1.111   .     S
C1121  H1123   1.110   .     S
C1121  H1124   1.111   .     S
C1129  O1161   1.297   .     A
C1129  C1154   1.445   .     S
C1129  O1164   1.291   .     A
C1130  O1163   1.297   .     A
C1130  O1162   1.291   .     A
C1130  C1153   1.445   .     S
C1131  O1168   1.291   .     A
C1131  C1149   1.470   .     S
C1131  O1165   1.306   .     A
C1132  C1150   1.470   .     S
C1132  O1167   1.306   .     A
C1132  O1166   1.291   .     A
C1133  N1160   1.369   .     A
C1133  Br1171  1.923   .     S
C1134  N1159   1.374   .     A
C1134  Br1172  1.918   .     S
C1134  C1417   1.419   .     S
C1135  Br1173  1.923   .     S
C1135  N1160   1.369   .     A
C1136  N1159   1.374   .     A
C1136  Br1174  1.918   .     S
C1136  C1415   1.419   .     S
C1137  Br1219  1.938   .     S
C1137  C1154   1.410   .     A
C1137  C1327   1.380   1_455 S
C1138  Br1220  1.933   .     S
C1138  C1153   1.404   .     A
C1138  C1234   1.378   .     S
C1139  C1153   1.410   .     A
C1139  Br1221  1.938   .     S
C1139  C1231   1.380   .     S
C1140  Br1222  1.933   .     S
C1140  C1154   1.404   .     A
C1140  C1326   1.378   1_455 S
C1141  C1151   1.396   .     A
C1141  C1145   1.386   .     A
C1141  H1155   1.079   .     S
C1142  C1146   1.384   .     A
C1142  C1152   1.392   .     A
C1142  H1156   1.081   .     S
C1143  C1147   1.386   .     A
C1143  H1157   1.079   .     S
C1143  C1152   1.396   .     A
C1144  H1158   1.081   .     S
C1144  C1148   1.383   .     A
C1144  C1151   1.392   .     A
C1145  C1149   1.413   .     A
C1145  O1175   1.383   .     S
C1146  O1186   1.383   .     S
C1146  C1150   1.425   .     A
C1147  C1150   1.413   .     A
C1147  O1197   1.383   .     S
C1148  O1208   1.383   .     S
C1148  C1149   1.425   .     A
C1152  C305    1.462   1_556 S
N1159  Zn1169  2.018   .     S
N1160  Zn1170  2.018   .     S
O1161  Zn1169  1.996   .     S
O1162  Zn1170  1.996   .     S
O1163  Zn1169  1.996   .     S
O1164  Zn1170  1.996   .     S
O1165  Zn1169  2.024   .     S
O1166  Zn1170  2.024   .     S
O1167  Zn1169  2.024   .     S
O1168  Zn1170  2.024   .     S
O1175  C1176   1.419   .     S
C1176  C1179   1.540   .     S
C1176  H1178   1.113   .     S
C1176  H1177   1.110   .     S
C1179  H1180   1.108   .     S
C1179  H1181   1.108   .     S
C1179  C1182   1.526   .     S
C1182  H1184   1.111   .     S
C1182  H1465   1.111   .     S
C1182  H1467   1.107   .     S
O1186  C1187   1.418   .     S
C1187  H1188   1.111   .     S
C1187  H1189   1.116   .     S
C1187  C1190   1.534   .     S
C1190  H1192   1.111   .     S
C1190  H1191   1.106   .     S
C1190  C1193   1.526   .     S
C1193  H1195   1.110   .     S
C1193  H1196   1.111   .     S
C1193  H1194   1.111   .     S
O1197  C1198   1.419   .     S
C1198  H1199   1.110   .     S
C1198  C1201   1.539   .     S
C1198  H1200   1.113   .     S
C1201  H1202   1.108   .     S
C1201  H1203   1.107   .     S
C1201  C1204   1.526   .     S
C1204  H1206   1.111   .     S
C1204  H1487   1.111   .     S
C1204  H1489   1.107   .     S
O1208  C1209   1.418   .     S
C1209  H1210   1.111   .     S
C1209  H1211   1.116   .     S
C1209  C1212   1.534   .     S
C1212  C1215   1.525   .     S
C1212  H1214   1.110   .     S
C1212  H1213   1.106   .     S
C1215  H1216   1.111   .     S
C1215  H1217   1.110   .     S
C1215  H1218   1.111   .     S
C1223  O1255   1.297   .     A
C1223  C1248   1.445   .     S
C1223  O1258   1.291   .     A
C1224  O1257   1.297   .     A
C1224  O1256   1.291   .     A
C1224  C1247   1.445   .     S
C1225  O1262   1.291   .     A
C1225  C1243   1.470   .     S
C1225  O1259   1.306   .     A
C1226  C1244   1.470   .     S
C1226  O1261   1.306   .     A
C1226  O1260   1.291   .     A
C1227  N1254   1.369   .     A
C1227  Br1265  1.923   .     S
C1228  N1253   1.374   .     A
C1228  Br1266  1.918   .     S
C1228  C1511   1.419   .     S
C1229  Br1267  1.923   .     S
C1229  N1254   1.369   .     A
C1230  N1253   1.374   .     A
C1230  Br1268  1.918   .     S
C1230  C1509   1.419   .     S
C1231  Br1313  1.938   .     S
C1231  C1248   1.410   .     A
C1232  Br1314  1.933   .     S
C1232  C1247   1.404   .     A
C1232  C1328   1.378   .     S
C1233  C1247   1.410   .     A
C1233  Br1315  1.938   .     S
C1233  C1325   1.380   .     S
C1234  Br1316  1.933   .     S
C1234  C1248   1.404   .     A
C1235  C1245   1.396   .     A
C1235  C1239   1.386   .     A
C1235  H1249   1.079   .     S
C1236  C1240   1.384   .     A
C1236  C1246   1.392   .     A
C1236  H1250   1.081   .     S
C1237  C1241   1.386   .     A
C1237  H1251   1.079   .     S
C1237  C1246   1.396   .     A
C1238  H1252   1.081   .     S
C1238  C1242   1.383   .     A
C1238  C1245   1.392   .     A
C1239  C1243   1.413   .     A
C1239  O1269   1.383   .     S
C1240  O1280   1.383   .     S
C1240  C1244   1.425   .     A
C1241  C1244   1.413   .     A
C1241  O1291   1.383   .     S
C1242  O1302   1.383   .     S
C1242  C1243   1.425   .     A
C1246  C399    1.462   1_556 S
N1253  Zn1263  2.018   .     S
N1254  Zn1264  2.018   .     S
O1255  Zn1263  1.996   .     S
O1256  Zn1264  1.996   .     S
O1257  Zn1263  1.996   .     S
O1258  Zn1264  1.996   .     S
O1259  Zn1263  2.024   .     S
O1260  Zn1264  2.024   .     S
O1261  Zn1263  2.024   .     S
O1262  Zn1264  2.024   .     S
O1269  C1270   1.419   .     S
C1270  C1273   1.540   .     S
C1270  H1272   1.113   .     S
C1270  H1271   1.110   .     S
C1273  H1274   1.108   .     S
C1273  H1275   1.108   .     S
C1273  C1276   1.526   .     S
C1276  H1278   1.111   .     S
C1276  H1559   1.111   .     S
C1276  H1561   1.107   .     S
O1280  C1281   1.418   .     S
C1281  H1282   1.111   .     S
C1281  H1283   1.116   .     S
C1281  C1284   1.534   .     S
C1284  H1286   1.111   .     S
C1284  H1285   1.106   .     S
C1284  C1287   1.526   .     S
C1287  H1289   1.110   .     S
C1287  H1290   1.111   .     S
C1287  H1288   1.111   .     S
O1291  C1292   1.419   .     S
C1292  H1293   1.110   .     S
C1292  C1295   1.539   .     S
C1292  H1294   1.113   .     S
C1295  H1296   1.108   .     S
C1295  H1297   1.107   .     S
C1295  C1298   1.526   .     S
C1298  H1300   1.111   .     S
C1298  H1581   1.111   .     S
C1298  H1583   1.107   .     S
O1302  C1303   1.418   .     S
C1303  H1304   1.111   .     S
C1303  H1305   1.116   .     S
C1303  C1306   1.534   .     S
C1306  C1309   1.525   .     S
C1306  H1308   1.110   .     S
C1306  H1307   1.106   .     S
C1309  H1310   1.111   .     S
C1309  H1311   1.110   .     S
C1309  H1312   1.111   .     S
C1317  O1349   1.297   .     A
C1317  C1342   1.445   .     S
C1317  O1352   1.291   .     A
C1318  O1351   1.297   .     A
C1318  O1350   1.291   .     A
C1318  C1341   1.445   .     S
C1319  O1356   1.291   .     A
C1319  C1337   1.470   .     S
C1319  O1353   1.306   .     A
C1320  C1338   1.470   .     S
C1320  O1355   1.306   .     A
C1320  O1354   1.291   .     A
C1321  N1348   1.369   .     A
C1321  Br1359  1.923   .     S
C1322  N1347   1.374   .     A
C1322  Br1360  1.918   .     S
C1322  C1605   1.419   .     S
C1323  Br1361  1.923   .     S
C1323  N1348   1.369   .     A
C1324  N1347   1.374   .     A
C1324  Br1362  1.918   .     S
C1324  C1603   1.419   .     S
C1325  Br1407  1.938   .     S
C1325  C1342   1.410   .     A
C1326  Br1408  1.933   .     S
C1326  C1341   1.404   .     A
C1326  C1140   1.378   1_655 S
C1327  C1341   1.410   .     A
C1327  Br1409  1.938   .     S
C1327  C1137   1.380   1_655 S
C1328  Br1410  1.933   .     S
C1328  C1342   1.404   .     A
C1329  C1339   1.396   .     A
C1329  C1333   1.386   .     A
C1329  H1343   1.079   .     S
C1330  C1334   1.384   .     A
C1330  C1340   1.392   .     A
C1330  H1344   1.081   .     S
C1331  C1335   1.386   .     A
C1331  H1345   1.079   .     S
C1331  C1340   1.396   .     A
C1332  H1346   1.081   .     S
C1332  C1336   1.383   .     A
C1332  C1339   1.392   .     A
C1333  C1337   1.413   .     A
C1333  O1363   1.383   .     S
C1334  O1374   1.383   .     S
C1334  C1338   1.425   .     A
C1335  C1338   1.413   .     A
C1335  O1385   1.383   .     S
C1336  O1396   1.383   .     S
C1336  C1337   1.425   .     A
C1340  C493    1.462   1_556 S
N1347  Zn1357  2.018   .     S
N1348  Zn1358  2.018   .     S
O1349  Zn1357  1.996   .     S
O1350  Zn1358  1.996   .     S
O1351  Zn1357  1.996   .     S
O1352  Zn1358  1.996   .     S
O1353  Zn1357  2.024   .     S
O1354  Zn1358  2.024   .     S
O1355  Zn1357  2.024   .     S
O1356  Zn1358  2.024   .     S
O1363  C1364   1.419   .     S
C1364  C1367   1.540   .     S
C1364  H1366   1.113   .     S
C1364  H1365   1.110   .     S
C1367  H1368   1.108   .     S
C1367  H1369   1.108   .     S
C1367  C1370   1.526   .     S
C1370  H1372   1.111   .     S
C1370  H1653   1.111   .     S
C1370  H1655   1.107   .     S
O1374  C1375   1.418   .     S
C1375  H1376   1.111   .     S
C1375  H1377   1.116   .     S
C1375  C1378   1.534   .     S
C1378  H1380   1.111   .     S
C1378  H1379   1.106   .     S
C1378  C1381   1.526   .     S
C1381  H1383   1.110   .     S
C1381  H1384   1.111   .     S
C1381  H1382   1.111   .     S
O1385  C1386   1.419   .     S
C1386  H1387   1.110   .     S
C1386  C1389   1.539   .     S
C1386  H1388   1.113   .     S
C1389  H1390   1.108   .     S
C1389  H1391   1.107   .     S
C1389  C1392   1.526   .     S
C1392  H1394   1.111   .     S
C1392  H1675   1.111   .     S
C1392  H1677   1.107   .     S
O1396  C1397   1.418   .     S
C1397  H1398   1.111   .     S
C1397  H1399   1.116   .     S
C1397  C1400   1.534   .     S
C1400  C1403   1.525   .     S
C1400  H1402   1.110   .     S
C1400  H1401   1.106   .     S
C1403  H1404   1.111   .     S
C1403  H1405   1.110   .     S
C1403  H1406   1.111   .     S
C1411  O1443   1.297   .     A
C1411  C1436   1.445   .     S
C1411  O1446   1.291   .     A
C1412  O1445   1.297   .     A
C1412  O1444   1.291   .     A
C1412  C1435   1.445   .     S
C1413  O1450   1.291   .     A
C1413  C1431   1.470   .     S
C1413  O1447   1.306   .     A
C1414  C1432   1.470   .     S
C1414  O1449   1.306   .     A
C1414  O1448   1.291   .     A
C1415  N1442   1.369   .     A
C1415  Br1453  1.923   .     S
C1416  N1441   1.374   .     A
C1416  Br1454  1.918   .     S
C1416  C853    1.419   1_565 S
C1417  Br1455  1.923   .     S
C1417  N1442   1.369   .     A
C1418  N1441   1.374   .     A
C1418  Br1456  1.918   .     S
C1418  C851    1.419   1_565 S
C1419  Br1501  1.938   .     S
C1419  C1436   1.410   .     A
C1419  C1609   1.380   1_455 S
C1420  Br1502  1.933   .     S
C1420  C1435   1.404   .     A
C1420  C1516   1.378   .     S
C1421  C1435   1.410   .     A
C1421  Br1503  1.938   .     S
C1421  C1513   1.380   .     S
C1422  Br1504  1.933   .     S
C1422  C1436   1.404   .     A
C1422  C1608   1.378   1_455 S
C1423  C1433   1.396   .     A
C1423  C1427   1.386   .     A
C1423  H1437   1.079   .     S
C1424  C1428   1.384   .     A
C1424  C1434   1.392   .     A
C1424  H1438   1.081   .     S
C1425  C1429   1.386   .     A
C1425  H1439   1.079   .     S
C1425  C1434   1.396   .     A
C1426  H1440   1.081   .     S
C1426  C1430   1.383   .     A
C1426  C1433   1.392   .     A
C1427  C1431   1.413   .     A
C1427  O1457   1.383   .     S
C1428  O1468   1.383   .     S
C1428  C1432   1.425   .     A
C1429  C1432   1.413   .     A
C1429  O1479   1.383   .     S
C1430  O1490   1.383   .     S
C1430  C1431   1.425   .     A
C1434  C587    1.462   1_556 S
N1441  Zn1451  2.018   .     S
N1442  Zn1452  2.018   .     S
O1443  Zn1451  1.996   .     S
O1444  Zn1452  1.996   .     S
O1445  Zn1451  1.996   .     S
O1446  Zn1452  1.996   .     S
O1447  Zn1451  2.024   .     S
O1448  Zn1452  2.024   .     S
O1449  Zn1451  2.024   .     S
O1450  Zn1452  2.024   .     S
O1457  C1458   1.419   .     S
C1458  C1461   1.540   .     S
C1458  H1460   1.113   .     S
C1458  H1459   1.110   .     S
C1461  H1462   1.108   .     S
C1461  H1463   1.108   .     S
C1461  C1464   1.526   .     S
C1464  H1466   1.111   .     S
C1464  H901    1.111   1_565 S
C1464  H903    1.107   1_565 S
O1468  C1469   1.418   .     S
C1469  H1470   1.111   .     S
C1469  H1471   1.116   .     S
C1469  C1472   1.534   .     S
C1472  H1474   1.111   .     S
C1472  H1473   1.106   .     S
C1472  C1475   1.526   .     S
C1475  H1477   1.110   .     S
C1475  H1478   1.111   .     S
C1475  H1476   1.111   .     S
O1479  C1480   1.419   .     S
C1480  H1481   1.110   .     S
C1480  C1483   1.539   .     S
C1480  H1482   1.113   .     S
C1483  H1484   1.108   .     S
C1483  H1485   1.107   .     S
C1483  C1486   1.526   .     S
C1486  H1488   1.111   .     S
C1486  H923    1.111   1_565 S
C1486  H925    1.107   1_565 S
O1490  C1491   1.418   .     S
C1491  H1492   1.111   .     S
C1491  H1493   1.116   .     S
C1491  C1494   1.534   .     S
C1494  C1497   1.525   .     S
C1494  H1496   1.110   .     S
C1494  H1495   1.106   .     S
C1497  H1498   1.111   .     S
C1497  H1499   1.110   .     S
C1497  H1500   1.111   .     S
C1505  O1537   1.297   .     A
C1505  C1530   1.445   .     S
C1505  O1540   1.291   .     A
C1506  O1539   1.297   .     A
C1506  O1538   1.291   .     A
C1506  C1529   1.445   .     S
C1507  O1544   1.291   .     A
C1507  C1525   1.470   .     S
C1507  O1541   1.306   .     A
C1508  C1526   1.470   .     S
C1508  O1543   1.306   .     A
C1508  O1542   1.291   .     A
C1509  N1536   1.369   .     A
C1509  Br1547  1.923   .     S
C1510  N1535   1.374   .     A
C1510  Br1548  1.918   .     S
C1510  C947    1.419   1_565 S
C1511  Br1549  1.923   .     S
C1511  N1536   1.369   .     A
C1512  N1535   1.374   .     A
C1512  Br1550  1.918   .     S
C1512  C945    1.419   1_565 S
C1513  Br1595  1.938   .     S
C1513  C1530   1.410   .     A
C1514  Br1596  1.933   .     S
C1514  C1529   1.404   .     A
C1514  C1610   1.378   .     S
C1515  C1529   1.410   .     A
C1515  Br1597  1.938   .     S
C1515  C1607   1.380   .     S
C1516  Br1598  1.933   .     S
C1516  C1530   1.404   .     A
C1517  C1527   1.396   .     A
C1517  C1521   1.386   .     A
C1517  H1531   1.079   .     S
C1518  C1522   1.384   .     A
C1518  C1528   1.392   .     A
C1518  H1532   1.081   .     S
C1519  C1523   1.386   .     A
C1519  H1533   1.079   .     S
C1519  C1528   1.396   .     A
C1520  H1534   1.081   .     S
C1520  C1524   1.383   .     A
C1520  C1527   1.392   .     A
C1521  C1525   1.413   .     A
C1521  O1551   1.383   .     S
C1522  O1562   1.383   .     S
C1522  C1526   1.425   .     A
C1523  C1526   1.413   .     A
C1523  O1573   1.383   .     S
C1524  O1584   1.383   .     S
C1524  C1525   1.425   .     A
C1528  C681    1.462   1_556 S
N1535  Zn1545  2.018   .     S
N1536  Zn1546  2.018   .     S
O1537  Zn1545  1.996   .     S
O1538  Zn1546  1.996   .     S
O1539  Zn1545  1.996   .     S
O1540  Zn1546  1.996   .     S
O1541  Zn1545  2.024   .     S
O1542  Zn1546  2.024   .     S
O1543  Zn1545  2.024   .     S
O1544  Zn1546  2.024   .     S
O1551  C1552   1.419   .     S
C1552  C1555   1.540   .     S
C1552  H1554   1.113   .     S
C1552  H1553   1.110   .     S
C1555  H1556   1.108   .     S
C1555  H1557   1.108   .     S
C1555  C1558   1.526   .     S
C1558  H1560   1.111   .     S
C1558  H995    1.111   1_565 S
C1558  H997    1.107   1_565 S
O1562  C1563   1.418   .     S
C1563  H1564   1.111   .     S
C1563  H1565   1.116   .     S
C1563  C1566   1.534   .     S
C1566  H1568   1.111   .     S
C1566  H1567   1.106   .     S
C1566  C1569   1.526   .     S
C1569  H1571   1.110   .     S
C1569  H1572   1.111   .     S
C1569  H1570   1.111   .     S
O1573  C1574   1.419   .     S
C1574  H1575   1.110   .     S
C1574  C1577   1.539   .     S
C1574  H1576   1.113   .     S
C1577  H1578   1.108   .     S
C1577  H1579   1.107   .     S
C1577  C1580   1.526   .     S
C1580  H1582   1.111   .     S
C1580  H1017   1.111   1_565 S
C1580  H1019   1.107   1_565 S
O1584  C1585   1.418   .     S
C1585  H1586   1.111   .     S
C1585  H1587   1.116   .     S
C1585  C1588   1.534   .     S
C1588  C1591   1.525   .     S
C1588  H1590   1.110   .     S
C1588  H1589   1.106   .     S
C1591  H1592   1.111   .     S
C1591  H1593   1.110   .     S
C1591  H1594   1.111   .     S
C1599  O1631   1.297   .     A
C1599  C1624   1.445   .     S
C1599  O1634   1.291   .     A
C1600  O1633   1.297   .     A
C1600  O1632   1.291   .     A
C1600  C1623   1.445   .     S
C1601  O1638   1.291   .     A
C1601  C1619   1.470   .     S
C1601  O1635   1.306   .     A
C1602  C1620   1.470   .     S
C1602  O1637   1.306   .     A
C1602  O1636   1.291   .     A
C1603  N1630   1.369   .     A
C1603  Br1641  1.923   .     S
C1604  N1629   1.374   .     A
C1604  Br1642  1.918   .     S
C1604  C1041   1.419   1_565 S
C1605  Br1643  1.923   .     S
C1605  N1630   1.369   .     A
C1606  N1629   1.374   .     A
C1606  Br1644  1.918   .     S
C1606  C1039   1.419   1_565 S
C1607  Br1689  1.938   .     S
C1607  C1624   1.410   .     A
C1608  Br1690  1.933   .     S
C1608  C1623   1.404   .     A
C1608  C1422   1.378   1_655 S
C1609  C1623   1.410   .     A
C1609  Br1691  1.938   .     S
C1609  C1419   1.380   1_655 S
C1610  Br1692  1.933   .     S
C1610  C1624   1.404   .     A
C1611  C1621   1.396   .     A
C1611  C1615   1.386   .     A
C1611  H1625   1.079   .     S
C1612  C1616   1.384   .     A
C1612  C1622   1.392   .     A
C1612  H1626   1.081   .     S
C1613  C1617   1.386   .     A
C1613  H1627   1.079   .     S
C1613  C1622   1.396   .     A
C1614  H1628   1.081   .     S
C1614  C1618   1.383   .     A
C1614  C1621   1.392   .     A
C1615  C1619   1.413   .     A
C1615  O1645   1.383   .     S
C1616  O1656   1.383   .     S
C1616  C1620   1.425   .     A
C1617  C1620   1.413   .     A
C1617  O1667   1.383   .     S
C1618  O1678   1.383   .     S
C1618  C1619   1.425   .     A
C1622  C775    1.462   1_556 S
N1629  Zn1639  2.018   .     S
N1630  Zn1640  2.018   .     S
O1631  Zn1639  1.996   .     S
O1632  Zn1640  1.996   .     S
O1633  Zn1639  1.996   .     S
O1634  Zn1640  1.996   .     S
O1635  Zn1639  2.024   .     S
O1636  Zn1640  2.024   .     S
O1637  Zn1639  2.024   .     S
O1638  Zn1640  2.024   .     S
O1645  C1646   1.419   .     S
C1646  C1649   1.540   .     S
C1646  H1648   1.113   .     S
C1646  H1647   1.110   .     S
C1649  H1650   1.108   .     S
C1649  H1651   1.108   .     S
C1649  C1652   1.526   .     S
C1652  H1654   1.111   .     S
C1652  H1089   1.111   1_565 S
C1652  H1091   1.107   1_565 S
O1656  C1657   1.418   .     S
C1657  H1658   1.111   .     S
C1657  H1659   1.116   .     S
C1657  C1660   1.534   .     S
C1660  H1662   1.111   .     S
C1660  H1661   1.106   .     S
C1660  C1663   1.526   .     S
C1663  H1665   1.110   .     S
C1663  H1666   1.111   .     S
C1663  H1664   1.111   .     S
O1667  C1668   1.419   .     S
C1668  H1669   1.110   .     S
C1668  C1671   1.539   .     S
C1668  H1670   1.113   .     S
C1671  H1672   1.108   .     S
C1671  H1673   1.107   .     S
C1671  C1674   1.526   .     S
C1674  H1676   1.111   .     S
C1674  H1111   1.111   1_565 S
C1674  H1113   1.107   1_565 S
O1678  C1679   1.418   .     S
C1679  H1680   1.111   .     S
C1679  H1681   1.116   .     S
C1679  C1682   1.534   .     S
C1682  C1685   1.525   .     S
C1682  H1684   1.110   .     S
C1682  H1683   1.106   .     S
C1685  H1686   1.111   .     S
C1685  H1687   1.110   .     S
C1685  H1688   1.111   .     S
