data_str_m3_o10_o17_pcu_sym.143
_audit_creation_date              2020-01-03
_audit_creation_method            'Materials Studio'
_symmetry_space_group_name_H-M    'P1'
_symmetry_Int_Tables_number       1
_symmetry_cell_setting            triclinic
loop_
_symmetry_equiv_pos_as_xyz
  x,y,z
_cell_length_a                    23.2128
_cell_length_b                    26.0928
_cell_length_c                    29.8752
_cell_angle_alpha                 90.4201
_cell_angle_beta                  85.8862
_cell_angle_gamma                 93.8002
loop_
_atom_site_label
_atom_site_type_symbol
_atom_site_fract_x
_atom_site_fract_y
_atom_site_fract_z
_atom_site_U_iso_or_equiv
_atom_site_adp_type
_atom_site_occupancy
C1     C     0.18186   0.26472   0.24915   0.00000  Uiso   1.00
C2     C     0.18397   0.21280   0.40555   0.00000  Uiso   1.00
C3     C     0.16297   0.16771   0.11588   0.00000  Uiso   1.00
C4     C     0.16794   0.16681   0.38417   0.00000  Uiso   1.00
C5     C     0.18369   0.21211   0.09251   0.00000  Uiso   1.00
C6     C     0.14378   0.12372   0.40773   0.00000  Uiso   1.00
C7     C     0.17509   0.21592   0.04660   0.00000  Uiso   1.00
C8     C     0.13304   0.12677   0.45439   0.00000  Uiso   1.00
C9     C     0.15147   0.17190   0.02419   0.00000  Uiso   1.00
C10    C     0.15310   0.17168   0.47708   0.00000  Uiso   1.00
C11    C     0.12951   0.12704   0.04853   0.00000  Uiso   1.00
C12    C     0.15150   0.06860   0.25108   0.00000  Uiso   1.00
C13    C     0.17555   0.21605   0.45258   0.00000  Uiso   1.00
C14    C     0.18999   0.26207   0.02241   0.00000  Uiso   1.00
C15    C     0.10156   0.08672   0.47870   0.00000  Uiso   1.00
C16    C     0.11579   0.08105   0.12255   0.00000  Uiso   1.00
C17    C     0.21202   0.25477   0.37847   0.00000  Uiso   1.00
C18    C     0.21630   0.25197   0.11610   0.00000  Uiso   1.00
C19    C     0.13572   0.07532   0.38383   0.00000  Uiso   1.00
C20    C     0.24729   0.00385   0.22705   0.00000  Uiso   1.00
C21    C     0.08671   0.32961   0.27479   0.00000  Uiso   1.00
C22    C     0.18683   0.26262   0.47564   0.00000  Uiso   1.00
C23    C     0.10312   0.08496   0.02551   0.00000  Uiso   1.00
C24    C     0.18967   0.31856   0.24536   0.00000  Uiso   1.00
C25    C     0.14387   0.01479   0.25544   0.00000  Uiso   1.00
C26    C     0.16733   0.16631   0.33632   0.00000  Uiso   1.00
C27    C     0.16583   0.16689   0.16366   0.00000  Uiso   1.00
C28    C     0.13517   0.12573   0.09513   0.00000  Uiso   1.00
H29    H     0.00498   0.12821   0.21633   0.00000  Uiso   1.00
H30    H     0.32836   0.20514   0.28366   0.00000  Uiso   1.00
H31    H     0.23560   0.32708   0.02536   0.00000  Uiso   1.00
H32    H     0.03409   0.03831   0.47666   0.00000  Uiso   1.00
H33    H     0.17896   0.00304   0.47204   0.00000  Uiso   1.00
H34    H     0.08413   0.01128   0.02956   0.00000  Uiso   1.00
N35    N     0.31678   0.15265   0.23783   0.00000  Uiso   1.00
N36    N     0.01656   0.18068   0.26217   0.00000  Uiso   1.00
N37    N     0.10059   0.04571   0.14458   0.00000  Uiso   1.00
N38    N     0.23443   0.28792   0.35674   0.00000  Uiso   1.00
N39    N     0.24257   0.28358   0.13474   0.00000  Uiso   1.00
N40    N     0.12961   0.03663   0.36507   0.00000  Uiso   1.00
N41    N     0.29301   0.01838   0.21257   0.00000  Uiso   1.00
N42    N     0.04140   0.31523   0.29022   0.00000  Uiso   1.00
O43    O     0.12975   0.24619   0.25298   0.00000  Uiso   1.00
O44    O     0.06769   0.05072   0.45636   0.00000  Uiso   1.00
O45    O     0.19284   0.30845   0.45228   0.00000  Uiso   1.00
O46    O     0.07938   0.04211   0.04873   0.00000  Uiso   1.00
O47    O     0.20358   0.08714   0.24701   0.00000  Uiso   1.00
O48    O     0.22613   0.23721   0.24518   0.00000  Uiso   1.00
O49    O     0.10720   0.09613   0.25481   0.00000  Uiso   1.00
O50    O     0.11847   0.17117   0.31997   0.00000  Uiso   1.00
O51    O     0.21486   0.16216   0.18002   0.00000  Uiso   1.00
O52    O     0.21485   0.16219   0.31217   0.00000  Uiso   1.00
O53    O     0.11848   0.17115   0.18782   0.00000  Uiso   1.00
O54    O     0.20628   0.30667   0.04477   0.00000  Uiso   1.00
Zn55   Zn    0.10231   0.17266   0.25521   0.00000  Uiso   1.00
Zn56   Zn    0.23102   0.16067   0.24479   0.00000  Uiso   1.00
C57    C     0.51519   0.26472   0.24915   0.00000  Uiso   1.00
C58    C     0.51730   0.21280   0.40555   0.00000  Uiso   1.00
C59    C     0.49630   0.16771   0.11588   0.00000  Uiso   1.00
C60    C     0.50127   0.16681   0.38417   0.00000  Uiso   1.00
C61    C     0.51703   0.21211   0.09251   0.00000  Uiso   1.00
C62    C     0.47712   0.12372   0.40773   0.00000  Uiso   1.00
C63    C     0.50843   0.21592   0.04660   0.00000  Uiso   1.00
C64    C     0.46638   0.12677   0.45439   0.00000  Uiso   1.00
C65    C     0.48481   0.17190   0.02419   0.00000  Uiso   1.00
C66    C     0.48644   0.17168   0.47708   0.00000  Uiso   1.00
C67    C     0.46285   0.12704   0.04853   0.00000  Uiso   1.00
C68    C     0.48484   0.06860   0.25108   0.00000  Uiso   1.00
C69    C     0.50888   0.21605   0.45258   0.00000  Uiso   1.00
C70    C     0.52333   0.26207   0.02241   0.00000  Uiso   1.00
C71    C     0.43490   0.08672   0.47870   0.00000  Uiso   1.00
C72    C     0.44913   0.08105   0.12255   0.00000  Uiso   1.00
C73    C     0.54536   0.25477   0.37847   0.00000  Uiso   1.00
C74    C     0.54963   0.25197   0.11610   0.00000  Uiso   1.00
C75    C     0.46906   0.07532   0.38383   0.00000  Uiso   1.00
C76    C     0.58062   0.00385   0.22705   0.00000  Uiso   1.00
C77    C     0.42004   0.32961   0.27479   0.00000  Uiso   1.00
C78    C     0.52016   0.26262   0.47564   0.00000  Uiso   1.00
C79    C     0.43645   0.08496   0.02551   0.00000  Uiso   1.00
C80    C     0.52301   0.31856   0.24536   0.00000  Uiso   1.00
C81    C     0.47720   0.01479   0.25544   0.00000  Uiso   1.00
C82    C     0.50066   0.16631   0.33632   0.00000  Uiso   1.00
C83    C     0.49916   0.16689   0.16366   0.00000  Uiso   1.00
C84    C     0.46850   0.12573   0.09513   0.00000  Uiso   1.00
H85    H     0.33831   0.12821   0.21633   0.00000  Uiso   1.00
H86    H     0.66169   0.20514   0.28366   0.00000  Uiso   1.00
H87    H     0.56894   0.32708   0.02536   0.00000  Uiso   1.00
H88    H     0.36742   0.03831   0.47666   0.00000  Uiso   1.00
H89    H     0.51230   0.00304   0.47204   0.00000  Uiso   1.00
H90    H     0.41747   0.01128   0.02956   0.00000  Uiso   1.00
N91    N     0.65011   0.15265   0.23783   0.00000  Uiso   1.00
N92    N     0.34989   0.18068   0.26217   0.00000  Uiso   1.00
N93    N     0.43392   0.04571   0.14458   0.00000  Uiso   1.00
N94    N     0.56777   0.28792   0.35674   0.00000  Uiso   1.00
N95    N     0.57591   0.28358   0.13474   0.00000  Uiso   1.00
N96    N     0.46295   0.03663   0.36507   0.00000  Uiso   1.00
N97    N     0.62635   0.01838   0.21257   0.00000  Uiso   1.00
N98    N     0.37473   0.31523   0.29022   0.00000  Uiso   1.00
O99    O     0.46308   0.24619   0.25298   0.00000  Uiso   1.00
O100   O     0.40102   0.05072   0.45636   0.00000  Uiso   1.00
O101   O     0.52617   0.30845   0.45228   0.00000  Uiso   1.00
O102   O     0.41271   0.04211   0.04873   0.00000  Uiso   1.00
O103   O     0.53692   0.08714   0.24701   0.00000  Uiso   1.00
O104   O     0.55946   0.23721   0.24518   0.00000  Uiso   1.00
O105   O     0.44054   0.09613   0.25481   0.00000  Uiso   1.00
O106   O     0.45181   0.17117   0.31997   0.00000  Uiso   1.00
O107   O     0.54819   0.16216   0.18002   0.00000  Uiso   1.00
O108   O     0.54819   0.16219   0.31217   0.00000  Uiso   1.00
O109   O     0.45181   0.17115   0.18782   0.00000  Uiso   1.00
O110   O     0.53961   0.30667   0.04477   0.00000  Uiso   1.00
Zn111  Zn    0.43565   0.17266   0.25521   0.00000  Uiso   1.00
Zn112  Zn    0.56435   0.16067   0.24479   0.00000  Uiso   1.00
C113   C     0.84853   0.26472   0.24915   0.00000  Uiso   1.00
C114   C     0.85063   0.21280   0.40555   0.00000  Uiso   1.00
C115   C     0.82963   0.16771   0.11588   0.00000  Uiso   1.00
C116   C     0.83461   0.16681   0.38417   0.00000  Uiso   1.00
C117   C     0.85036   0.21211   0.09251   0.00000  Uiso   1.00
C118   C     0.81045   0.12372   0.40773   0.00000  Uiso   1.00
C119   C     0.84176   0.21592   0.04660   0.00000  Uiso   1.00
C120   C     0.79971   0.12677   0.45439   0.00000  Uiso   1.00
C121   C     0.81814   0.17190   0.02419   0.00000  Uiso   1.00
C122   C     0.81977   0.17168   0.47708   0.00000  Uiso   1.00
C123   C     0.79618   0.12704   0.04853   0.00000  Uiso   1.00
C124   C     0.81817   0.06860   0.25108   0.00000  Uiso   1.00
C125   C     0.84222   0.21605   0.45258   0.00000  Uiso   1.00
C126   C     0.85666   0.26207   0.02241   0.00000  Uiso   1.00
C127   C     0.76823   0.08672   0.47870   0.00000  Uiso   1.00
C128   C     0.78246   0.08105   0.12255   0.00000  Uiso   1.00
C129   C     0.87869   0.25477   0.37847   0.00000  Uiso   1.00
C130   C     0.88296   0.25197   0.11610   0.00000  Uiso   1.00
C131   C     0.80239   0.07532   0.38383   0.00000  Uiso   1.00
C132   C     0.91396   0.00385   0.22705   0.00000  Uiso   1.00
C133   C     0.75338   0.32961   0.27479   0.00000  Uiso   1.00
C134   C     0.85349   0.26262   0.47564   0.00000  Uiso   1.00
C135   C     0.76978   0.08496   0.02551   0.00000  Uiso   1.00
C136   C     0.85634   0.31856   0.24536   0.00000  Uiso   1.00
C137   C     0.81053   0.01479   0.25544   0.00000  Uiso   1.00
C138   C     0.83400   0.16631   0.33632   0.00000  Uiso   1.00
C139   C     0.83250   0.16689   0.16366   0.00000  Uiso   1.00
C140   C     0.80184   0.12573   0.09513   0.00000  Uiso   1.00
H141   H     0.67164   0.12821   0.21633   0.00000  Uiso   1.00
H142   H     0.99503   0.20514   0.28366   0.00000  Uiso   1.00
H143   H     0.90227   0.32708   0.02536   0.00000  Uiso   1.00
H144   H     0.70076   0.03831   0.47666   0.00000  Uiso   1.00
H145   H     0.84563   0.00304   0.47204   0.00000  Uiso   1.00
H146   H     0.75080   0.01128   0.02956   0.00000  Uiso   1.00
N147   N     0.98344   0.15265   0.23783   0.00000  Uiso   1.00
N148   N     0.68322   0.18068   0.26217   0.00000  Uiso   1.00
N149   N     0.76725   0.04571   0.14458   0.00000  Uiso   1.00
N150   N     0.90110   0.28792   0.35674   0.00000  Uiso   1.00
N151   N     0.90924   0.28358   0.13474   0.00000  Uiso   1.00
N152   N     0.79628   0.03663   0.36507   0.00000  Uiso   1.00
N153   N     0.95968   0.01838   0.21257   0.00000  Uiso   1.00
N154   N     0.70806   0.31523   0.29022   0.00000  Uiso   1.00
O155   O     0.79642   0.24619   0.25298   0.00000  Uiso   1.00
O156   O     0.73435   0.05072   0.45636   0.00000  Uiso   1.00
O157   O     0.85950   0.30845   0.45228   0.00000  Uiso   1.00
O158   O     0.74605   0.04211   0.04873   0.00000  Uiso   1.00
O159   O     0.87025   0.08714   0.24701   0.00000  Uiso   1.00
O160   O     0.89280   0.23721   0.24518   0.00000  Uiso   1.00
O161   O     0.77387   0.09613   0.25481   0.00000  Uiso   1.00
O162   O     0.78514   0.17117   0.31997   0.00000  Uiso   1.00
O163   O     0.88153   0.16216   0.18002   0.00000  Uiso   1.00
O164   O     0.88152   0.16219   0.31217   0.00000  Uiso   1.00
O165   O     0.78515   0.17115   0.18782   0.00000  Uiso   1.00
O166   O     0.87294   0.30667   0.04477   0.00000  Uiso   1.00
Zn167  Zn    0.76898   0.17266   0.25521   0.00000  Uiso   1.00
Zn168  Zn    0.89769   0.16067   0.24479   0.00000  Uiso   1.00
C169   C     0.18186   0.59805   0.24915   0.00000  Uiso   1.00
C170   C     0.18397   0.54613   0.40555   0.00000  Uiso   1.00
C171   C     0.16297   0.50104   0.11588   0.00000  Uiso   1.00
C172   C     0.16794   0.50015   0.38417   0.00000  Uiso   1.00
C173   C     0.18369   0.54544   0.09251   0.00000  Uiso   1.00
C174   C     0.14378   0.45705   0.40773   0.00000  Uiso   1.00
C175   C     0.17509   0.54926   0.04660   0.00000  Uiso   1.00
C176   C     0.13304   0.46010   0.45439   0.00000  Uiso   1.00
C177   C     0.15147   0.50524   0.02419   0.00000  Uiso   1.00
C178   C     0.15310   0.50501   0.47708   0.00000  Uiso   1.00
C179   C     0.12951   0.46037   0.04853   0.00000  Uiso   1.00
C180   C     0.15150   0.40194   0.25108   0.00000  Uiso   1.00
C181   C     0.17555   0.54938   0.45258   0.00000  Uiso   1.00
C182   C     0.18999   0.59540   0.02241   0.00000  Uiso   1.00
C183   C     0.10156   0.42006   0.47870   0.00000  Uiso   1.00
C184   C     0.11579   0.41438   0.12255   0.00000  Uiso   1.00
C185   C     0.21202   0.58810   0.37847   0.00000  Uiso   1.00
C186   C     0.21630   0.58531   0.11610   0.00000  Uiso   1.00
C187   C     0.13572   0.40866   0.38383   0.00000  Uiso   1.00
C188   C     0.24729   0.33718   0.22705   0.00000  Uiso   1.00
C189   C     0.08671   0.66294   0.27479   0.00000  Uiso   1.00
C190   C     0.18683   0.59596   0.47564   0.00000  Uiso   1.00
C191   C     0.10312   0.41830   0.02551   0.00000  Uiso   1.00
C192   C     0.18967   0.65189   0.24536   0.00000  Uiso   1.00
C193   C     0.14387   0.34813   0.25544   0.00000  Uiso   1.00
C194   C     0.16733   0.49964   0.33632   0.00000  Uiso   1.00
C195   C     0.16583   0.50022   0.16366   0.00000  Uiso   1.00
C196   C     0.13517   0.45907   0.09513   0.00000  Uiso   1.00
H197   H     0.00498   0.46154   0.21633   0.00000  Uiso   1.00
H198   H     0.32836   0.53847   0.28366   0.00000  Uiso   1.00
H199   H     0.23560   0.66041   0.02536   0.00000  Uiso   1.00
H200   H     0.03409   0.37165   0.47666   0.00000  Uiso   1.00
H201   H     0.17896   0.33637   0.47204   0.00000  Uiso   1.00
H202   H     0.08413   0.34461   0.02956   0.00000  Uiso   1.00
N203   N     0.31678   0.48598   0.23783   0.00000  Uiso   1.00
N204   N     0.01656   0.51402   0.26217   0.00000  Uiso   1.00
N205   N     0.10059   0.37904   0.14458   0.00000  Uiso   1.00
N206   N     0.23443   0.62126   0.35674   0.00000  Uiso   1.00
N207   N     0.24257   0.61691   0.13474   0.00000  Uiso   1.00
N208   N     0.12961   0.36997   0.36507   0.00000  Uiso   1.00
N209   N     0.29301   0.35172   0.21257   0.00000  Uiso   1.00
N210   N     0.04140   0.64857   0.29022   0.00000  Uiso   1.00
O211   O     0.12975   0.57952   0.25298   0.00000  Uiso   1.00
O212   O     0.06769   0.38405   0.45636   0.00000  Uiso   1.00
O213   O     0.19284   0.64179   0.45228   0.00000  Uiso   1.00
O214   O     0.07938   0.37544   0.04873   0.00000  Uiso   1.00
O215   O     0.20358   0.42048   0.24701   0.00000  Uiso   1.00
O216   O     0.22613   0.57054   0.24518   0.00000  Uiso   1.00
O217   O     0.10720   0.42946   0.25481   0.00000  Uiso   1.00
O218   O     0.11847   0.50450   0.31997   0.00000  Uiso   1.00
O219   O     0.21486   0.49550   0.18002   0.00000  Uiso   1.00
O220   O     0.21485   0.49552   0.31217   0.00000  Uiso   1.00
O221   O     0.11848   0.50448   0.18782   0.00000  Uiso   1.00
O222   O     0.20628   0.64000   0.04477   0.00000  Uiso   1.00
Zn223  Zn    0.10231   0.50600   0.25521   0.00000  Uiso   1.00
Zn224  Zn    0.23102   0.49400   0.24479   0.00000  Uiso   1.00
C225   C     0.51519   0.59805   0.24915   0.00000  Uiso   1.00
C226   C     0.51730   0.54613   0.40555   0.00000  Uiso   1.00
C227   C     0.49630   0.50104   0.11588   0.00000  Uiso   1.00
C228   C     0.50127   0.50015   0.38417   0.00000  Uiso   1.00
C229   C     0.51703   0.54544   0.09251   0.00000  Uiso   1.00
C230   C     0.47712   0.45705   0.40773   0.00000  Uiso   1.00
C231   C     0.50843   0.54926   0.04660   0.00000  Uiso   1.00
C232   C     0.46638   0.46010   0.45439   0.00000  Uiso   1.00
C233   C     0.48481   0.50524   0.02419   0.00000  Uiso   1.00
C234   C     0.48644   0.50501   0.47708   0.00000  Uiso   1.00
C235   C     0.46285   0.46037   0.04853   0.00000  Uiso   1.00
C236   C     0.48484   0.40194   0.25108   0.00000  Uiso   1.00
C237   C     0.50888   0.54938   0.45258   0.00000  Uiso   1.00
C238   C     0.52333   0.59540   0.02241   0.00000  Uiso   1.00
C239   C     0.43490   0.42006   0.47870   0.00000  Uiso   1.00
C240   C     0.44913   0.41438   0.12255   0.00000  Uiso   1.00
C241   C     0.54536   0.58810   0.37847   0.00000  Uiso   1.00
C242   C     0.54963   0.58531   0.11610   0.00000  Uiso   1.00
C243   C     0.46906   0.40866   0.38383   0.00000  Uiso   1.00
C244   C     0.58062   0.33718   0.22705   0.00000  Uiso   1.00
C245   C     0.42004   0.66294   0.27479   0.00000  Uiso   1.00
C246   C     0.52016   0.59596   0.47564   0.00000  Uiso   1.00
C247   C     0.43645   0.41830   0.02551   0.00000  Uiso   1.00
C248   C     0.52301   0.65189   0.24536   0.00000  Uiso   1.00
C249   C     0.47720   0.34813   0.25544   0.00000  Uiso   1.00
C250   C     0.50066   0.49964   0.33632   0.00000  Uiso   1.00
C251   C     0.49916   0.50022   0.16366   0.00000  Uiso   1.00
C252   C     0.46850   0.45907   0.09513   0.00000  Uiso   1.00
H253   H     0.33831   0.46154   0.21633   0.00000  Uiso   1.00
H254   H     0.66169   0.53847   0.28366   0.00000  Uiso   1.00
H255   H     0.56894   0.66041   0.02536   0.00000  Uiso   1.00
H256   H     0.36742   0.37165   0.47666   0.00000  Uiso   1.00
H257   H     0.51230   0.33637   0.47204   0.00000  Uiso   1.00
H258   H     0.41747   0.34461   0.02956   0.00000  Uiso   1.00
N259   N     0.65011   0.48598   0.23783   0.00000  Uiso   1.00
N260   N     0.34989   0.51402   0.26217   0.00000  Uiso   1.00
N261   N     0.43392   0.37904   0.14458   0.00000  Uiso   1.00
N262   N     0.56777   0.62126   0.35674   0.00000  Uiso   1.00
N263   N     0.57591   0.61691   0.13474   0.00000  Uiso   1.00
N264   N     0.46295   0.36997   0.36507   0.00000  Uiso   1.00
N265   N     0.62635   0.35172   0.21257   0.00000  Uiso   1.00
N266   N     0.37473   0.64857   0.29022   0.00000  Uiso   1.00
O267   O     0.46308   0.57952   0.25298   0.00000  Uiso   1.00
O268   O     0.40102   0.38405   0.45636   0.00000  Uiso   1.00
O269   O     0.52617   0.64179   0.45228   0.00000  Uiso   1.00
O270   O     0.41271   0.37544   0.04873   0.00000  Uiso   1.00
O271   O     0.53692   0.42048   0.24701   0.00000  Uiso   1.00
O272   O     0.55946   0.57054   0.24518   0.00000  Uiso   1.00
O273   O     0.44054   0.42946   0.25481   0.00000  Uiso   1.00
O274   O     0.45181   0.50450   0.31997   0.00000  Uiso   1.00
O275   O     0.54819   0.49550   0.18002   0.00000  Uiso   1.00
O276   O     0.54819   0.49552   0.31217   0.00000  Uiso   1.00
O277   O     0.45181   0.50448   0.18782   0.00000  Uiso   1.00
O278   O     0.53961   0.64000   0.04477   0.00000  Uiso   1.00
Zn279  Zn    0.43565   0.50600   0.25521   0.00000  Uiso   1.00
Zn280  Zn    0.56435   0.49400   0.24479   0.00000  Uiso   1.00
C281   C     0.84853   0.59805   0.24915   0.00000  Uiso   1.00
C282   C     0.85063   0.54613   0.40555   0.00000  Uiso   1.00
C283   C     0.82963   0.50104   0.11588   0.00000  Uiso   1.00
C284   C     0.83461   0.50015   0.38417   0.00000  Uiso   1.00
C285   C     0.85036   0.54544   0.09251   0.00000  Uiso   1.00
C286   C     0.81045   0.45705   0.40773   0.00000  Uiso   1.00
C287   C     0.84176   0.54926   0.04660   0.00000  Uiso   1.00
C288   C     0.79971   0.46010   0.45439   0.00000  Uiso   1.00
C289   C     0.81814   0.50524   0.02419   0.00000  Uiso   1.00
C290   C     0.81977   0.50501   0.47708   0.00000  Uiso   1.00
C291   C     0.79618   0.46037   0.04853   0.00000  Uiso   1.00
C292   C     0.81817   0.40194   0.25108   0.00000  Uiso   1.00
C293   C     0.84222   0.54938   0.45258   0.00000  Uiso   1.00
C294   C     0.85666   0.59540   0.02241   0.00000  Uiso   1.00
C295   C     0.76823   0.42006   0.47870   0.00000  Uiso   1.00
C296   C     0.78246   0.41438   0.12255   0.00000  Uiso   1.00
C297   C     0.87869   0.58810   0.37847   0.00000  Uiso   1.00
C298   C     0.88296   0.58531   0.11610   0.00000  Uiso   1.00
C299   C     0.80239   0.40866   0.38383   0.00000  Uiso   1.00
C300   C     0.91396   0.33718   0.22705   0.00000  Uiso   1.00
C301   C     0.75338   0.66294   0.27479   0.00000  Uiso   1.00
C302   C     0.85349   0.59596   0.47564   0.00000  Uiso   1.00
C303   C     0.76978   0.41830   0.02551   0.00000  Uiso   1.00
C304   C     0.85634   0.65189   0.24536   0.00000  Uiso   1.00
C305   C     0.81053   0.34813   0.25544   0.00000  Uiso   1.00
C306   C     0.83400   0.49964   0.33632   0.00000  Uiso   1.00
C307   C     0.83250   0.50022   0.16366   0.00000  Uiso   1.00
C308   C     0.80184   0.45907   0.09513   0.00000  Uiso   1.00
H309   H     0.67164   0.46154   0.21633   0.00000  Uiso   1.00
H310   H     0.99503   0.53847   0.28366   0.00000  Uiso   1.00
H311   H     0.90227   0.66041   0.02536   0.00000  Uiso   1.00
H312   H     0.70076   0.37165   0.47666   0.00000  Uiso   1.00
H313   H     0.84563   0.33637   0.47204   0.00000  Uiso   1.00
H314   H     0.75080   0.34461   0.02956   0.00000  Uiso   1.00
N315   N     0.98344   0.48598   0.23783   0.00000  Uiso   1.00
N316   N     0.68322   0.51402   0.26217   0.00000  Uiso   1.00
N317   N     0.76725   0.37904   0.14458   0.00000  Uiso   1.00
N318   N     0.90110   0.62126   0.35674   0.00000  Uiso   1.00
N319   N     0.90924   0.61691   0.13474   0.00000  Uiso   1.00
N320   N     0.79628   0.36997   0.36507   0.00000  Uiso   1.00
N321   N     0.95968   0.35172   0.21257   0.00000  Uiso   1.00
N322   N     0.70806   0.64857   0.29022   0.00000  Uiso   1.00
O323   O     0.79642   0.57952   0.25298   0.00000  Uiso   1.00
O324   O     0.73435   0.38405   0.45636   0.00000  Uiso   1.00
O325   O     0.85950   0.64179   0.45228   0.00000  Uiso   1.00
O326   O     0.74605   0.37544   0.04873   0.00000  Uiso   1.00
O327   O     0.87025   0.42048   0.24701   0.00000  Uiso   1.00
O328   O     0.89280   0.57054   0.24518   0.00000  Uiso   1.00
O329   O     0.77387   0.42946   0.25481   0.00000  Uiso   1.00
O330   O     0.78514   0.50450   0.31997   0.00000  Uiso   1.00
O331   O     0.88153   0.49550   0.18002   0.00000  Uiso   1.00
O332   O     0.88152   0.49552   0.31217   0.00000  Uiso   1.00
O333   O     0.78515   0.50448   0.18782   0.00000  Uiso   1.00
O334   O     0.87294   0.64000   0.04477   0.00000  Uiso   1.00
Zn335  Zn    0.76898   0.50600   0.25521   0.00000  Uiso   1.00
Zn336  Zn    0.89769   0.49400   0.24479   0.00000  Uiso   1.00
C337   C     0.18186   0.93139   0.24915   0.00000  Uiso   1.00
C338   C     0.18397   0.87946   0.40555   0.00000  Uiso   1.00
C339   C     0.16297   0.83438   0.11588   0.00000  Uiso   1.00
C340   C     0.16794   0.83348   0.38417   0.00000  Uiso   1.00
C341   C     0.18369   0.87878   0.09251   0.00000  Uiso   1.00
C342   C     0.14378   0.79039   0.40773   0.00000  Uiso   1.00
C343   C     0.17509   0.88259   0.04660   0.00000  Uiso   1.00
C344   C     0.13304   0.79343   0.45439   0.00000  Uiso   1.00
C345   C     0.15147   0.83857   0.02419   0.00000  Uiso   1.00
C346   C     0.15310   0.83835   0.47708   0.00000  Uiso   1.00
C347   C     0.12951   0.79370   0.04853   0.00000  Uiso   1.00
C348   C     0.15150   0.73527   0.25108   0.00000  Uiso   1.00
C349   C     0.17555   0.88272   0.45258   0.00000  Uiso   1.00
C350   C     0.18999   0.92873   0.02241   0.00000  Uiso   1.00
C351   C     0.10156   0.75339   0.47870   0.00000  Uiso   1.00
C352   C     0.11579   0.74772   0.12255   0.00000  Uiso   1.00
C353   C     0.21202   0.92144   0.37847   0.00000  Uiso   1.00
C354   C     0.21630   0.91864   0.11610   0.00000  Uiso   1.00
C355   C     0.13572   0.74199   0.38383   0.00000  Uiso   1.00
C356   C     0.24729   0.67052   0.22705   0.00000  Uiso   1.00
C357   C     0.08671   0.99628   0.27479   0.00000  Uiso   1.00
C358   C     0.18683   0.92929   0.47564   0.00000  Uiso   1.00
C359   C     0.10312   0.75163   0.02551   0.00000  Uiso   1.00
C360   C     0.18967   0.98523   0.24536   0.00000  Uiso   1.00
C361   C     0.14387   0.68146   0.25544   0.00000  Uiso   1.00
C362   C     0.16733   0.83298   0.33632   0.00000  Uiso   1.00
C363   C     0.16583   0.83355   0.16366   0.00000  Uiso   1.00
C364   C     0.13517   0.79240   0.09513   0.00000  Uiso   1.00
H365   H     0.00498   0.79488   0.21633   0.00000  Uiso   1.00
H366   H     0.32836   0.87181   0.28366   0.00000  Uiso   1.00
H367   H     0.23560   0.99375   0.02536   0.00000  Uiso   1.00
H368   H     0.03409   0.70498   0.47666   0.00000  Uiso   1.00
H369   H     0.17896   0.66971   0.47204   0.00000  Uiso   1.00
H370   H     0.08413   0.67794   0.02956   0.00000  Uiso   1.00
N371   N     0.31678   0.81932   0.23783   0.00000  Uiso   1.00
N372   N     0.01656   0.84735   0.26217   0.00000  Uiso   1.00
N373   N     0.10059   0.71237   0.14458   0.00000  Uiso   1.00
N374   N     0.23443   0.95459   0.35674   0.00000  Uiso   1.00
N375   N     0.24257   0.95025   0.13474   0.00000  Uiso   1.00
N376   N     0.12961   0.70330   0.36507   0.00000  Uiso   1.00
N377   N     0.29301   0.68505   0.21257   0.00000  Uiso   1.00
N378   N     0.04140   0.98190   0.29022   0.00000  Uiso   1.00
O379   O     0.12975   0.91286   0.25298   0.00000  Uiso   1.00
O380   O     0.06769   0.71738   0.45636   0.00000  Uiso   1.00
O381   O     0.19284   0.97512   0.45228   0.00000  Uiso   1.00
O382   O     0.07938   0.70878   0.04873   0.00000  Uiso   1.00
O383   O     0.20358   0.75381   0.24701   0.00000  Uiso   1.00
O384   O     0.22613   0.90387   0.24518   0.00000  Uiso   1.00
O385   O     0.10720   0.76279   0.25481   0.00000  Uiso   1.00
O386   O     0.11847   0.83784   0.31997   0.00000  Uiso   1.00
O387   O     0.21486   0.82883   0.18002   0.00000  Uiso   1.00
O388   O     0.21485   0.82885   0.31217   0.00000  Uiso   1.00
O389   O     0.11848   0.83781   0.18782   0.00000  Uiso   1.00
O390   O     0.20628   0.97334   0.04477   0.00000  Uiso   1.00
Zn391  Zn    0.10231   0.83933   0.25521   0.00000  Uiso   1.00
Zn392  Zn    0.23102   0.82734   0.24479   0.00000  Uiso   1.00
C393   C     0.51519   0.93139   0.24915   0.00000  Uiso   1.00
C394   C     0.51730   0.87946   0.40555   0.00000  Uiso   1.00
C395   C     0.49630   0.83438   0.11588   0.00000  Uiso   1.00
C396   C     0.50127   0.83348   0.38417   0.00000  Uiso   1.00
C397   C     0.51703   0.87878   0.09251   0.00000  Uiso   1.00
C398   C     0.47712   0.79039   0.40773   0.00000  Uiso   1.00
C399   C     0.50843   0.88259   0.04660   0.00000  Uiso   1.00
C400   C     0.46638   0.79343   0.45439   0.00000  Uiso   1.00
C401   C     0.48481   0.83857   0.02419   0.00000  Uiso   1.00
C402   C     0.48644   0.83835   0.47708   0.00000  Uiso   1.00
C403   C     0.46285   0.79370   0.04853   0.00000  Uiso   1.00
C404   C     0.48484   0.73527   0.25108   0.00000  Uiso   1.00
C405   C     0.50888   0.88272   0.45258   0.00000  Uiso   1.00
C406   C     0.52333   0.92873   0.02241   0.00000  Uiso   1.00
C407   C     0.43490   0.75339   0.47870   0.00000  Uiso   1.00
C408   C     0.44913   0.74772   0.12255   0.00000  Uiso   1.00
C409   C     0.54536   0.92144   0.37847   0.00000  Uiso   1.00
C410   C     0.54963   0.91864   0.11610   0.00000  Uiso   1.00
C411   C     0.46906   0.74199   0.38383   0.00000  Uiso   1.00
C412   C     0.58062   0.67052   0.22705   0.00000  Uiso   1.00
C413   C     0.42004   0.99628   0.27479   0.00000  Uiso   1.00
C414   C     0.52016   0.92929   0.47564   0.00000  Uiso   1.00
C415   C     0.43645   0.75163   0.02551   0.00000  Uiso   1.00
C416   C     0.52301   0.98523   0.24536   0.00000  Uiso   1.00
C417   C     0.47720   0.68146   0.25544   0.00000  Uiso   1.00
C418   C     0.50066   0.83298   0.33632   0.00000  Uiso   1.00
C419   C     0.49916   0.83355   0.16366   0.00000  Uiso   1.00
C420   C     0.46850   0.79240   0.09513   0.00000  Uiso   1.00
H421   H     0.33831   0.79488   0.21633   0.00000  Uiso   1.00
H422   H     0.66169   0.87181   0.28366   0.00000  Uiso   1.00
H423   H     0.56894   0.99375   0.02536   0.00000  Uiso   1.00
H424   H     0.36742   0.70498   0.47666   0.00000  Uiso   1.00
H425   H     0.51230   0.66971   0.47204   0.00000  Uiso   1.00
H426   H     0.41747   0.67794   0.02956   0.00000  Uiso   1.00
N427   N     0.65011   0.81932   0.23783   0.00000  Uiso   1.00
N428   N     0.34989   0.84735   0.26217   0.00000  Uiso   1.00
N429   N     0.43392   0.71237   0.14458   0.00000  Uiso   1.00
N430   N     0.56777   0.95459   0.35674   0.00000  Uiso   1.00
N431   N     0.57591   0.95025   0.13474   0.00000  Uiso   1.00
N432   N     0.46295   0.70330   0.36507   0.00000  Uiso   1.00
N433   N     0.62635   0.68505   0.21257   0.00000  Uiso   1.00
N434   N     0.37473   0.98190   0.29022   0.00000  Uiso   1.00
O435   O     0.46308   0.91286   0.25298   0.00000  Uiso   1.00
O436   O     0.40102   0.71738   0.45636   0.00000  Uiso   1.00
O437   O     0.52617   0.97512   0.45228   0.00000  Uiso   1.00
O438   O     0.41271   0.70878   0.04873   0.00000  Uiso   1.00
O439   O     0.53692   0.75381   0.24701   0.00000  Uiso   1.00
O440   O     0.55946   0.90387   0.24518   0.00000  Uiso   1.00
O441   O     0.44054   0.76279   0.25481   0.00000  Uiso   1.00
O442   O     0.45181   0.83784   0.31997   0.00000  Uiso   1.00
O443   O     0.54819   0.82883   0.18002   0.00000  Uiso   1.00
O444   O     0.54819   0.82885   0.31217   0.00000  Uiso   1.00
O445   O     0.45181   0.83781   0.18782   0.00000  Uiso   1.00
O446   O     0.53961   0.97334   0.04477   0.00000  Uiso   1.00
Zn447  Zn    0.43565   0.83933   0.25521   0.00000  Uiso   1.00
Zn448  Zn    0.56435   0.82734   0.24479   0.00000  Uiso   1.00
C449   C     0.84853   0.93139   0.24915   0.00000  Uiso   1.00
C450   C     0.85063   0.87946   0.40555   0.00000  Uiso   1.00
C451   C     0.82963   0.83438   0.11588   0.00000  Uiso   1.00
C452   C     0.83461   0.83348   0.38417   0.00000  Uiso   1.00
C453   C     0.85036   0.87878   0.09251   0.00000  Uiso   1.00
C454   C     0.81045   0.79039   0.40773   0.00000  Uiso   1.00
C455   C     0.84176   0.88259   0.04660   0.00000  Uiso   1.00
C456   C     0.79971   0.79343   0.45439   0.00000  Uiso   1.00
C457   C     0.81814   0.83857   0.02419   0.00000  Uiso   1.00
C458   C     0.81977   0.83835   0.47708   0.00000  Uiso   1.00
C459   C     0.79618   0.79370   0.04853   0.00000  Uiso   1.00
C460   C     0.81817   0.73527   0.25108   0.00000  Uiso   1.00
C461   C     0.84222   0.88272   0.45258   0.00000  Uiso   1.00
C462   C     0.85666   0.92873   0.02241   0.00000  Uiso   1.00
C463   C     0.76823   0.75339   0.47870   0.00000  Uiso   1.00
C464   C     0.78246   0.74772   0.12255   0.00000  Uiso   1.00
C465   C     0.87869   0.92144   0.37847   0.00000  Uiso   1.00
C466   C     0.88296   0.91864   0.11610   0.00000  Uiso   1.00
C467   C     0.80239   0.74199   0.38383   0.00000  Uiso   1.00
C468   C     0.91396   0.67052   0.22705   0.00000  Uiso   1.00
C469   C     0.75338   0.99628   0.27479   0.00000  Uiso   1.00
C470   C     0.85349   0.92929   0.47564   0.00000  Uiso   1.00
C471   C     0.76978   0.75163   0.02551   0.00000  Uiso   1.00
C472   C     0.85634   0.98523   0.24536   0.00000  Uiso   1.00
C473   C     0.81053   0.68146   0.25544   0.00000  Uiso   1.00
C474   C     0.83400   0.83298   0.33632   0.00000  Uiso   1.00
C475   C     0.83250   0.83355   0.16366   0.00000  Uiso   1.00
C476   C     0.80184   0.79240   0.09513   0.00000  Uiso   1.00
H477   H     0.67164   0.79488   0.21633   0.00000  Uiso   1.00
H478   H     0.99503   0.87181   0.28366   0.00000  Uiso   1.00
H479   H     0.90227   0.99375   0.02536   0.00000  Uiso   1.00
H480   H     0.70076   0.70498   0.47666   0.00000  Uiso   1.00
H481   H     0.84563   0.66971   0.47204   0.00000  Uiso   1.00
H482   H     0.75080   0.67794   0.02956   0.00000  Uiso   1.00
N483   N     0.98344   0.81932   0.23783   0.00000  Uiso   1.00
N484   N     0.68322   0.84735   0.26217   0.00000  Uiso   1.00
N485   N     0.76725   0.71237   0.14458   0.00000  Uiso   1.00
N486   N     0.90110   0.95459   0.35674   0.00000  Uiso   1.00
N487   N     0.90924   0.95025   0.13474   0.00000  Uiso   1.00
N488   N     0.79628   0.70330   0.36507   0.00000  Uiso   1.00
N489   N     0.95968   0.68505   0.21257   0.00000  Uiso   1.00
N490   N     0.70806   0.98190   0.29022   0.00000  Uiso   1.00
O491   O     0.79642   0.91286   0.25298   0.00000  Uiso   1.00
O492   O     0.73435   0.71738   0.45636   0.00000  Uiso   1.00
O493   O     0.85950   0.97512   0.45228   0.00000  Uiso   1.00
O494   O     0.74605   0.70878   0.04873   0.00000  Uiso   1.00
O495   O     0.87025   0.75381   0.24701   0.00000  Uiso   1.00
O496   O     0.89280   0.90387   0.24518   0.00000  Uiso   1.00
O497   O     0.77387   0.76279   0.25481   0.00000  Uiso   1.00
O498   O     0.78514   0.83784   0.31997   0.00000  Uiso   1.00
O499   O     0.88153   0.82883   0.18002   0.00000  Uiso   1.00
O500   O     0.88152   0.82885   0.31217   0.00000  Uiso   1.00
O501   O     0.78515   0.83781   0.18782   0.00000  Uiso   1.00
O502   O     0.87294   0.97334   0.04477   0.00000  Uiso   1.00
Zn503  Zn    0.76898   0.83933   0.25521   0.00000  Uiso   1.00
Zn504  Zn    0.89769   0.82734   0.24479   0.00000  Uiso   1.00
C505   C     0.18186   0.26472   0.74915   0.00000  Uiso   1.00
C506   C     0.18397   0.21280   0.90555   0.00000  Uiso   1.00
C507   C     0.16297   0.16771   0.61588   0.00000  Uiso   1.00
C508   C     0.16794   0.16681   0.88417   0.00000  Uiso   1.00
C509   C     0.18369   0.21211   0.59251   0.00000  Uiso   1.00
C510   C     0.14378   0.12372   0.90773   0.00000  Uiso   1.00
C511   C     0.17509   0.21592   0.54660   0.00000  Uiso   1.00
C512   C     0.13304   0.12677   0.95439   0.00000  Uiso   1.00
C513   C     0.15147   0.17190   0.52419   0.00000  Uiso   1.00
C514   C     0.15310   0.17168   0.97708   0.00000  Uiso   1.00
C515   C     0.12951   0.12704   0.54853   0.00000  Uiso   1.00
C516   C     0.15150   0.06860   0.75108   0.00000  Uiso   1.00
C517   C     0.17555   0.21605   0.95258   0.00000  Uiso   1.00
C518   C     0.18999   0.26207   0.52241   0.00000  Uiso   1.00
C519   C     0.10156   0.08672   0.97870   0.00000  Uiso   1.00
C520   C     0.11579   0.08105   0.62255   0.00000  Uiso   1.00
C521   C     0.21202   0.25477   0.87847   0.00000  Uiso   1.00
C522   C     0.21630   0.25197   0.61610   0.00000  Uiso   1.00
C523   C     0.13572   0.07532   0.88383   0.00000  Uiso   1.00
C524   C     0.24729   0.00385   0.72705   0.00000  Uiso   1.00
C525   C     0.08671   0.32961   0.77479   0.00000  Uiso   1.00
C526   C     0.18683   0.26262   0.97564   0.00000  Uiso   1.00
C527   C     0.10312   0.08496   0.52551   0.00000  Uiso   1.00
C528   C     0.18967   0.31856   0.74536   0.00000  Uiso   1.00
C529   C     0.14387   0.01479   0.75544   0.00000  Uiso   1.00
C530   C     0.16733   0.16631   0.83632   0.00000  Uiso   1.00
C531   C     0.16583   0.16689   0.66366   0.00000  Uiso   1.00
C532   C     0.13517   0.12573   0.59513   0.00000  Uiso   1.00
H533   H     0.00498   0.12821   0.71633   0.00000  Uiso   1.00
H534   H     0.32836   0.20514   0.78366   0.00000  Uiso   1.00
H535   H     0.23560   0.32708   0.52536   0.00000  Uiso   1.00
H536   H     0.03409   0.03831   0.97666   0.00000  Uiso   1.00
H537   H     0.17896   0.00304   0.97204   0.00000  Uiso   1.00
H538   H     0.08413   0.01128   0.52956   0.00000  Uiso   1.00
N539   N     0.31678   0.15265   0.73783   0.00000  Uiso   1.00
N540   N     0.01656   0.18068   0.76217   0.00000  Uiso   1.00
N541   N     0.10059   0.04571   0.64458   0.00000  Uiso   1.00
N542   N     0.23443   0.28792   0.85674   0.00000  Uiso   1.00
N543   N     0.24257   0.28358   0.63474   0.00000  Uiso   1.00
N544   N     0.12961   0.03663   0.86507   0.00000  Uiso   1.00
N545   N     0.29301   0.01838   0.71257   0.00000  Uiso   1.00
N546   N     0.04140   0.31523   0.79022   0.00000  Uiso   1.00
O547   O     0.12975   0.24619   0.75298   0.00000  Uiso   1.00
O548   O     0.06769   0.05072   0.95636   0.00000  Uiso   1.00
O549   O     0.19284   0.30845   0.95228   0.00000  Uiso   1.00
O550   O     0.07938   0.04211   0.54873   0.00000  Uiso   1.00
O551   O     0.20358   0.08714   0.74701   0.00000  Uiso   1.00
O552   O     0.22613   0.23721   0.74518   0.00000  Uiso   1.00
O553   O     0.10720   0.09613   0.75481   0.00000  Uiso   1.00
O554   O     0.11847   0.17117   0.81997   0.00000  Uiso   1.00
O555   O     0.21486   0.16216   0.68002   0.00000  Uiso   1.00
O556   O     0.21485   0.16219   0.81217   0.00000  Uiso   1.00
O557   O     0.11848   0.17115   0.68782   0.00000  Uiso   1.00
O558   O     0.20628   0.30667   0.54477   0.00000  Uiso   1.00
Zn559  Zn    0.10231   0.17266   0.75521   0.00000  Uiso   1.00
Zn560  Zn    0.23102   0.16067   0.74479   0.00000  Uiso   1.00
C561   C     0.51519   0.26472   0.74915   0.00000  Uiso   1.00
C562   C     0.51730   0.21280   0.90555   0.00000  Uiso   1.00
C563   C     0.49630   0.16771   0.61588   0.00000  Uiso   1.00
C564   C     0.50127   0.16681   0.88417   0.00000  Uiso   1.00
C565   C     0.51703   0.21211   0.59251   0.00000  Uiso   1.00
C566   C     0.47712   0.12372   0.90773   0.00000  Uiso   1.00
C567   C     0.50843   0.21592   0.54660   0.00000  Uiso   1.00
C568   C     0.46638   0.12677   0.95439   0.00000  Uiso   1.00
C569   C     0.48481   0.17190   0.52419   0.00000  Uiso   1.00
C570   C     0.48644   0.17168   0.97708   0.00000  Uiso   1.00
C571   C     0.46285   0.12704   0.54853   0.00000  Uiso   1.00
C572   C     0.48484   0.06860   0.75108   0.00000  Uiso   1.00
C573   C     0.50888   0.21605   0.95258   0.00000  Uiso   1.00
C574   C     0.52333   0.26207   0.52241   0.00000  Uiso   1.00
C575   C     0.43490   0.08672   0.97870   0.00000  Uiso   1.00
C576   C     0.44913   0.08105   0.62255   0.00000  Uiso   1.00
C577   C     0.54536   0.25477   0.87847   0.00000  Uiso   1.00
C578   C     0.54963   0.25197   0.61610   0.00000  Uiso   1.00
C579   C     0.46906   0.07532   0.88383   0.00000  Uiso   1.00
C580   C     0.58062   0.00385   0.72705   0.00000  Uiso   1.00
C581   C     0.42004   0.32961   0.77479   0.00000  Uiso   1.00
C582   C     0.52016   0.26262   0.97564   0.00000  Uiso   1.00
C583   C     0.43645   0.08496   0.52551   0.00000  Uiso   1.00
C584   C     0.52301   0.31856   0.74536   0.00000  Uiso   1.00
C585   C     0.47720   0.01479   0.75544   0.00000  Uiso   1.00
C586   C     0.50066   0.16631   0.83632   0.00000  Uiso   1.00
C587   C     0.49916   0.16689   0.66366   0.00000  Uiso   1.00
C588   C     0.46850   0.12573   0.59513   0.00000  Uiso   1.00
H589   H     0.33831   0.12821   0.71633   0.00000  Uiso   1.00
H590   H     0.66169   0.20514   0.78366   0.00000  Uiso   1.00
H591   H     0.56894   0.32708   0.52536   0.00000  Uiso   1.00
H592   H     0.36742   0.03831   0.97666   0.00000  Uiso   1.00
H593   H     0.51230   0.00304   0.97204   0.00000  Uiso   1.00
H594   H     0.41747   0.01128   0.52956   0.00000  Uiso   1.00
N595   N     0.65011   0.15265   0.73783   0.00000  Uiso   1.00
N596   N     0.34989   0.18068   0.76217   0.00000  Uiso   1.00
N597   N     0.43392   0.04571   0.64458   0.00000  Uiso   1.00
N598   N     0.56777   0.28792   0.85674   0.00000  Uiso   1.00
N599   N     0.57591   0.28358   0.63474   0.00000  Uiso   1.00
N600   N     0.46295   0.03663   0.86507   0.00000  Uiso   1.00
N601   N     0.62635   0.01838   0.71257   0.00000  Uiso   1.00
N602   N     0.37473   0.31523   0.79022   0.00000  Uiso   1.00
O603   O     0.46308   0.24619   0.75298   0.00000  Uiso   1.00
O604   O     0.40102   0.05072   0.95636   0.00000  Uiso   1.00
O605   O     0.52617   0.30845   0.95228   0.00000  Uiso   1.00
O606   O     0.41271   0.04211   0.54873   0.00000  Uiso   1.00
O607   O     0.53692   0.08714   0.74701   0.00000  Uiso   1.00
O608   O     0.55946   0.23721   0.74518   0.00000  Uiso   1.00
O609   O     0.44054   0.09613   0.75481   0.00000  Uiso   1.00
O610   O     0.45181   0.17117   0.81997   0.00000  Uiso   1.00
O611   O     0.54819   0.16216   0.68002   0.00000  Uiso   1.00
O612   O     0.54819   0.16219   0.81217   0.00000  Uiso   1.00
O613   O     0.45181   0.17115   0.68782   0.00000  Uiso   1.00
O614   O     0.53961   0.30667   0.54477   0.00000  Uiso   1.00
Zn615  Zn    0.43565   0.17266   0.75521   0.00000  Uiso   1.00
Zn616  Zn    0.56435   0.16067   0.74479   0.00000  Uiso   1.00
C617   C     0.84853   0.26472   0.74915   0.00000  Uiso   1.00
C618   C     0.85063   0.21280   0.90555   0.00000  Uiso   1.00
C619   C     0.82963   0.16771   0.61588   0.00000  Uiso   1.00
C620   C     0.83461   0.16681   0.88417   0.00000  Uiso   1.00
C621   C     0.85036   0.21211   0.59251   0.00000  Uiso   1.00
C622   C     0.81045   0.12372   0.90773   0.00000  Uiso   1.00
C623   C     0.84176   0.21592   0.54660   0.00000  Uiso   1.00
C624   C     0.79971   0.12677   0.95439   0.00000  Uiso   1.00
C625   C     0.81814   0.17190   0.52419   0.00000  Uiso   1.00
C626   C     0.81977   0.17168   0.97708   0.00000  Uiso   1.00
C627   C     0.79618   0.12704   0.54853   0.00000  Uiso   1.00
C628   C     0.81817   0.06860   0.75108   0.00000  Uiso   1.00
C629   C     0.84222   0.21605   0.95258   0.00000  Uiso   1.00
C630   C     0.85666   0.26207   0.52241   0.00000  Uiso   1.00
C631   C     0.76823   0.08672   0.97870   0.00000  Uiso   1.00
C632   C     0.78246   0.08105   0.62255   0.00000  Uiso   1.00
C633   C     0.87869   0.25477   0.87847   0.00000  Uiso   1.00
C634   C     0.88296   0.25197   0.61610   0.00000  Uiso   1.00
C635   C     0.80239   0.07532   0.88383   0.00000  Uiso   1.00
C636   C     0.91396   0.00385   0.72705   0.00000  Uiso   1.00
C637   C     0.75338   0.32961   0.77479   0.00000  Uiso   1.00
C638   C     0.85349   0.26262   0.97564   0.00000  Uiso   1.00
C639   C     0.76978   0.08496   0.52551   0.00000  Uiso   1.00
C640   C     0.85634   0.31856   0.74536   0.00000  Uiso   1.00
C641   C     0.81053   0.01479   0.75544   0.00000  Uiso   1.00
C642   C     0.83400   0.16631   0.83632   0.00000  Uiso   1.00
C643   C     0.83250   0.16689   0.66366   0.00000  Uiso   1.00
C644   C     0.80184   0.12573   0.59513   0.00000  Uiso   1.00
H645   H     0.67164   0.12821   0.71633   0.00000  Uiso   1.00
H646   H     0.99503   0.20514   0.78366   0.00000  Uiso   1.00
H647   H     0.90227   0.32708   0.52536   0.00000  Uiso   1.00
H648   H     0.70076   0.03831   0.97666   0.00000  Uiso   1.00
H649   H     0.84563   0.00304   0.97204   0.00000  Uiso   1.00
H650   H     0.75080   0.01128   0.52956   0.00000  Uiso   1.00
N651   N     0.98344   0.15265   0.73783   0.00000  Uiso   1.00
N652   N     0.68322   0.18068   0.76217   0.00000  Uiso   1.00
N653   N     0.76725   0.04571   0.64458   0.00000  Uiso   1.00
N654   N     0.90110   0.28792   0.85674   0.00000  Uiso   1.00
N655   N     0.90924   0.28358   0.63474   0.00000  Uiso   1.00
N656   N     0.79628   0.03663   0.86507   0.00000  Uiso   1.00
N657   N     0.95968   0.01838   0.71257   0.00000  Uiso   1.00
N658   N     0.70806   0.31523   0.79022   0.00000  Uiso   1.00
O659   O     0.79642   0.24619   0.75298   0.00000  Uiso   1.00
O660   O     0.73435   0.05072   0.95636   0.00000  Uiso   1.00
O661   O     0.85950   0.30845   0.95228   0.00000  Uiso   1.00
O662   O     0.74605   0.04211   0.54873   0.00000  Uiso   1.00
O663   O     0.87025   0.08714   0.74701   0.00000  Uiso   1.00
O664   O     0.89280   0.23721   0.74518   0.00000  Uiso   1.00
O665   O     0.77387   0.09613   0.75481   0.00000  Uiso   1.00
O666   O     0.78514   0.17117   0.81997   0.00000  Uiso   1.00
O667   O     0.88153   0.16216   0.68002   0.00000  Uiso   1.00
O668   O     0.88152   0.16219   0.81217   0.00000  Uiso   1.00
O669   O     0.78515   0.17115   0.68782   0.00000  Uiso   1.00
O670   O     0.87294   0.30667   0.54477   0.00000  Uiso   1.00
Zn671  Zn    0.76898   0.17266   0.75521   0.00000  Uiso   1.00
Zn672  Zn    0.89769   0.16067   0.74479   0.00000  Uiso   1.00
C673   C     0.18186   0.59805   0.74915   0.00000  Uiso   1.00
C674   C     0.18397   0.54613   0.90555   0.00000  Uiso   1.00
C675   C     0.16297   0.50104   0.61588   0.00000  Uiso   1.00
C676   C     0.16794   0.50015   0.88417   0.00000  Uiso   1.00
C677   C     0.18369   0.54544   0.59251   0.00000  Uiso   1.00
C678   C     0.14378   0.45705   0.90773   0.00000  Uiso   1.00
C679   C     0.17509   0.54926   0.54660   0.00000  Uiso   1.00
C680   C     0.13304   0.46010   0.95439   0.00000  Uiso   1.00
C681   C     0.15147   0.50524   0.52419   0.00000  Uiso   1.00
C682   C     0.15310   0.50501   0.97708   0.00000  Uiso   1.00
C683   C     0.12951   0.46037   0.54853   0.00000  Uiso   1.00
C684   C     0.15150   0.40194   0.75108   0.00000  Uiso   1.00
C685   C     0.17555   0.54938   0.95258   0.00000  Uiso   1.00
C686   C     0.18999   0.59540   0.52241   0.00000  Uiso   1.00
C687   C     0.10156   0.42006   0.97870   0.00000  Uiso   1.00
C688   C     0.11579   0.41438   0.62255   0.00000  Uiso   1.00
C689   C     0.21202   0.58810   0.87847   0.00000  Uiso   1.00
C690   C     0.21630   0.58531   0.61610   0.00000  Uiso   1.00
C691   C     0.13572   0.40866   0.88383   0.00000  Uiso   1.00
C692   C     0.24729   0.33718   0.72705   0.00000  Uiso   1.00
C693   C     0.08671   0.66294   0.77479   0.00000  Uiso   1.00
C694   C     0.18683   0.59596   0.97564   0.00000  Uiso   1.00
C695   C     0.10312   0.41830   0.52551   0.00000  Uiso   1.00
C696   C     0.18967   0.65189   0.74536   0.00000  Uiso   1.00
C697   C     0.14387   0.34813   0.75544   0.00000  Uiso   1.00
C698   C     0.16733   0.49964   0.83632   0.00000  Uiso   1.00
C699   C     0.16583   0.50022   0.66366   0.00000  Uiso   1.00
C700   C     0.13517   0.45907   0.59513   0.00000  Uiso   1.00
H701   H     0.00498   0.46154   0.71633   0.00000  Uiso   1.00
H702   H     0.32836   0.53847   0.78366   0.00000  Uiso   1.00
H703   H     0.23560   0.66041   0.52536   0.00000  Uiso   1.00
H704   H     0.03409   0.37165   0.97666   0.00000  Uiso   1.00
H705   H     0.17896   0.33637   0.97204   0.00000  Uiso   1.00
H706   H     0.08413   0.34461   0.52956   0.00000  Uiso   1.00
N707   N     0.31678   0.48598   0.73783   0.00000  Uiso   1.00
N708   N     0.01656   0.51402   0.76217   0.00000  Uiso   1.00
N709   N     0.10059   0.37904   0.64458   0.00000  Uiso   1.00
N710   N     0.23443   0.62126   0.85674   0.00000  Uiso   1.00
N711   N     0.24257   0.61691   0.63474   0.00000  Uiso   1.00
N712   N     0.12961   0.36997   0.86507   0.00000  Uiso   1.00
N713   N     0.29301   0.35172   0.71257   0.00000  Uiso   1.00
N714   N     0.04140   0.64857   0.79022   0.00000  Uiso   1.00
O715   O     0.12975   0.57952   0.75298   0.00000  Uiso   1.00
O716   O     0.06769   0.38405   0.95636   0.00000  Uiso   1.00
O717   O     0.19284   0.64179   0.95228   0.00000  Uiso   1.00
O718   O     0.07938   0.37544   0.54873   0.00000  Uiso   1.00
O719   O     0.20358   0.42048   0.74701   0.00000  Uiso   1.00
O720   O     0.22613   0.57054   0.74518   0.00000  Uiso   1.00
O721   O     0.10720   0.42946   0.75481   0.00000  Uiso   1.00
O722   O     0.11847   0.50450   0.81997   0.00000  Uiso   1.00
O723   O     0.21486   0.49550   0.68002   0.00000  Uiso   1.00
O724   O     0.21485   0.49552   0.81217   0.00000  Uiso   1.00
O725   O     0.11848   0.50448   0.68782   0.00000  Uiso   1.00
O726   O     0.20628   0.64000   0.54477   0.00000  Uiso   1.00
Zn727  Zn    0.10231   0.50600   0.75521   0.00000  Uiso   1.00
Zn728  Zn    0.23102   0.49400   0.74479   0.00000  Uiso   1.00
C729   C     0.51519   0.59805   0.74915   0.00000  Uiso   1.00
C730   C     0.51730   0.54613   0.90555   0.00000  Uiso   1.00
C731   C     0.49630   0.50104   0.61588   0.00000  Uiso   1.00
C732   C     0.50127   0.50015   0.88417   0.00000  Uiso   1.00
C733   C     0.51703   0.54544   0.59251   0.00000  Uiso   1.00
C734   C     0.47712   0.45705   0.90773   0.00000  Uiso   1.00
C735   C     0.50843   0.54926   0.54660   0.00000  Uiso   1.00
C736   C     0.46638   0.46010   0.95439   0.00000  Uiso   1.00
C737   C     0.48481   0.50524   0.52419   0.00000  Uiso   1.00
C738   C     0.48644   0.50501   0.97708   0.00000  Uiso   1.00
C739   C     0.46285   0.46037   0.54853   0.00000  Uiso   1.00
C740   C     0.48484   0.40194   0.75108   0.00000  Uiso   1.00
C741   C     0.50888   0.54938   0.95258   0.00000  Uiso   1.00
C742   C     0.52333   0.59540   0.52241   0.00000  Uiso   1.00
C743   C     0.43490   0.42006   0.97870   0.00000  Uiso   1.00
C744   C     0.44913   0.41438   0.62255   0.00000  Uiso   1.00
C745   C     0.54536   0.58810   0.87847   0.00000  Uiso   1.00
C746   C     0.54963   0.58531   0.61610   0.00000  Uiso   1.00
C747   C     0.46906   0.40866   0.88383   0.00000  Uiso   1.00
C748   C     0.58062   0.33718   0.72705   0.00000  Uiso   1.00
C749   C     0.42004   0.66294   0.77479   0.00000  Uiso   1.00
C750   C     0.52016   0.59596   0.97564   0.00000  Uiso   1.00
C751   C     0.43645   0.41830   0.52551   0.00000  Uiso   1.00
C752   C     0.52301   0.65189   0.74536   0.00000  Uiso   1.00
C753   C     0.47720   0.34813   0.75544   0.00000  Uiso   1.00
C754   C     0.50066   0.49964   0.83632   0.00000  Uiso   1.00
C755   C     0.49916   0.50022   0.66366   0.00000  Uiso   1.00
C756   C     0.46850   0.45907   0.59513   0.00000  Uiso   1.00
H757   H     0.33831   0.46154   0.71633   0.00000  Uiso   1.00
H758   H     0.66169   0.53847   0.78366   0.00000  Uiso   1.00
H759   H     0.56894   0.66041   0.52536   0.00000  Uiso   1.00
H760   H     0.36742   0.37165   0.97666   0.00000  Uiso   1.00
H761   H     0.51230   0.33637   0.97204   0.00000  Uiso   1.00
H762   H     0.41747   0.34461   0.52956   0.00000  Uiso   1.00
N763   N     0.65011   0.48598   0.73783   0.00000  Uiso   1.00
N764   N     0.34989   0.51402   0.76217   0.00000  Uiso   1.00
N765   N     0.43392   0.37904   0.64458   0.00000  Uiso   1.00
N766   N     0.56777   0.62126   0.85674   0.00000  Uiso   1.00
N767   N     0.57591   0.61691   0.63474   0.00000  Uiso   1.00
N768   N     0.46295   0.36997   0.86507   0.00000  Uiso   1.00
N769   N     0.62635   0.35172   0.71257   0.00000  Uiso   1.00
N770   N     0.37473   0.64857   0.79022   0.00000  Uiso   1.00
O771   O     0.46308   0.57952   0.75298   0.00000  Uiso   1.00
O772   O     0.40102   0.38405   0.95636   0.00000  Uiso   1.00
O773   O     0.52617   0.64179   0.95228   0.00000  Uiso   1.00
O774   O     0.41271   0.37544   0.54873   0.00000  Uiso   1.00
O775   O     0.53692   0.42048   0.74701   0.00000  Uiso   1.00
O776   O     0.55946   0.57054   0.74518   0.00000  Uiso   1.00
O777   O     0.44054   0.42946   0.75481   0.00000  Uiso   1.00
O778   O     0.45181   0.50450   0.81997   0.00000  Uiso   1.00
O779   O     0.54819   0.49550   0.68002   0.00000  Uiso   1.00
O780   O     0.54819   0.49552   0.81217   0.00000  Uiso   1.00
O781   O     0.45181   0.50448   0.68782   0.00000  Uiso   1.00
O782   O     0.53961   0.64000   0.54477   0.00000  Uiso   1.00
Zn783  Zn    0.43565   0.50600   0.75521   0.00000  Uiso   1.00
Zn784  Zn    0.56435   0.49400   0.74479   0.00000  Uiso   1.00
C785   C     0.84853   0.59805   0.74915   0.00000  Uiso   1.00
C786   C     0.85063   0.54613   0.90555   0.00000  Uiso   1.00
C787   C     0.82963   0.50104   0.61588   0.00000  Uiso   1.00
C788   C     0.83461   0.50015   0.88417   0.00000  Uiso   1.00
C789   C     0.85036   0.54544   0.59251   0.00000  Uiso   1.00
C790   C     0.81045   0.45705   0.90773   0.00000  Uiso   1.00
C791   C     0.84176   0.54926   0.54660   0.00000  Uiso   1.00
C792   C     0.79971   0.46010   0.95439   0.00000  Uiso   1.00
C793   C     0.81814   0.50524   0.52419   0.00000  Uiso   1.00
C794   C     0.81977   0.50501   0.97708   0.00000  Uiso   1.00
C795   C     0.79618   0.46037   0.54853   0.00000  Uiso   1.00
C796   C     0.81817   0.40194   0.75108   0.00000  Uiso   1.00
C797   C     0.84222   0.54938   0.95258   0.00000  Uiso   1.00
C798   C     0.85666   0.59540   0.52241   0.00000  Uiso   1.00
C799   C     0.76823   0.42006   0.97870   0.00000  Uiso   1.00
C800   C     0.78246   0.41438   0.62255   0.00000  Uiso   1.00
C801   C     0.87869   0.58810   0.87847   0.00000  Uiso   1.00
C802   C     0.88296   0.58531   0.61610   0.00000  Uiso   1.00
C803   C     0.80239   0.40866   0.88383   0.00000  Uiso   1.00
C804   C     0.91396   0.33718   0.72705   0.00000  Uiso   1.00
C805   C     0.75338   0.66294   0.77479   0.00000  Uiso   1.00
C806   C     0.85349   0.59596   0.97564   0.00000  Uiso   1.00
C807   C     0.76978   0.41830   0.52551   0.00000  Uiso   1.00
C808   C     0.85634   0.65189   0.74536   0.00000  Uiso   1.00
C809   C     0.81053   0.34813   0.75544   0.00000  Uiso   1.00
C810   C     0.83400   0.49964   0.83632   0.00000  Uiso   1.00
C811   C     0.83250   0.50022   0.66366   0.00000  Uiso   1.00
C812   C     0.80184   0.45907   0.59513   0.00000  Uiso   1.00
H813   H     0.67164   0.46154   0.71633   0.00000  Uiso   1.00
H814   H     0.99503   0.53847   0.78366   0.00000  Uiso   1.00
H815   H     0.90227   0.66041   0.52536   0.00000  Uiso   1.00
H816   H     0.70076   0.37165   0.97666   0.00000  Uiso   1.00
H817   H     0.84563   0.33637   0.97204   0.00000  Uiso   1.00
H818   H     0.75080   0.34461   0.52956   0.00000  Uiso   1.00
N819   N     0.98344   0.48598   0.73783   0.00000  Uiso   1.00
N820   N     0.68322   0.51402   0.76217   0.00000  Uiso   1.00
N821   N     0.76725   0.37904   0.64458   0.00000  Uiso   1.00
N822   N     0.90110   0.62126   0.85674   0.00000  Uiso   1.00
N823   N     0.90924   0.61691   0.63474   0.00000  Uiso   1.00
N824   N     0.79628   0.36997   0.86507   0.00000  Uiso   1.00
N825   N     0.95968   0.35172   0.71257   0.00000  Uiso   1.00
N826   N     0.70806   0.64857   0.79022   0.00000  Uiso   1.00
O827   O     0.79642   0.57952   0.75298   0.00000  Uiso   1.00
O828   O     0.73435   0.38405   0.95636   0.00000  Uiso   1.00
O829   O     0.85950   0.64179   0.95228   0.00000  Uiso   1.00
O830   O     0.74605   0.37544   0.54873   0.00000  Uiso   1.00
O831   O     0.87025   0.42048   0.74701   0.00000  Uiso   1.00
O832   O     0.89280   0.57054   0.74518   0.00000  Uiso   1.00
O833   O     0.77387   0.42946   0.75481   0.00000  Uiso   1.00
O834   O     0.78514   0.50450   0.81997   0.00000  Uiso   1.00
O835   O     0.88153   0.49550   0.68002   0.00000  Uiso   1.00
O836   O     0.88152   0.49552   0.81217   0.00000  Uiso   1.00
O837   O     0.78515   0.50448   0.68782   0.00000  Uiso   1.00
O838   O     0.87294   0.64000   0.54477   0.00000  Uiso   1.00
Zn839  Zn    0.76898   0.50600   0.75521   0.00000  Uiso   1.00
Zn840  Zn    0.89769   0.49400   0.74479   0.00000  Uiso   1.00
C841   C     0.18186   0.93139   0.74915   0.00000  Uiso   1.00
C842   C     0.18397   0.87946   0.90555   0.00000  Uiso   1.00
C843   C     0.16297   0.83438   0.61588   0.00000  Uiso   1.00
C844   C     0.16794   0.83348   0.88417   0.00000  Uiso   1.00
C845   C     0.18369   0.87878   0.59251   0.00000  Uiso   1.00
C846   C     0.14378   0.79039   0.90773   0.00000  Uiso   1.00
C847   C     0.17509   0.88259   0.54660   0.00000  Uiso   1.00
C848   C     0.13304   0.79343   0.95439   0.00000  Uiso   1.00
C849   C     0.15147   0.83857   0.52419   0.00000  Uiso   1.00
C850   C     0.15310   0.83835   0.97708   0.00000  Uiso   1.00
C851   C     0.12951   0.79370   0.54853   0.00000  Uiso   1.00
C852   C     0.15150   0.73527   0.75108   0.00000  Uiso   1.00
C853   C     0.17555   0.88272   0.95258   0.00000  Uiso   1.00
C854   C     0.18999   0.92873   0.52241   0.00000  Uiso   1.00
C855   C     0.10156   0.75339   0.97870   0.00000  Uiso   1.00
C856   C     0.11579   0.74772   0.62255   0.00000  Uiso   1.00
C857   C     0.21202   0.92144   0.87847   0.00000  Uiso   1.00
C858   C     0.21630   0.91864   0.61610   0.00000  Uiso   1.00
C859   C     0.13572   0.74199   0.88383   0.00000  Uiso   1.00
C860   C     0.24729   0.67052   0.72705   0.00000  Uiso   1.00
C861   C     0.08671   0.99628   0.77479   0.00000  Uiso   1.00
C862   C     0.18683   0.92929   0.97564   0.00000  Uiso   1.00
C863   C     0.10312   0.75163   0.52551   0.00000  Uiso   1.00
C864   C     0.18967   0.98523   0.74536   0.00000  Uiso   1.00
C865   C     0.14387   0.68146   0.75544   0.00000  Uiso   1.00
C866   C     0.16733   0.83298   0.83632   0.00000  Uiso   1.00
C867   C     0.16583   0.83355   0.66366   0.00000  Uiso   1.00
C868   C     0.13517   0.79240   0.59513   0.00000  Uiso   1.00
H869   H     0.00498   0.79488   0.71633   0.00000  Uiso   1.00
H870   H     0.32836   0.87181   0.78366   0.00000  Uiso   1.00
H871   H     0.23560   0.99375   0.52536   0.00000  Uiso   1.00
H872   H     0.03409   0.70498   0.97666   0.00000  Uiso   1.00
H873   H     0.17896   0.66971   0.97204   0.00000  Uiso   1.00
H874   H     0.08413   0.67794   0.52956   0.00000  Uiso   1.00
N875   N     0.31678   0.81932   0.73783   0.00000  Uiso   1.00
N876   N     0.01656   0.84735   0.76217   0.00000  Uiso   1.00
N877   N     0.10059   0.71237   0.64458   0.00000  Uiso   1.00
N878   N     0.23443   0.95459   0.85674   0.00000  Uiso   1.00
N879   N     0.24257   0.95025   0.63474   0.00000  Uiso   1.00
N880   N     0.12961   0.70330   0.86507   0.00000  Uiso   1.00
N881   N     0.29301   0.68505   0.71257   0.00000  Uiso   1.00
N882   N     0.04140   0.98190   0.79022   0.00000  Uiso   1.00
O883   O     0.12975   0.91286   0.75298   0.00000  Uiso   1.00
O884   O     0.06769   0.71738   0.95636   0.00000  Uiso   1.00
O885   O     0.19284   0.97512   0.95228   0.00000  Uiso   1.00
O886   O     0.07938   0.70878   0.54873   0.00000  Uiso   1.00
O887   O     0.20358   0.75381   0.74701   0.00000  Uiso   1.00
O888   O     0.22613   0.90387   0.74518   0.00000  Uiso   1.00
O889   O     0.10720   0.76279   0.75481   0.00000  Uiso   1.00
O890   O     0.11847   0.83784   0.81997   0.00000  Uiso   1.00
O891   O     0.21486   0.82883   0.68002   0.00000  Uiso   1.00
O892   O     0.21485   0.82885   0.81217   0.00000  Uiso   1.00
O893   O     0.11848   0.83781   0.68782   0.00000  Uiso   1.00
O894   O     0.20628   0.97334   0.54477   0.00000  Uiso   1.00
Zn895  Zn    0.10231   0.83933   0.75521   0.00000  Uiso   1.00
Zn896  Zn    0.23102   0.82734   0.74479   0.00000  Uiso   1.00
C897   C     0.51519   0.93139   0.74915   0.00000  Uiso   1.00
C898   C     0.51730   0.87946   0.90555   0.00000  Uiso   1.00
C899   C     0.49630   0.83438   0.61588   0.00000  Uiso   1.00
C900   C     0.50127   0.83348   0.88417   0.00000  Uiso   1.00
C901   C     0.51703   0.87878   0.59251   0.00000  Uiso   1.00
C902   C     0.47712   0.79039   0.90773   0.00000  Uiso   1.00
C903   C     0.50843   0.88259   0.54660   0.00000  Uiso   1.00
C904   C     0.46638   0.79343   0.95439   0.00000  Uiso   1.00
C905   C     0.48481   0.83857   0.52419   0.00000  Uiso   1.00
C906   C     0.48644   0.83835   0.97708   0.00000  Uiso   1.00
C907   C     0.46285   0.79370   0.54853   0.00000  Uiso   1.00
C908   C     0.48484   0.73527   0.75108   0.00000  Uiso   1.00
C909   C     0.50888   0.88272   0.95258   0.00000  Uiso   1.00
C910   C     0.52333   0.92873   0.52241   0.00000  Uiso   1.00
C911   C     0.43490   0.75339   0.97870   0.00000  Uiso   1.00
C912   C     0.44913   0.74772   0.62255   0.00000  Uiso   1.00
C913   C     0.54536   0.92144   0.87847   0.00000  Uiso   1.00
C914   C     0.54963   0.91864   0.61610   0.00000  Uiso   1.00
C915   C     0.46906   0.74199   0.88383   0.00000  Uiso   1.00
C916   C     0.58062   0.67052   0.72705   0.00000  Uiso   1.00
C917   C     0.42004   0.99628   0.77479   0.00000  Uiso   1.00
C918   C     0.52016   0.92929   0.97564   0.00000  Uiso   1.00
C919   C     0.43645   0.75163   0.52551   0.00000  Uiso   1.00
C920   C     0.52301   0.98523   0.74536   0.00000  Uiso   1.00
C921   C     0.47720   0.68146   0.75544   0.00000  Uiso   1.00
C922   C     0.50066   0.83298   0.83632   0.00000  Uiso   1.00
C923   C     0.49916   0.83355   0.66366   0.00000  Uiso   1.00
C924   C     0.46850   0.79240   0.59513   0.00000  Uiso   1.00
H925   H     0.33831   0.79488   0.71633   0.00000  Uiso   1.00
H926   H     0.66169   0.87181   0.78366   0.00000  Uiso   1.00
H927   H     0.56894   0.99375   0.52536   0.00000  Uiso   1.00
H928   H     0.36742   0.70498   0.97666   0.00000  Uiso   1.00
H929   H     0.51230   0.66971   0.97204   0.00000  Uiso   1.00
H930   H     0.41747   0.67794   0.52956   0.00000  Uiso   1.00
N931   N     0.65011   0.81932   0.73783   0.00000  Uiso   1.00
N932   N     0.34989   0.84735   0.76217   0.00000  Uiso   1.00
N933   N     0.43392   0.71237   0.64458   0.00000  Uiso   1.00
N934   N     0.56777   0.95459   0.85674   0.00000  Uiso   1.00
N935   N     0.57591   0.95025   0.63474   0.00000  Uiso   1.00
N936   N     0.46295   0.70330   0.86507   0.00000  Uiso   1.00
N937   N     0.62635   0.68505   0.71257   0.00000  Uiso   1.00
N938   N     0.37473   0.98190   0.79022   0.00000  Uiso   1.00
O939   O     0.46308   0.91286   0.75298   0.00000  Uiso   1.00
O940   O     0.40102   0.71738   0.95636   0.00000  Uiso   1.00
O941   O     0.52617   0.97512   0.95228   0.00000  Uiso   1.00
O942   O     0.41271   0.70878   0.54873   0.00000  Uiso   1.00
O943   O     0.53692   0.75381   0.74701   0.00000  Uiso   1.00
O944   O     0.55946   0.90387   0.74518   0.00000  Uiso   1.00
O945   O     0.44054   0.76279   0.75481   0.00000  Uiso   1.00
O946   O     0.45181   0.83784   0.81997   0.00000  Uiso   1.00
O947   O     0.54819   0.82883   0.68002   0.00000  Uiso   1.00
O948   O     0.54819   0.82885   0.81217   0.00000  Uiso   1.00
O949   O     0.45181   0.83781   0.68782   0.00000  Uiso   1.00
O950   O     0.53961   0.97334   0.54477   0.00000  Uiso   1.00
Zn951  Zn    0.43565   0.83933   0.75521   0.00000  Uiso   1.00
Zn952  Zn    0.56435   0.82734   0.74479   0.00000  Uiso   1.00
C953   C     0.84853   0.93139   0.74915   0.00000  Uiso   1.00
C954   C     0.85063   0.87946   0.90555   0.00000  Uiso   1.00
C955   C     0.82963   0.83438   0.61588   0.00000  Uiso   1.00
C956   C     0.83461   0.83348   0.88417   0.00000  Uiso   1.00
C957   C     0.85036   0.87878   0.59251   0.00000  Uiso   1.00
C958   C     0.81045   0.79039   0.90773   0.00000  Uiso   1.00
C959   C     0.84176   0.88259   0.54660   0.00000  Uiso   1.00
C960   C     0.79971   0.79343   0.95439   0.00000  Uiso   1.00
C961   C     0.81814   0.83857   0.52419   0.00000  Uiso   1.00
C962   C     0.81977   0.83835   0.97708   0.00000  Uiso   1.00
C963   C     0.79618   0.79370   0.54853   0.00000  Uiso   1.00
C964   C     0.81817   0.73527   0.75108   0.00000  Uiso   1.00
C965   C     0.84222   0.88272   0.95258   0.00000  Uiso   1.00
C966   C     0.85666   0.92873   0.52241   0.00000  Uiso   1.00
C967   C     0.76823   0.75339   0.97870   0.00000  Uiso   1.00
C968   C     0.78246   0.74772   0.62255   0.00000  Uiso   1.00
C969   C     0.87869   0.92144   0.87847   0.00000  Uiso   1.00
C970   C     0.88296   0.91864   0.61610   0.00000  Uiso   1.00
C971   C     0.80239   0.74199   0.88383   0.00000  Uiso   1.00
C972   C     0.91396   0.67052   0.72705   0.00000  Uiso   1.00
C973   C     0.75338   0.99628   0.77479   0.00000  Uiso   1.00
C974   C     0.85349   0.92929   0.97564   0.00000  Uiso   1.00
C975   C     0.76978   0.75163   0.52551   0.00000  Uiso   1.00
C976   C     0.85634   0.98523   0.74536   0.00000  Uiso   1.00
C977   C     0.81053   0.68146   0.75544   0.00000  Uiso   1.00
C978   C     0.83400   0.83298   0.83632   0.00000  Uiso   1.00
C979   C     0.83250   0.83355   0.66366   0.00000  Uiso   1.00
C980   C     0.80184   0.79240   0.59513   0.00000  Uiso   1.00
H981   H     0.67164   0.79488   0.71633   0.00000  Uiso   1.00
H982   H     0.99503   0.87181   0.78366   0.00000  Uiso   1.00
H983   H     0.90227   0.99375   0.52536   0.00000  Uiso   1.00
H984   H     0.70076   0.70498   0.97666   0.00000  Uiso   1.00
H985   H     0.84563   0.66971   0.97204   0.00000  Uiso   1.00
H986   H     0.75080   0.67794   0.52956   0.00000  Uiso   1.00
N987   N     0.98344   0.81932   0.73783   0.00000  Uiso   1.00
N988   N     0.68322   0.84735   0.76217   0.00000  Uiso   1.00
N989   N     0.76725   0.71237   0.64458   0.00000  Uiso   1.00
N990   N     0.90110   0.95459   0.85674   0.00000  Uiso   1.00
N991   N     0.90924   0.95025   0.63474   0.00000  Uiso   1.00
N992   N     0.79628   0.70330   0.86507   0.00000  Uiso   1.00
N993   N     0.95968   0.68505   0.71257   0.00000  Uiso   1.00
N994   N     0.70806   0.98190   0.79022   0.00000  Uiso   1.00
O995   O     0.79642   0.91286   0.75298   0.00000  Uiso   1.00
O996   O     0.73435   0.71738   0.95636   0.00000  Uiso   1.00
O997   O     0.85950   0.97512   0.95228   0.00000  Uiso   1.00
O998   O     0.74605   0.70878   0.54873   0.00000  Uiso   1.00
O999   O     0.87025   0.75381   0.74701   0.00000  Uiso   1.00
O1000  O     0.89280   0.90387   0.74518   0.00000  Uiso   1.00
O1001  O     0.77387   0.76279   0.75481   0.00000  Uiso   1.00
O1002  O     0.78514   0.83784   0.81997   0.00000  Uiso   1.00
O1003  O     0.88153   0.82883   0.68002   0.00000  Uiso   1.00
O1004  O     0.88152   0.82885   0.81217   0.00000  Uiso   1.00
O1005  O     0.78515   0.83781   0.68782   0.00000  Uiso   1.00
O1006  O     0.87294   0.97334   0.54477   0.00000  Uiso   1.00
Zn1007 Zn    0.76898   0.83933   0.75521   0.00000  Uiso   1.00
Zn1008 Zn    0.89769   0.82734   0.74479   0.00000  Uiso   1.00
loop_
_geom_bond_atom_site_label_1
_geom_bond_atom_site_label_2
_geom_bond_distance
_geom_bond_site_symmetry_2
_ccdc_geom_bond_type
C1     O48     1.290   .     A
C1     C24     1.409   .     S
C1     O43     1.270   .     A
C2     C4      1.396   .     A
C2     C17     1.456   .     S
C2     C13     1.407   .     A
C3     C27     1.434   .     S
C3     C28     1.398   .     A
C3     C5      1.397   .     A
C4     C26     1.431   .     S
C4     C6      1.395   .     A
C5     C7      1.405   .     A
C5     C18     1.454   .     S
C6     C19     1.454   .     S
C6     C8      1.401   .     A
C7     C9      1.423   .     A
C7     C14     1.419   .     A
C8     C15     1.410   .     A
C8     C10     1.418   .     A
C9     C11     1.428   .     A
C9     C514    1.405   1_554 S
C10    C13     1.423   .     A
C10    C513    1.405   .     S
C11    C28     1.409   .     A
C11    C23     1.419   .     A
C12    C25     1.409   .     S
C12    O47     1.270   .     A
C12    O49     1.291   .     A
C13    C22     1.411   .     A
C14    O54     1.382   .     S
C14    C526    1.405   1_554 S
C15    O44     1.384   .     S
C15    C527    1.403   .     S
C16    C28     1.458   .     S
C16    N37     1.158   .     T
C17    N38     1.158   .     T
C18    N39     1.156   .     T
C19    N40     1.156   .     T
C20    N41     1.158   .     T
C20    C360    1.462   1_545 S
C21    N42     1.158   .     T
C21    C193    1.462   .     S
C22    O45     1.383   .     S
C22    C518    1.405   .     S
C23    O46     1.382   .     S
C23    C519    1.403   1_554 S
C24    C188    1.462   .     S
C24    C193    1.370   .     S
C25    C360    1.370   1_545 S
C25    C357    1.462   1_545 S
C26    O52     1.284   .     A
C26    O50     1.281   .     A
C27    O53     1.282   .     A
C27    O51     1.284   .     A
H29    N147    1.029   1_455 S
H30    N92     1.029   .     S
H31    O54     0.991   .     S
H32    O44     0.991   .     S
H33    O381    0.990   1_545 S
H34    O46     0.992   .     S
N35    Zn56    2.011   .     S
N35    H85     1.029   .     S
N35    N92     1.285   .     S
N36    Zn55    2.011   .     S
N36    N147    1.285   1_455 S
N36    H142    1.029   1_455 S
O43    Zn55    1.981   .     S
O45    H201    0.990   .     S
O47    Zn56    1.981   .     S
O48    Zn56    2.008   .     S
O49    Zn55    2.008   .     S
O50    Zn55    1.998   .     S
O51    Zn56    1.998   .     S
O52    Zn56    2.022   .     S
O53    Zn55    2.022   .     S
C57    O104    1.290   .     A
C57    C80     1.409   .     S
C57    O99     1.270   .     A
C58    C60     1.396   .     A
C58    C73     1.456   .     S
C58    C69     1.407   .     A
C59    C83     1.434   .     S
C59    C84     1.398   .     A
C59    C61     1.397   .     A
C60    C82     1.431   .     S
C60    C62     1.395   .     A
C61    C63     1.405   .     A
C61    C74     1.454   .     S
C62    C75     1.454   .     S
C62    C64     1.401   .     A
C63    C65     1.423   .     A
C63    C70     1.419   .     A
C64    C71     1.410   .     A
C64    C66     1.418   .     A
C65    C67     1.428   .     A
C65    C570    1.405   1_554 S
C66    C69     1.423   .     A
C66    C569    1.405   .     S
C67    C84     1.409   .     A
C67    C79     1.419   .     A
C68    C81     1.409   .     S
C68    O103    1.270   .     A
C68    O105    1.291   .     A
C69    C78     1.411   .     A
C70    O110    1.382   .     S
C70    C582    1.405   1_554 S
C71    O100    1.384   .     S
C71    C583    1.403   .     S
C72    C84     1.458   .     S
C72    N93     1.158   .     T
C73    N94     1.158   .     T
C74    N95     1.156   .     T
C75    N96     1.156   .     T
C76    N97     1.158   .     T
C76    C416    1.462   1_545 S
C77    N98     1.158   .     T
C77    C249    1.462   .     S
C78    O101    1.383   .     S
C78    C574    1.405   .     S
C79    O102    1.382   .     S
C79    C575    1.403   1_554 S
C80    C244    1.462   .     S
C80    C249    1.370   .     S
C81    C416    1.370   1_545 S
C81    C413    1.462   1_545 S
C82    O108    1.284   .     A
C82    O106    1.281   .     A
C83    O109    1.282   .     A
C83    O107    1.284   .     A
H86    N148    1.029   .     S
H87    O110    0.991   .     S
H88    O100    0.991   .     S
H89    O437    0.990   1_545 S
H90    O102    0.992   .     S
N91    Zn112   2.011   .     S
N91    H141    1.029   .     S
N91    N148    1.285   .     S
N92    Zn111   2.011   .     S
O99    Zn111   1.981   .     S
O101   H257    0.990   .     S
O103   Zn112   1.981   .     S
O104   Zn112   2.008   .     S
O105   Zn111   2.008   .     S
O106   Zn111   1.998   .     S
O107   Zn112   1.998   .     S
O108   Zn112   2.022   .     S
O109   Zn111   2.022   .     S
C113   O160    1.290   .     A
C113   C136    1.409   .     S
C113   O155    1.270   .     A
C114   C116    1.396   .     A
C114   C129    1.456   .     S
C114   C125    1.407   .     A
C115   C139    1.434   .     S
C115   C140    1.398   .     A
C115   C117    1.397   .     A
C116   C138    1.431   .     S
C116   C118    1.395   .     A
C117   C119    1.405   .     A
C117   C130    1.454   .     S
C118   C131    1.454   .     S
C118   C120    1.401   .     A
C119   C121    1.423   .     A
C119   C126    1.419   .     A
C120   C127    1.410   .     A
C120   C122    1.418   .     A
C121   C123    1.428   .     A
C121   C626    1.405   1_554 S
C122   C125    1.423   .     A
C122   C625    1.405   .     S
C123   C140    1.409   .     A
C123   C135    1.419   .     A
C124   C137    1.409   .     S
C124   O159    1.270   .     A
C124   O161    1.291   .     A
C125   C134    1.411   .     A
C126   O166    1.382   .     S
C126   C638    1.405   1_554 S
C127   O156    1.384   .     S
C127   C639    1.403   .     S
C128   C140    1.458   .     S
C128   N149    1.158   .     T
C129   N150    1.158   .     T
C130   N151    1.156   .     T
C131   N152    1.156   .     T
C132   N153    1.158   .     T
C132   C472    1.462   1_545 S
C133   N154    1.158   .     T
C133   C305    1.462   .     S
C134   O157    1.383   .     S
C134   C630    1.405   .     S
C135   O158    1.382   .     S
C135   C631    1.403   1_554 S
C136   C300    1.462   .     S
C136   C305    1.370   .     S
C137   C472    1.370   1_545 S
C137   C469    1.462   1_545 S
C138   O164    1.284   .     A
C138   O162    1.281   .     A
C139   O165    1.282   .     A
C139   O163    1.284   .     A
H142   N36     1.029   1_655 S
H143   O166    0.991   .     S
H144   O156    0.991   .     S
H145   O493    0.990   1_545 S
H146   O158    0.992   .     S
N147   Zn168   2.011   .     S
N147   H29     1.029   1_655 S
N147   N36     1.285   1_655 S
N148   Zn167   2.011   .     S
O155   Zn167   1.981   .     S
O157   H313    0.990   .     S
O159   Zn168   1.981   .     S
O160   Zn168   2.008   .     S
O161   Zn167   2.008   .     S
O162   Zn167   1.998   .     S
O163   Zn168   1.998   .     S
O164   Zn168   2.022   .     S
O165   Zn167   2.022   .     S
C169   O216    1.290   .     A
C169   C192    1.409   .     S
C169   O211    1.270   .     A
C170   C172    1.396   .     A
C170   C185    1.456   .     S
C170   C181    1.407   .     A
C171   C195    1.434   .     S
C171   C196    1.398   .     A
C171   C173    1.397   .     A
C172   C194    1.431   .     S
C172   C174    1.395   .     A
C173   C175    1.405   .     A
C173   C186    1.454   .     S
C174   C187    1.454   .     S
C174   C176    1.401   .     A
C175   C177    1.423   .     A
C175   C182    1.419   .     A
C176   C183    1.410   .     A
C176   C178    1.418   .     A
C177   C179    1.428   .     A
C177   C682    1.405   1_554 S
C178   C181    1.423   .     A
C178   C681    1.405   .     S
C179   C196    1.409   .     A
C179   C191    1.419   .     A
C180   C193    1.409   .     S
C180   O215    1.270   .     A
C180   O217    1.291   .     A
C181   C190    1.411   .     A
C182   O222    1.382   .     S
C182   C694    1.405   1_554 S
C183   O212    1.384   .     S
C183   C695    1.403   .     S
C184   C196    1.458   .     S
C184   N205    1.158   .     T
C185   N206    1.158   .     T
C186   N207    1.156   .     T
C187   N208    1.156   .     T
C188   N209    1.158   .     T
C189   N210    1.158   .     T
C189   C361    1.462   .     S
C190   O213    1.383   .     S
C190   C686    1.405   .     S
C191   O214    1.382   .     S
C191   C687    1.403   1_554 S
C192   C356    1.462   .     S
C192   C361    1.370   .     S
C194   O220    1.284   .     A
C194   O218    1.281   .     A
C195   O221    1.282   .     A
C195   O219    1.284   .     A
H197   N315    1.029   1_455 S
H198   N260    1.029   .     S
H199   O222    0.991   .     S
H200   O212    0.991   .     S
H202   O214    0.992   .     S
N203   Zn224   2.011   .     S
N203   H253    1.029   .     S
N203   N260    1.285   .     S
N204   Zn223   2.011   .     S
N204   N315    1.285   1_455 S
N204   H310    1.029   1_455 S
O211   Zn223   1.981   .     S
O213   H369    0.990   .     S
O215   Zn224   1.981   .     S
O216   Zn224   2.008   .     S
O217   Zn223   2.008   .     S
O218   Zn223   1.998   .     S
O219   Zn224   1.998   .     S
O220   Zn224   2.022   .     S
O221   Zn223   2.022   .     S
C225   O272    1.290   .     A
C225   C248    1.409   .     S
C225   O267    1.270   .     A
C226   C228    1.396   .     A
C226   C241    1.456   .     S
C226   C237    1.407   .     A
C227   C251    1.434   .     S
C227   C252    1.398   .     A
C227   C229    1.397   .     A
C228   C250    1.431   .     S
C228   C230    1.395   .     A
C229   C231    1.405   .     A
C229   C242    1.454   .     S
C230   C243    1.454   .     S
C230   C232    1.401   .     A
C231   C233    1.423   .     A
C231   C238    1.419   .     A
C232   C239    1.410   .     A
C232   C234    1.418   .     A
C233   C235    1.428   .     A
C233   C738    1.405   1_554 S
C234   C237    1.423   .     A
C234   C737    1.405   .     S
C235   C252    1.409   .     A
C235   C247    1.419   .     A
C236   C249    1.409   .     S
C236   O271    1.270   .     A
C236   O273    1.291   .     A
C237   C246    1.411   .     A
C238   O278    1.382   .     S
C238   C750    1.405   1_554 S
C239   O268    1.384   .     S
C239   C751    1.403   .     S
C240   C252    1.458   .     S
C240   N261    1.158   .     T
C241   N262    1.158   .     T
C242   N263    1.156   .     T
C243   N264    1.156   .     T
C244   N265    1.158   .     T
C245   N266    1.158   .     T
C245   C417    1.462   .     S
C246   O269    1.383   .     S
C246   C742    1.405   .     S
C247   O270    1.382   .     S
C247   C743    1.403   1_554 S
C248   C412    1.462   .     S
C248   C417    1.370   .     S
C250   O276    1.284   .     A
C250   O274    1.281   .     A
C251   O277    1.282   .     A
C251   O275    1.284   .     A
H254   N316    1.029   .     S
H255   O278    0.991   .     S
H256   O268    0.991   .     S
H258   O270    0.992   .     S
N259   Zn280   2.011   .     S
N259   H309    1.029   .     S
N259   N316    1.285   .     S
N260   Zn279   2.011   .     S
O267   Zn279   1.981   .     S
O269   H425    0.990   .     S
O271   Zn280   1.981   .     S
O272   Zn280   2.008   .     S
O273   Zn279   2.008   .     S
O274   Zn279   1.998   .     S
O275   Zn280   1.998   .     S
O276   Zn280   2.022   .     S
O277   Zn279   2.022   .     S
C281   O328    1.290   .     A
C281   C304    1.409   .     S
C281   O323    1.270   .     A
C282   C284    1.396   .     A
C282   C297    1.456   .     S
C282   C293    1.407   .     A
C283   C307    1.434   .     S
C283   C308    1.398   .     A
C283   C285    1.397   .     A
C284   C306    1.431   .     S
C284   C286    1.395   .     A
C285   C287    1.405   .     A
C285   C298    1.454   .     S
C286   C299    1.454   .     S
C286   C288    1.401   .     A
C287   C289    1.423   .     A
C287   C294    1.419   .     A
C288   C295    1.410   .     A
C288   C290    1.418   .     A
C289   C291    1.428   .     A
C289   C794    1.405   1_554 S
C290   C293    1.423   .     A
C290   C793    1.405   .     S
C291   C308    1.409   .     A
C291   C303    1.419   .     A
C292   C305    1.409   .     S
C292   O327    1.270   .     A
C292   O329    1.291   .     A
C293   C302    1.411   .     A
C294   O334    1.382   .     S
C294   C806    1.405   1_554 S
C295   O324    1.384   .     S
C295   C807    1.403   .     S
C296   C308    1.458   .     S
C296   N317    1.158   .     T
C297   N318    1.158   .     T
C298   N319    1.156   .     T
C299   N320    1.156   .     T
C300   N321    1.158   .     T
C301   N322    1.158   .     T
C301   C473    1.462   .     S
C302   O325    1.383   .     S
C302   C798    1.405   .     S
C303   O326    1.382   .     S
C303   C799    1.403   1_554 S
C304   C468    1.462   .     S
C304   C473    1.370   .     S
C306   O332    1.284   .     A
C306   O330    1.281   .     A
C307   O333    1.282   .     A
C307   O331    1.284   .     A
H310   N204    1.029   1_655 S
H311   O334    0.991   .     S
H312   O324    0.991   .     S
H314   O326    0.992   .     S
N315   Zn336   2.011   .     S
N315   H197    1.029   1_655 S
N315   N204    1.285   1_655 S
N316   Zn335   2.011   .     S
O323   Zn335   1.981   .     S
O325   H481    0.990   .     S
O327   Zn336   1.981   .     S
O328   Zn336   2.008   .     S
O329   Zn335   2.008   .     S
O330   Zn335   1.998   .     S
O331   Zn336   1.998   .     S
O332   Zn336   2.022   .     S
O333   Zn335   2.022   .     S
C337   O384    1.290   .     A
C337   C360    1.409   .     S
C337   O379    1.270   .     A
C338   C340    1.396   .     A
C338   C353    1.456   .     S
C338   C349    1.407   .     A
C339   C363    1.434   .     S
C339   C364    1.398   .     A
C339   C341    1.397   .     A
C340   C362    1.431   .     S
C340   C342    1.395   .     A
C341   C343    1.405   .     A
C341   C354    1.454   .     S
C342   C355    1.454   .     S
C342   C344    1.401   .     A
C343   C345    1.423   .     A
C343   C350    1.419   .     A
C344   C351    1.410   .     A
C344   C346    1.418   .     A
C345   C347    1.428   .     A
C345   C850    1.405   1_554 S
C346   C349    1.423   .     A
C346   C849    1.405   .     S
C347   C364    1.409   .     A
C347   C359    1.419   .     A
C348   C361    1.409   .     S
C348   O383    1.270   .     A
C348   O385    1.291   .     A
C349   C358    1.411   .     A
C350   O390    1.382   .     S
C350   C862    1.405   1_554 S
C351   O380    1.384   .     S
C351   C863    1.403   .     S
C352   C364    1.458   .     S
C352   N373    1.158   .     T
C353   N374    1.158   .     T
C354   N375    1.156   .     T
C355   N376    1.156   .     T
C356   N377    1.158   .     T
C357   N378    1.158   .     T
C357   C25     1.462   1_565 S
C358   O381    1.383   .     S
C358   C854    1.405   .     S
C359   O382    1.382   .     S
C359   C855    1.403   1_554 S
C360   C20     1.462   1_565 S
C360   C25     1.370   1_565 S
C362   O388    1.284   .     A
C362   O386    1.281   .     A
C363   O389    1.282   .     A
C363   O387    1.284   .     A
H365   N483    1.029   1_455 S
H366   N428    1.029   .     S
H367   O390    0.991   .     S
H368   O380    0.991   .     S
H370   O382    0.992   .     S
N371   Zn392   2.011   .     S
N371   H421    1.029   .     S
N371   N428    1.285   .     S
N372   Zn391   2.011   .     S
N372   N483    1.285   1_455 S
N372   H478    1.029   1_455 S
O379   Zn391   1.981   .     S
O381   H33     0.990   1_565 S
O383   Zn392   1.981   .     S
O384   Zn392   2.008   .     S
O385   Zn391   2.008   .     S
O386   Zn391   1.998   .     S
O387   Zn392   1.998   .     S
O388   Zn392   2.022   .     S
O389   Zn391   2.022   .     S
C393   O440    1.290   .     A
C393   C416    1.409   .     S
C393   O435    1.270   .     A
C394   C396    1.396   .     A
C394   C409    1.456   .     S
C394   C405    1.407   .     A
C395   C419    1.434   .     S
C395   C420    1.398   .     A
C395   C397    1.397   .     A
C396   C418    1.431   .     S
C396   C398    1.395   .     A
C397   C399    1.405   .     A
C397   C410    1.454   .     S
C398   C411    1.454   .     S
C398   C400    1.401   .     A
C399   C401    1.423   .     A
C399   C406    1.419   .     A
C400   C407    1.410   .     A
C400   C402    1.418   .     A
C401   C403    1.428   .     A
C401   C906    1.405   1_554 S
C402   C405    1.423   .     A
C402   C905    1.405   .     S
C403   C420    1.409   .     A
C403   C415    1.419   .     A
C404   C417    1.409   .     S
C404   O439    1.270   .     A
C404   O441    1.291   .     A
C405   C414    1.411   .     A
C406   O446    1.382   .     S
C406   C918    1.405   1_554 S
C407   O436    1.384   .     S
C407   C919    1.403   .     S
C408   C420    1.458   .     S
C408   N429    1.158   .     T
C409   N430    1.158   .     T
C410   N431    1.156   .     T
C411   N432    1.156   .     T
C412   N433    1.158   .     T
C413   N434    1.158   .     T
C413   C81     1.462   1_565 S
C414   O437    1.383   .     S
C414   C910    1.405   .     S
C415   O438    1.382   .     S
C415   C911    1.403   1_554 S
C416   C76     1.462   1_565 S
C416   C81     1.370   1_565 S
C418   O444    1.284   .     A
C418   O442    1.281   .     A
C419   O445    1.282   .     A
C419   O443    1.284   .     A
H422   N484    1.029   .     S
H423   O446    0.991   .     S
H424   O436    0.991   .     S
H426   O438    0.992   .     S
N427   Zn448   2.011   .     S
N427   H477    1.029   .     S
N427   N484    1.285   .     S
N428   Zn447   2.011   .     S
O435   Zn447   1.981   .     S
O437   H89     0.990   1_565 S
O439   Zn448   1.981   .     S
O440   Zn448   2.008   .     S
O441   Zn447   2.008   .     S
O442   Zn447   1.998   .     S
O443   Zn448   1.998   .     S
O444   Zn448   2.022   .     S
O445   Zn447   2.022   .     S
C449   O496    1.290   .     A
C449   C472    1.409   .     S
C449   O491    1.270   .     A
C450   C452    1.396   .     A
C450   C465    1.456   .     S
C450   C461    1.407   .     A
C451   C475    1.434   .     S
C451   C476    1.398   .     A
C451   C453    1.397   .     A
C452   C474    1.431   .     S
C452   C454    1.395   .     A
C453   C455    1.405   .     A
C453   C466    1.454   .     S
C454   C467    1.454   .     S
C454   C456    1.401   .     A
C455   C457    1.423   .     A
C455   C462    1.419   .     A
C456   C463    1.410   .     A
C456   C458    1.418   .     A
C457   C459    1.428   .     A
C457   C962    1.405   1_554 S
C458   C461    1.423   .     A
C458   C961    1.405   .     S
C459   C476    1.409   .     A
C459   C471    1.419   .     A
C460   C473    1.409   .     S
C460   O495    1.270   .     A
C460   O497    1.291   .     A
C461   C470    1.411   .     A
C462   O502    1.382   .     S
C462   C974    1.405   1_554 S
C463   O492    1.384   .     S
C463   C975    1.403   .     S
C464   C476    1.458   .     S
C464   N485    1.158   .     T
C465   N486    1.158   .     T
C466   N487    1.156   .     T
C467   N488    1.156   .     T
C468   N489    1.158   .     T
C469   N490    1.158   .     T
C469   C137    1.462   1_565 S
C470   O493    1.383   .     S
C470   C966    1.405   .     S
C471   O494    1.382   .     S
C471   C967    1.403   1_554 S
C472   C132    1.462   1_565 S
C472   C137    1.370   1_565 S
C474   O500    1.284   .     A
C474   O498    1.281   .     A
C475   O501    1.282   .     A
C475   O499    1.284   .     A
H478   N372    1.029   1_655 S
H479   O502    0.991   .     S
H480   O492    0.991   .     S
H482   O494    0.992   .     S
N483   Zn504   2.011   .     S
N483   H365    1.029   1_655 S
N483   N372    1.285   1_655 S
N484   Zn503   2.011   .     S
O491   Zn503   1.981   .     S
O493   H145    0.990   1_565 S
O495   Zn504   1.981   .     S
O496   Zn504   2.008   .     S
O497   Zn503   2.008   .     S
O498   Zn503   1.998   .     S
O499   Zn504   1.998   .     S
O500   Zn504   2.022   .     S
O501   Zn503   2.022   .     S
C505   O552    1.290   .     A
C505   C528    1.409   .     S
C505   O547    1.270   .     A
C506   C508    1.396   .     A
C506   C521    1.456   .     S
C506   C517    1.407   .     A
C507   C531    1.434   .     S
C507   C532    1.398   .     A
C507   C509    1.397   .     A
C508   C530    1.431   .     S
C508   C510    1.395   .     A
C509   C511    1.405   .     A
C509   C522    1.454   .     S
C510   C523    1.454   .     S
C510   C512    1.401   .     A
C511   C513    1.423   .     A
C511   C518    1.419   .     A
C512   C519    1.410   .     A
C512   C514    1.418   .     A
C513   C515    1.428   .     A
C514   C517    1.423   .     A
C514   C9      1.405   1_556 S
C515   C532    1.409   .     A
C515   C527    1.419   .     A
C516   C529    1.409   .     S
C516   O551    1.270   .     A
C516   O553    1.291   .     A
C517   C526    1.411   .     A
C518   O558    1.382   .     S
C519   O548    1.384   .     S
C519   C23     1.403   1_556 S
C520   C532    1.458   .     S
C520   N541    1.158   .     T
C521   N542    1.158   .     T
C522   N543    1.156   .     T
C523   N544    1.156   .     T
C524   N545    1.158   .     T
C524   C864    1.462   1_545 S
C525   N546    1.158   .     T
C525   C697    1.462   .     S
C526   O549    1.383   .     S
C526   C14     1.405   1_556 S
C527   O550    1.382   .     S
C528   C692    1.462   .     S
C528   C697    1.370   .     S
C529   C864    1.370   1_545 S
C529   C861    1.462   1_545 S
C530   O556    1.284   .     A
C530   O554    1.281   .     A
C531   O557    1.282   .     A
C531   O555    1.284   .     A
H533   N651    1.029   1_455 S
H534   N596    1.029   .     S
H535   O558    0.991   .     S
H536   O548    0.991   .     S
H537   O885    0.990   1_545 S
H538   O550    0.992   .     S
N539   Zn560   2.011   .     S
N539   H589    1.029   .     S
N539   N596    1.285   .     S
N540   Zn559   2.011   .     S
N540   N651    1.285   1_455 S
N540   H646    1.029   1_455 S
O547   Zn559   1.981   .     S
O549   H705    0.990   .     S
O551   Zn560   1.981   .     S
O552   Zn560   2.008   .     S
O553   Zn559   2.008   .     S
O554   Zn559   1.998   .     S
O555   Zn560   1.998   .     S
O556   Zn560   2.022   .     S
O557   Zn559   2.022   .     S
C561   O608    1.290   .     A
C561   C584    1.409   .     S
C561   O603    1.270   .     A
C562   C564    1.396   .     A
C562   C577    1.456   .     S
C562   C573    1.407   .     A
C563   C587    1.434   .     S
C563   C588    1.398   .     A
C563   C565    1.397   .     A
C564   C586    1.431   .     S
C564   C566    1.395   .     A
C565   C567    1.405   .     A
C565   C578    1.454   .     S
C566   C579    1.454   .     S
C566   C568    1.401   .     A
C567   C569    1.423   .     A
C567   C574    1.419   .     A
C568   C575    1.410   .     A
C568   C570    1.418   .     A
C569   C571    1.428   .     A
C570   C573    1.423   .     A
C570   C65     1.405   1_556 S
C571   C588    1.409   .     A
C571   C583    1.419   .     A
C572   C585    1.409   .     S
C572   O607    1.270   .     A
C572   O609    1.291   .     A
C573   C582    1.411   .     A
C574   O614    1.382   .     S
C575   O604    1.384   .     S
C575   C79     1.403   1_556 S
C576   C588    1.458   .     S
C576   N597    1.158   .     T
C577   N598    1.158   .     T
C578   N599    1.156   .     T
C579   N600    1.156   .     T
C580   N601    1.158   .     T
C580   C920    1.462   1_545 S
C581   N602    1.158   .     T
C581   C753    1.462   .     S
C582   O605    1.383   .     S
C582   C70     1.405   1_556 S
C583   O606    1.382   .     S
C584   C748    1.462   .     S
C584   C753    1.370   .     S
C585   C920    1.370   1_545 S
C585   C917    1.462   1_545 S
C586   O612    1.284   .     A
C586   O610    1.281   .     A
C587   O613    1.282   .     A
C587   O611    1.284   .     A
H590   N652    1.029   .     S
H591   O614    0.991   .     S
H592   O604    0.991   .     S
H593   O941    0.990   1_545 S
H594   O606    0.992   .     S
N595   Zn616   2.011   .     S
N595   H645    1.029   .     S
N595   N652    1.285   .     S
N596   Zn615   2.011   .     S
O603   Zn615   1.981   .     S
O605   H761    0.990   .     S
O607   Zn616   1.981   .     S
O608   Zn616   2.008   .     S
O609   Zn615   2.008   .     S
O610   Zn615   1.998   .     S
O611   Zn616   1.998   .     S
O612   Zn616   2.022   .     S
O613   Zn615   2.022   .     S
C617   O664    1.290   .     A
C617   C640    1.409   .     S
C617   O659    1.270   .     A
C618   C620    1.396   .     A
C618   C633    1.456   .     S
C618   C629    1.407   .     A
C619   C643    1.434   .     S
C619   C644    1.398   .     A
C619   C621    1.397   .     A
C620   C642    1.431   .     S
C620   C622    1.395   .     A
C621   C623    1.405   .     A
C621   C634    1.454   .     S
C622   C635    1.454   .     S
C622   C624    1.401   .     A
C623   C625    1.423   .     A
C623   C630    1.419   .     A
C624   C631    1.410   .     A
C624   C626    1.418   .     A
C625   C627    1.428   .     A
C626   C629    1.423   .     A
C626   C121    1.405   1_556 S
C627   C644    1.409   .     A
C627   C639    1.419   .     A
C628   C641    1.409   .     S
C628   O663    1.270   .     A
C628   O665    1.291   .     A
C629   C638    1.411   .     A
C630   O670    1.382   .     S
C631   O660    1.384   .     S
C631   C135    1.403   1_556 S
C632   C644    1.458   .     S
C632   N653    1.158   .     T
C633   N654    1.158   .     T
C634   N655    1.156   .     T
C635   N656    1.156   .     T
C636   N657    1.158   .     T
C636   C976    1.462   1_545 S
C637   N658    1.158   .     T
C637   C809    1.462   .     S
C638   O661    1.383   .     S
C638   C126    1.405   1_556 S
C639   O662    1.382   .     S
C640   C804    1.462   .     S
C640   C809    1.370   .     S
C641   C976    1.370   1_545 S
C641   C973    1.462   1_545 S
C642   O668    1.284   .     A
C642   O666    1.281   .     A
C643   O669    1.282   .     A
C643   O667    1.284   .     A
H646   N540    1.029   1_655 S
H647   O670    0.991   .     S
H648   O660    0.991   .     S
H649   O997    0.990   1_545 S
H650   O662    0.992   .     S
N651   Zn672   2.011   .     S
N651   H533    1.029   1_655 S
N651   N540    1.285   1_655 S
N652   Zn671   2.011   .     S
O659   Zn671   1.981   .     S
O661   H817    0.990   .     S
O663   Zn672   1.981   .     S
O664   Zn672   2.008   .     S
O665   Zn671   2.008   .     S
O666   Zn671   1.998   .     S
O667   Zn672   1.998   .     S
O668   Zn672   2.022   .     S
O669   Zn671   2.022   .     S
C673   O720    1.290   .     A
C673   C696    1.409   .     S
C673   O715    1.270   .     A
C674   C676    1.396   .     A
C674   C689    1.456   .     S
C674   C685    1.407   .     A
C675   C699    1.434   .     S
C675   C700    1.398   .     A
C675   C677    1.397   .     A
C676   C698    1.431   .     S
C676   C678    1.395   .     A
C677   C679    1.405   .     A
C677   C690    1.454   .     S
C678   C691    1.454   .     S
C678   C680    1.401   .     A
C679   C681    1.423   .     A
C679   C686    1.419   .     A
C680   C687    1.410   .     A
C680   C682    1.418   .     A
C681   C683    1.428   .     A
C682   C685    1.423   .     A
C682   C177    1.405   1_556 S
C683   C700    1.409   .     A
C683   C695    1.419   .     A
C684   C697    1.409   .     S
C684   O719    1.270   .     A
C684   O721    1.291   .     A
C685   C694    1.411   .     A
C686   O726    1.382   .     S
C687   O716    1.384   .     S
C687   C191    1.403   1_556 S
C688   C700    1.458   .     S
C688   N709    1.158   .     T
C689   N710    1.158   .     T
C690   N711    1.156   .     T
C691   N712    1.156   .     T
C692   N713    1.158   .     T
C693   N714    1.158   .     T
C693   C865    1.462   .     S
C694   O717    1.383   .     S
C694   C182    1.405   1_556 S
C695   O718    1.382   .     S
C696   C860    1.462   .     S
C696   C865    1.370   .     S
C698   O724    1.284   .     A
C698   O722    1.281   .     A
C699   O725    1.282   .     A
C699   O723    1.284   .     A
H701   N819    1.029   1_455 S
H702   N764    1.029   .     S
H703   O726    0.991   .     S
H704   O716    0.991   .     S
H706   O718    0.992   .     S
N707   Zn728   2.011   .     S
N707   H757    1.029   .     S
N707   N764    1.285   .     S
N708   Zn727   2.011   .     S
N708   N819    1.285   1_455 S
N708   H814    1.029   1_455 S
O715   Zn727   1.981   .     S
O717   H873    0.990   .     S
O719   Zn728   1.981   .     S
O720   Zn728   2.008   .     S
O721   Zn727   2.008   .     S
O722   Zn727   1.998   .     S
O723   Zn728   1.998   .     S
O724   Zn728   2.022   .     S
O725   Zn727   2.022   .     S
C729   O776    1.290   .     A
C729   C752    1.409   .     S
C729   O771    1.270   .     A
C730   C732    1.396   .     A
C730   C745    1.456   .     S
C730   C741    1.407   .     A
C731   C755    1.434   .     S
C731   C756    1.398   .     A
C731   C733    1.397   .     A
C732   C754    1.431   .     S
C732   C734    1.395   .     A
C733   C735    1.405   .     A
C733   C746    1.454   .     S
C734   C747    1.454   .     S
C734   C736    1.401   .     A
C735   C737    1.423   .     A
C735   C742    1.419   .     A
C736   C743    1.410   .     A
C736   C738    1.418   .     A
C737   C739    1.428   .     A
C738   C741    1.423   .     A
C738   C233    1.405   1_556 S
C739   C756    1.409   .     A
C739   C751    1.419   .     A
C740   C753    1.409   .     S
C740   O775    1.270   .     A
C740   O777    1.291   .     A
C741   C750    1.411   .     A
C742   O782    1.382   .     S
C743   O772    1.384   .     S
C743   C247    1.403   1_556 S
C744   C756    1.458   .     S
C744   N765    1.158   .     T
C745   N766    1.158   .     T
C746   N767    1.156   .     T
C747   N768    1.156   .     T
C748   N769    1.158   .     T
C749   N770    1.158   .     T
C749   C921    1.462   .     S
C750   O773    1.383   .     S
C750   C238    1.405   1_556 S
C751   O774    1.382   .     S
C752   C916    1.462   .     S
C752   C921    1.370   .     S
C754   O780    1.284   .     A
C754   O778    1.281   .     A
C755   O781    1.282   .     A
C755   O779    1.284   .     A
H758   N820    1.029   .     S
H759   O782    0.991   .     S
H760   O772    0.991   .     S
H762   O774    0.992   .     S
N763   Zn784   2.011   .     S
N763   H813    1.029   .     S
N763   N820    1.285   .     S
N764   Zn783   2.011   .     S
O771   Zn783   1.981   .     S
O773   H929    0.990   .     S
O775   Zn784   1.981   .     S
O776   Zn784   2.008   .     S
O777   Zn783   2.008   .     S
O778   Zn783   1.998   .     S
O779   Zn784   1.998   .     S
O780   Zn784   2.022   .     S
O781   Zn783   2.022   .     S
C785   O832    1.290   .     A
C785   C808    1.409   .     S
C785   O827    1.270   .     A
C786   C788    1.396   .     A
C786   C801    1.456   .     S
C786   C797    1.407   .     A
C787   C811    1.434   .     S
C787   C812    1.398   .     A
C787   C789    1.397   .     A
C788   C810    1.431   .     S
C788   C790    1.395   .     A
C789   C791    1.405   .     A
C789   C802    1.454   .     S
C790   C803    1.454   .     S
C790   C792    1.401   .     A
C791   C793    1.423   .     A
C791   C798    1.419   .     A
C792   C799    1.410   .     A
C792   C794    1.418   .     A
C793   C795    1.428   .     A
C794   C797    1.423   .     A
C794   C289    1.405   1_556 S
C795   C812    1.409   .     A
C795   C807    1.419   .     A
C796   C809    1.409   .     S
C796   O831    1.270   .     A
C796   O833    1.291   .     A
C797   C806    1.411   .     A
C798   O838    1.382   .     S
C799   O828    1.384   .     S
C799   C303    1.403   1_556 S
C800   C812    1.458   .     S
C800   N821    1.158   .     T
C801   N822    1.158   .     T
C802   N823    1.156   .     T
C803   N824    1.156   .     T
C804   N825    1.158   .     T
C805   N826    1.158   .     T
C805   C977    1.462   .     S
C806   O829    1.383   .     S
C806   C294    1.405   1_556 S
C807   O830    1.382   .     S
C808   C972    1.462   .     S
C808   C977    1.370   .     S
C810   O836    1.284   .     A
C810   O834    1.281   .     A
C811   O837    1.282   .     A
C811   O835    1.284   .     A
H814   N708    1.029   1_655 S
H815   O838    0.991   .     S
H816   O828    0.991   .     S
H818   O830    0.992   .     S
N819   Zn840   2.011   .     S
N819   H701    1.029   1_655 S
N819   N708    1.285   1_655 S
N820   Zn839   2.011   .     S
O827   Zn839   1.981   .     S
O829   H985    0.990   .     S
O831   Zn840   1.981   .     S
O832   Zn840   2.008   .     S
O833   Zn839   2.008   .     S
O834   Zn839   1.998   .     S
O835   Zn840   1.998   .     S
O836   Zn840   2.022   .     S
O837   Zn839   2.022   .     S
C841   O888    1.290   .     A
C841   C864    1.409   .     S
C841   O883    1.270   .     A
C842   C844    1.396   .     A
C842   C857    1.456   .     S
C842   C853    1.407   .     A
C843   C867    1.434   .     S
C843   C868    1.398   .     A
C843   C845    1.397   .     A
C844   C866    1.431   .     S
C844   C846    1.395   .     A
C845   C847    1.405   .     A
C845   C858    1.454   .     S
C846   C859    1.454   .     S
C846   C848    1.401   .     A
C847   C849    1.423   .     A
C847   C854    1.419   .     A
C848   C855    1.410   .     A
C848   C850    1.418   .     A
C849   C851    1.428   .     A
C850   C853    1.423   .     A
C850   C345    1.405   1_556 S
C851   C868    1.409   .     A
C851   C863    1.419   .     A
C852   C865    1.409   .     S
C852   O887    1.270   .     A
C852   O889    1.291   .     A
C853   C862    1.411   .     A
C854   O894    1.382   .     S
C855   O884    1.384   .     S
C855   C359    1.403   1_556 S
C856   C868    1.458   .     S
C856   N877    1.158   .     T
C857   N878    1.158   .     T
C858   N879    1.156   .     T
C859   N880    1.156   .     T
C860   N881    1.158   .     T
C861   N882    1.158   .     T
C861   C529    1.462   1_565 S
C862   O885    1.383   .     S
C862   C350    1.405   1_556 S
C863   O886    1.382   .     S
C864   C524    1.462   1_565 S
C864   C529    1.370   1_565 S
C866   O892    1.284   .     A
C866   O890    1.281   .     A
C867   O893    1.282   .     A
C867   O891    1.284   .     A
H869   N987    1.029   1_455 S
H870   N932    1.029   .     S
H871   O894    0.991   .     S
H872   O884    0.991   .     S
H874   O886    0.992   .     S
N875   Zn896   2.011   .     S
N875   H925    1.029   .     S
N875   N932    1.285   .     S
N876   Zn895   2.011   .     S
N876   N987    1.285   1_455 S
N876   H982    1.029   1_455 S
O883   Zn895   1.981   .     S
O885   H537    0.990   1_565 S
O887   Zn896   1.981   .     S
O888   Zn896   2.008   .     S
O889   Zn895   2.008   .     S
O890   Zn895   1.998   .     S
O891   Zn896   1.998   .     S
O892   Zn896   2.022   .     S
O893   Zn895   2.022   .     S
C897   O944    1.290   .     A
C897   C920    1.409   .     S
C897   O939    1.270   .     A
C898   C900    1.396   .     A
C898   C913    1.456   .     S
C898   C909    1.407   .     A
C899   C923    1.434   .     S
C899   C924    1.398   .     A
C899   C901    1.397   .     A
C900   C922    1.431   .     S
C900   C902    1.395   .     A
C901   C903    1.405   .     A
C901   C914    1.454   .     S
C902   C915    1.454   .     S
C902   C904    1.401   .     A
C903   C905    1.423   .     A
C903   C910    1.419   .     A
C904   C911    1.410   .     A
C904   C906    1.418   .     A
C905   C907    1.428   .     A
C906   C909    1.423   .     A
C906   C401    1.405   1_556 S
C907   C924    1.409   .     A
C907   C919    1.419   .     A
C908   C921    1.409   .     S
C908   O943    1.270   .     A
C908   O945    1.291   .     A
C909   C918    1.411   .     A
C910   O950    1.382   .     S
C911   O940    1.384   .     S
C911   C415    1.403   1_556 S
C912   C924    1.458   .     S
C912   N933    1.158   .     T
C913   N934    1.158   .     T
C914   N935    1.156   .     T
C915   N936    1.156   .     T
C916   N937    1.158   .     T
C917   N938    1.158   .     T
C917   C585    1.462   1_565 S
C918   O941    1.383   .     S
C918   C406    1.405   1_556 S
C919   O942    1.382   .     S
C920   C580    1.462   1_565 S
C920   C585    1.370   1_565 S
C922   O948    1.284   .     A
C922   O946    1.281   .     A
C923   O949    1.282   .     A
C923   O947    1.284   .     A
H926   N988    1.029   .     S
H927   O950    0.991   .     S
H928   O940    0.991   .     S
H930   O942    0.992   .     S
N931   Zn952   2.011   .     S
N931   H981    1.029   .     S
N931   N988    1.285   .     S
N932   Zn951   2.011   .     S
O939   Zn951   1.981   .     S
O941   H593    0.990   1_565 S
O943   Zn952   1.981   .     S
O944   Zn952   2.008   .     S
O945   Zn951   2.008   .     S
O946   Zn951   1.998   .     S
O947   Zn952   1.998   .     S
O948   Zn952   2.022   .     S
O949   Zn951   2.022   .     S
C953   O1000   1.290   .     A
C953   C976    1.409   .     S
C953   O995    1.270   .     A
C954   C956    1.396   .     A
C954   C969    1.456   .     S
C954   C965    1.407   .     A
C955   C979    1.434   .     S
C955   C980    1.398   .     A
C955   C957    1.397   .     A
C956   C978    1.431   .     S
C956   C958    1.395   .     A
C957   C959    1.405   .     A
C957   C970    1.454   .     S
C958   C971    1.454   .     S
C958   C960    1.401   .     A
C959   C961    1.423   .     A
C959   C966    1.419   .     A
C960   C967    1.410   .     A
C960   C962    1.418   .     A
C961   C963    1.428   .     A
C962   C965    1.423   .     A
C962   C457    1.405   1_556 S
C963   C980    1.409   .     A
C963   C975    1.419   .     A
C964   C977    1.409   .     S
C964   O999    1.270   .     A
C964   O1001   1.291   .     A
C965   C974    1.411   .     A
C966   O1006   1.382   .     S
C967   O996    1.384   .     S
C967   C471    1.403   1_556 S
C968   C980    1.458   .     S
C968   N989    1.158   .     T
C969   N990    1.158   .     T
C970   N991    1.156   .     T
C971   N992    1.156   .     T
C972   N993    1.158   .     T
C973   N994    1.158   .     T
C973   C641    1.462   1_565 S
C974   O997    1.383   .     S
C974   C462    1.405   1_556 S
C975   O998    1.382   .     S
C976   C636    1.462   1_565 S
C976   C641    1.370   1_565 S
C978   O1004   1.284   .     A
C978   O1002   1.281   .     A
C979   O1005   1.282   .     A
C979   O1003   1.284   .     A
H982   N876    1.029   1_655 S
H983   O1006   0.991   .     S
H984   O996    0.991   .     S
H986   O998    0.992   .     S
N987   Zn1008  2.011   .     S
N987   H869    1.029   1_655 S
N987   N876    1.285   1_655 S
N988   Zn1007  2.011   .     S
O995   Zn1007  1.981   .     S
O997   H649    0.990   1_565 S
O999   Zn1008  1.981   .     S
O1000  Zn1008  2.008   .     S
O1001  Zn1007  2.008   .     S
O1002  Zn1007  1.998   .     S
O1003  Zn1008  1.998   .     S
O1004  Zn1008  2.022   .     S
O1005  Zn1007  2.022   .     S
