data_str_m3_o10_o16_pcu_sym.68
_audit_creation_date              2020-01-03
_audit_creation_method            'Materials Studio'
_symmetry_space_group_name_H-M    'P1'
_symmetry_Int_Tables_number       1
_symmetry_cell_setting            triclinic
loop_
_symmetry_equiv_pos_as_xyz
  x,y,z
_cell_length_a                    23.4418
_cell_length_b                    25.7643
_cell_length_c                    24.5020
_cell_angle_alpha                 93.1396
_cell_angle_beta                  101.7121
_cell_angle_gamma                 94.0052
loop_
_atom_site_label
_atom_site_type_symbol
_atom_site_fract_x
_atom_site_fract_y
_atom_site_fract_z
_atom_site_U_iso_or_equiv
_atom_site_adp_type
_atom_site_occupancy
C1     C     0.01566   0.26500   0.25249   0.00000  Uiso   1.00
C2     C     0.05605   0.17907   0.41468   0.00000  Uiso   1.00
C3     C     0.02293   0.31979   0.25453   0.00000  Uiso   1.00
C4     C     0.03604   0.17028   0.35485   0.00000  Uiso   1.00
C5     C     0.31555   0.01635   0.26865   0.00000  Uiso   1.00
C6     C     0.31964   0.06887   0.25506   0.00000  Uiso   1.00
C7     C     0.29725   0.16284   0.14501   0.00000  Uiso   1.00
C8     C     0.25332   0.08147   0.01217   0.00000  Uiso   1.00
C9     C     0.27600   0.15005   0.08587   0.00000  Uiso   1.00
C10    C     0.03641   0.22131   0.44144   0.00000  Uiso   1.00
C11    C     0.06212   0.23751   0.49593   0.00000  Uiso   1.00
C12    C     0.13354   0.17243   0.49575   0.00000  Uiso   1.00
C13    C     0.10926   0.21295   0.02460   0.00000  Uiso   1.00
C14    C     0.10159   0.15196   0.44273   0.00000  Uiso   1.00
C15    C     0.18759   0.15112   0.01600   0.00000  Uiso   1.00
C16    C     0.20164   0.10417   0.49012   0.00000  Uiso   1.00
C17    C     0.16416   0.08057   0.44263   0.00000  Uiso   1.00
C18    C     0.11547   0.10478   0.41837   0.00000  Uiso   1.00
C19    C     0.22967   0.17619   0.05949   0.00000  Uiso   1.00
C20    C     0.28959   0.10355   0.06123   0.00000  Uiso   1.00
H21    H     0.32580   0.08288   0.08161   0.00000  Uiso   1.00
H22    H     0.05895   0.00207   0.23682   0.00000  Uiso   1.00
H23    H     0.20524   0.05836   0.32497   0.00000  Uiso   1.00
H24    H     0.10867   0.14153   0.10856   0.00000  Uiso   1.00
H25    H     0.15700   0.12162   0.21269   0.00000  Uiso   1.00
H26    H     0.17656   0.20989   0.28986   0.00000  Uiso   1.00
H27    H     0.17354   0.04426   0.42311   0.00000  Uiso   1.00
H28    H     0.26394   0.04538   0.49319   0.00000  Uiso   1.00
H29    H     0.22596   0.21502   0.07550   0.00000  Uiso   1.00
H30    H     0.00102   0.24202   0.42013   0.00000  Uiso   1.00
H31    H     0.04373   0.26866   0.01641   0.00000  Uiso   1.00
H32    H     0.08821   0.08588   0.38049   0.00000  Uiso   1.00
N33    N     0.14493   0.15223   0.23542   0.00000  Uiso   1.00
N34    N     0.18840   0.18110   0.26457   0.00000  Uiso   1.00
O35    O     0.29769   0.24629   0.25357   0.00000  Uiso   1.00
O36    O     0.28042   0.29133   0.34706   0.00000  Uiso   1.00
O37    O     0.24497   0.05048   0.34365   0.00000  Uiso   1.00
O38    O     0.16854   0.26706   0.11909   0.00000  Uiso   1.00
O39    O     0.06667   0.23893   0.11537   0.00000  Uiso   1.00
O40    O     0.14060   0.16811   0.12627   0.00000  Uiso   1.00
O41    O     0.05742   0.23704   0.24423   0.00000  Uiso   1.00
O42    O     0.31490   0.17358   0.33380   0.00000  Uiso   1.00
O43    O     0.07463   0.16433   0.32446   0.00000  Uiso   1.00
O44    O     0.27592   0.09629   0.25576   0.00000  Uiso   1.00
O45    O     0.03565   0.08704   0.24642   0.00000  Uiso   1.00
O46    O     0.25870   0.16901   0.17554   0.00000  Uiso   1.00
O47    O     0.01843   0.15976   0.16620   0.00000  Uiso   1.00
O48    O     0.20600   0.30934   0.26618   0.00000  Uiso   1.00
S49    S     0.26044   0.33139   0.30679   0.00000  Uiso   1.00
S50    S     0.12153   0.22373   0.09816   0.00000  Uiso   1.00
Zn51   Zn    0.27119   0.17284   0.25623   0.00000  Uiso   1.00
Zn52   Zn    0.06214   0.16049   0.24376   0.00000  Uiso   1.00
C53    C     0.34899   0.26500   0.25249   0.00000  Uiso   1.00
C54    C     0.38938   0.17907   0.41468   0.00000  Uiso   1.00
C55    C     0.35626   0.31979   0.25453   0.00000  Uiso   1.00
C56    C     0.36937   0.17028   0.35485   0.00000  Uiso   1.00
C57    C     0.64888   0.01635   0.26865   0.00000  Uiso   1.00
C58    C     0.65297   0.06887   0.25506   0.00000  Uiso   1.00
C59    C     0.63058   0.16284   0.14501   0.00000  Uiso   1.00
C60    C     0.58665   0.08147   0.01217   0.00000  Uiso   1.00
C61    C     0.60933   0.15005   0.08587   0.00000  Uiso   1.00
C62    C     0.36975   0.22131   0.44144   0.00000  Uiso   1.00
C63    C     0.39545   0.23751   0.49593   0.00000  Uiso   1.00
C64    C     0.46687   0.17243   0.49575   0.00000  Uiso   1.00
C65    C     0.44260   0.21295   0.02460   0.00000  Uiso   1.00
C66    C     0.43492   0.15196   0.44273   0.00000  Uiso   1.00
C67    C     0.52093   0.15112   0.01600   0.00000  Uiso   1.00
C68    C     0.53498   0.10417   0.49012   0.00000  Uiso   1.00
C69    C     0.49750   0.08057   0.44263   0.00000  Uiso   1.00
C70    C     0.44880   0.10478   0.41837   0.00000  Uiso   1.00
C71    C     0.56300   0.17619   0.05949   0.00000  Uiso   1.00
C72    C     0.62292   0.10355   0.06123   0.00000  Uiso   1.00
H73    H     0.65914   0.08288   0.08161   0.00000  Uiso   1.00
H74    H     0.39228   0.00207   0.23682   0.00000  Uiso   1.00
H75    H     0.53857   0.05836   0.32497   0.00000  Uiso   1.00
H76    H     0.44200   0.14153   0.10856   0.00000  Uiso   1.00
H77    H     0.49034   0.12162   0.21269   0.00000  Uiso   1.00
H78    H     0.50990   0.20989   0.28986   0.00000  Uiso   1.00
H79    H     0.50687   0.04426   0.42311   0.00000  Uiso   1.00
H80    H     0.59728   0.04538   0.49319   0.00000  Uiso   1.00
H81    H     0.55930   0.21502   0.07550   0.00000  Uiso   1.00
H82    H     0.33435   0.24202   0.42013   0.00000  Uiso   1.00
H83    H     0.37706   0.26866   0.01641   0.00000  Uiso   1.00
H84    H     0.42155   0.08588   0.38049   0.00000  Uiso   1.00
N85    N     0.47827   0.15223   0.23542   0.00000  Uiso   1.00
N86    N     0.52173   0.18110   0.26457   0.00000  Uiso   1.00
O87    O     0.63102   0.24629   0.25357   0.00000  Uiso   1.00
O88    O     0.61375   0.29133   0.34706   0.00000  Uiso   1.00
O89    O     0.57830   0.05048   0.34365   0.00000  Uiso   1.00
O90    O     0.50188   0.26706   0.11909   0.00000  Uiso   1.00
O91    O     0.40000   0.23893   0.11537   0.00000  Uiso   1.00
O92    O     0.47393   0.16811   0.12627   0.00000  Uiso   1.00
O93    O     0.39075   0.23704   0.24423   0.00000  Uiso   1.00
O94    O     0.64823   0.17358   0.33380   0.00000  Uiso   1.00
O95    O     0.40796   0.16433   0.32446   0.00000  Uiso   1.00
O96    O     0.60925   0.09629   0.25576   0.00000  Uiso   1.00
O97    O     0.36898   0.08704   0.24642   0.00000  Uiso   1.00
O98    O     0.59204   0.16901   0.17554   0.00000  Uiso   1.00
O99    O     0.35177   0.15976   0.16620   0.00000  Uiso   1.00
O100   O     0.53934   0.30934   0.26618   0.00000  Uiso   1.00
S101   S     0.59378   0.33139   0.30679   0.00000  Uiso   1.00
S102   S     0.45487   0.22373   0.09816   0.00000  Uiso   1.00
Zn103  Zn    0.60453   0.17284   0.25623   0.00000  Uiso   1.00
Zn104  Zn    0.39547   0.16049   0.24376   0.00000  Uiso   1.00
C105   C     0.68233   0.26500   0.25249   0.00000  Uiso   1.00
C106   C     0.72271   0.17907   0.41468   0.00000  Uiso   1.00
C107   C     0.68959   0.31979   0.25453   0.00000  Uiso   1.00
C108   C     0.70270   0.17028   0.35485   0.00000  Uiso   1.00
C109   C     0.98221   0.01635   0.26865   0.00000  Uiso   1.00
C110   C     0.98630   0.06887   0.25506   0.00000  Uiso   1.00
C111   C     0.96391   0.16284   0.14501   0.00000  Uiso   1.00
C112   C     0.91999   0.08147   0.01217   0.00000  Uiso   1.00
C113   C     0.94267   0.15005   0.08587   0.00000  Uiso   1.00
C114   C     0.70308   0.22131   0.44144   0.00000  Uiso   1.00
C115   C     0.72879   0.23751   0.49593   0.00000  Uiso   1.00
C116   C     0.80020   0.17243   0.49575   0.00000  Uiso   1.00
C117   C     0.77593   0.21295   0.02460   0.00000  Uiso   1.00
C118   C     0.76825   0.15196   0.44273   0.00000  Uiso   1.00
C119   C     0.85426   0.15112   0.01600   0.00000  Uiso   1.00
C120   C     0.86831   0.10417   0.49012   0.00000  Uiso   1.00
C121   C     0.83083   0.08057   0.44263   0.00000  Uiso   1.00
C122   C     0.78213   0.10478   0.41837   0.00000  Uiso   1.00
C123   C     0.89634   0.17619   0.05949   0.00000  Uiso   1.00
C124   C     0.95626   0.10355   0.06123   0.00000  Uiso   1.00
H125   H     0.99247   0.08288   0.08161   0.00000  Uiso   1.00
H126   H     0.72561   0.00207   0.23682   0.00000  Uiso   1.00
H127   H     0.87191   0.05836   0.32497   0.00000  Uiso   1.00
H128   H     0.77533   0.14153   0.10856   0.00000  Uiso   1.00
H129   H     0.82367   0.12162   0.21269   0.00000  Uiso   1.00
H130   H     0.84323   0.20989   0.28986   0.00000  Uiso   1.00
H131   H     0.84021   0.04426   0.42311   0.00000  Uiso   1.00
H132   H     0.93061   0.04538   0.49319   0.00000  Uiso   1.00
H133   H     0.89263   0.21502   0.07550   0.00000  Uiso   1.00
H134   H     0.66769   0.24202   0.42013   0.00000  Uiso   1.00
H135   H     0.71039   0.26866   0.01641   0.00000  Uiso   1.00
H136   H     0.75488   0.08588   0.38049   0.00000  Uiso   1.00
N137   N     0.81160   0.15223   0.23542   0.00000  Uiso   1.00
N138   N     0.85507   0.18110   0.26457   0.00000  Uiso   1.00
O139   O     0.96435   0.24629   0.25357   0.00000  Uiso   1.00
O140   O     0.94708   0.29133   0.34706   0.00000  Uiso   1.00
O141   O     0.91164   0.05048   0.34365   0.00000  Uiso   1.00
O142   O     0.83521   0.26706   0.11909   0.00000  Uiso   1.00
O143   O     0.73334   0.23893   0.11537   0.00000  Uiso   1.00
O144   O     0.80727   0.16811   0.12627   0.00000  Uiso   1.00
O145   O     0.72408   0.23704   0.24423   0.00000  Uiso   1.00
O146   O     0.98157   0.17358   0.33380   0.00000  Uiso   1.00
O147   O     0.74130   0.16433   0.32446   0.00000  Uiso   1.00
O148   O     0.94258   0.09629   0.25576   0.00000  Uiso   1.00
O149   O     0.70231   0.08704   0.24642   0.00000  Uiso   1.00
O150   O     0.92537   0.16901   0.17554   0.00000  Uiso   1.00
O151   O     0.68510   0.15976   0.16620   0.00000  Uiso   1.00
O152   O     0.87267   0.30934   0.26618   0.00000  Uiso   1.00
S153   S     0.92711   0.33139   0.30679   0.00000  Uiso   1.00
S154   S     0.78820   0.22373   0.09816   0.00000  Uiso   1.00
Zn155  Zn    0.93786   0.17284   0.25623   0.00000  Uiso   1.00
Zn156  Zn    0.72881   0.16049   0.24376   0.00000  Uiso   1.00
C157   C     0.01566   0.59834   0.25249   0.00000  Uiso   1.00
C158   C     0.05605   0.51240   0.41468   0.00000  Uiso   1.00
C159   C     0.02293   0.65313   0.25453   0.00000  Uiso   1.00
C160   C     0.03604   0.50362   0.35485   0.00000  Uiso   1.00
C161   C     0.31555   0.34968   0.26865   0.00000  Uiso   1.00
C162   C     0.31964   0.40221   0.25506   0.00000  Uiso   1.00
C163   C     0.29725   0.49618   0.14501   0.00000  Uiso   1.00
C164   C     0.25332   0.41480   0.01217   0.00000  Uiso   1.00
C165   C     0.27600   0.48338   0.08587   0.00000  Uiso   1.00
C166   C     0.03641   0.55464   0.44144   0.00000  Uiso   1.00
C167   C     0.06212   0.57085   0.49593   0.00000  Uiso   1.00
C168   C     0.13354   0.50576   0.49575   0.00000  Uiso   1.00
C169   C     0.10926   0.54629   0.02460   0.00000  Uiso   1.00
C170   C     0.10159   0.48529   0.44273   0.00000  Uiso   1.00
C171   C     0.18759   0.48445   0.01600   0.00000  Uiso   1.00
C172   C     0.20164   0.43751   0.49012   0.00000  Uiso   1.00
C173   C     0.16416   0.41391   0.44263   0.00000  Uiso   1.00
C174   C     0.11547   0.43811   0.41837   0.00000  Uiso   1.00
C175   C     0.22967   0.50952   0.05949   0.00000  Uiso   1.00
C176   C     0.28959   0.43689   0.06123   0.00000  Uiso   1.00
H177   H     0.32580   0.41621   0.08161   0.00000  Uiso   1.00
H178   H     0.05895   0.33541   0.23682   0.00000  Uiso   1.00
H179   H     0.20524   0.39170   0.32497   0.00000  Uiso   1.00
H180   H     0.10867   0.47486   0.10856   0.00000  Uiso   1.00
H181   H     0.15700   0.45496   0.21269   0.00000  Uiso   1.00
H182   H     0.17656   0.54322   0.28986   0.00000  Uiso   1.00
H183   H     0.17354   0.37759   0.42311   0.00000  Uiso   1.00
H184   H     0.26394   0.37871   0.49319   0.00000  Uiso   1.00
H185   H     0.22596   0.54835   0.07550   0.00000  Uiso   1.00
H186   H     0.00102   0.57536   0.42013   0.00000  Uiso   1.00
H187   H     0.04373   0.60199   0.01641   0.00000  Uiso   1.00
H188   H     0.08821   0.41921   0.38049   0.00000  Uiso   1.00
N189   N     0.14493   0.48556   0.23542   0.00000  Uiso   1.00
N190   N     0.18840   0.51444   0.26457   0.00000  Uiso   1.00
O191   O     0.29769   0.57963   0.25357   0.00000  Uiso   1.00
O192   O     0.28042   0.62466   0.34706   0.00000  Uiso   1.00
O193   O     0.24497   0.38381   0.34365   0.00000  Uiso   1.00
O194   O     0.16854   0.60039   0.11909   0.00000  Uiso   1.00
O195   O     0.06667   0.57226   0.11537   0.00000  Uiso   1.00
O196   O     0.14060   0.50144   0.12627   0.00000  Uiso   1.00
O197   O     0.05742   0.57038   0.24423   0.00000  Uiso   1.00
O198   O     0.31490   0.50691   0.33380   0.00000  Uiso   1.00
O199   O     0.07463   0.49766   0.32446   0.00000  Uiso   1.00
O200   O     0.27592   0.42962   0.25576   0.00000  Uiso   1.00
O201   O     0.03565   0.42037   0.24642   0.00000  Uiso   1.00
O202   O     0.25870   0.50234   0.17554   0.00000  Uiso   1.00
O203   O     0.01843   0.49309   0.16620   0.00000  Uiso   1.00
O204   O     0.20600   0.64267   0.26618   0.00000  Uiso   1.00
S205   S     0.26044   0.66472   0.30679   0.00000  Uiso   1.00
S206   S     0.12153   0.55706   0.09816   0.00000  Uiso   1.00
Zn207  Zn    0.27119   0.50618   0.25623   0.00000  Uiso   1.00
Zn208  Zn    0.06214   0.49382   0.24376   0.00000  Uiso   1.00
C209   C     0.34899   0.59834   0.25249   0.00000  Uiso   1.00
C210   C     0.38938   0.51240   0.41468   0.00000  Uiso   1.00
C211   C     0.35626   0.65313   0.25453   0.00000  Uiso   1.00
C212   C     0.36937   0.50362   0.35485   0.00000  Uiso   1.00
C213   C     0.64888   0.34968   0.26865   0.00000  Uiso   1.00
C214   C     0.65297   0.40221   0.25506   0.00000  Uiso   1.00
C215   C     0.63058   0.49618   0.14501   0.00000  Uiso   1.00
C216   C     0.58665   0.41480   0.01217   0.00000  Uiso   1.00
C217   C     0.60933   0.48338   0.08587   0.00000  Uiso   1.00
C218   C     0.36975   0.55464   0.44144   0.00000  Uiso   1.00
C219   C     0.39545   0.57085   0.49593   0.00000  Uiso   1.00
C220   C     0.46687   0.50576   0.49575   0.00000  Uiso   1.00
C221   C     0.44260   0.54629   0.02460   0.00000  Uiso   1.00
C222   C     0.43492   0.48529   0.44273   0.00000  Uiso   1.00
C223   C     0.52093   0.48445   0.01600   0.00000  Uiso   1.00
C224   C     0.53498   0.43751   0.49012   0.00000  Uiso   1.00
C225   C     0.49750   0.41391   0.44263   0.00000  Uiso   1.00
C226   C     0.44880   0.43811   0.41837   0.00000  Uiso   1.00
C227   C     0.56300   0.50952   0.05949   0.00000  Uiso   1.00
C228   C     0.62292   0.43689   0.06123   0.00000  Uiso   1.00
H229   H     0.65914   0.41621   0.08161   0.00000  Uiso   1.00
H230   H     0.39228   0.33541   0.23682   0.00000  Uiso   1.00
H231   H     0.53857   0.39170   0.32497   0.00000  Uiso   1.00
H232   H     0.44200   0.47486   0.10856   0.00000  Uiso   1.00
H233   H     0.49034   0.45496   0.21269   0.00000  Uiso   1.00
H234   H     0.50990   0.54322   0.28986   0.00000  Uiso   1.00
H235   H     0.50687   0.37759   0.42311   0.00000  Uiso   1.00
H236   H     0.59728   0.37871   0.49319   0.00000  Uiso   1.00
H237   H     0.55930   0.54835   0.07550   0.00000  Uiso   1.00
H238   H     0.33435   0.57536   0.42013   0.00000  Uiso   1.00
H239   H     0.37706   0.60199   0.01641   0.00000  Uiso   1.00
H240   H     0.42155   0.41921   0.38049   0.00000  Uiso   1.00
N241   N     0.47827   0.48556   0.23542   0.00000  Uiso   1.00
N242   N     0.52173   0.51444   0.26457   0.00000  Uiso   1.00
O243   O     0.63102   0.57963   0.25357   0.00000  Uiso   1.00
O244   O     0.61375   0.62466   0.34706   0.00000  Uiso   1.00
O245   O     0.57830   0.38381   0.34365   0.00000  Uiso   1.00
O246   O     0.50188   0.60039   0.11909   0.00000  Uiso   1.00
O247   O     0.40000   0.57226   0.11537   0.00000  Uiso   1.00
O248   O     0.47393   0.50144   0.12627   0.00000  Uiso   1.00
O249   O     0.39075   0.57038   0.24423   0.00000  Uiso   1.00
O250   O     0.64823   0.50691   0.33380   0.00000  Uiso   1.00
O251   O     0.40796   0.49766   0.32446   0.00000  Uiso   1.00
O252   O     0.60925   0.42962   0.25576   0.00000  Uiso   1.00
O253   O     0.36898   0.42037   0.24642   0.00000  Uiso   1.00
O254   O     0.59204   0.50234   0.17554   0.00000  Uiso   1.00
O255   O     0.35177   0.49309   0.16620   0.00000  Uiso   1.00
O256   O     0.53934   0.64267   0.26618   0.00000  Uiso   1.00
S257   S     0.59378   0.66472   0.30679   0.00000  Uiso   1.00
S258   S     0.45487   0.55706   0.09816   0.00000  Uiso   1.00
Zn259  Zn    0.60453   0.50618   0.25623   0.00000  Uiso   1.00
Zn260  Zn    0.39547   0.49382   0.24376   0.00000  Uiso   1.00
C261   C     0.68233   0.59834   0.25249   0.00000  Uiso   1.00
C262   C     0.72271   0.51240   0.41468   0.00000  Uiso   1.00
C263   C     0.68959   0.65313   0.25453   0.00000  Uiso   1.00
C264   C     0.70270   0.50362   0.35485   0.00000  Uiso   1.00
C265   C     0.98221   0.34968   0.26865   0.00000  Uiso   1.00
C266   C     0.98630   0.40221   0.25506   0.00000  Uiso   1.00
C267   C     0.96391   0.49618   0.14501   0.00000  Uiso   1.00
C268   C     0.91999   0.41480   0.01217   0.00000  Uiso   1.00
C269   C     0.94267   0.48338   0.08587   0.00000  Uiso   1.00
C270   C     0.70308   0.55464   0.44144   0.00000  Uiso   1.00
C271   C     0.72879   0.57085   0.49593   0.00000  Uiso   1.00
C272   C     0.80020   0.50576   0.49575   0.00000  Uiso   1.00
C273   C     0.77593   0.54629   0.02460   0.00000  Uiso   1.00
C274   C     0.76825   0.48529   0.44273   0.00000  Uiso   1.00
C275   C     0.85426   0.48445   0.01600   0.00000  Uiso   1.00
C276   C     0.86831   0.43751   0.49012   0.00000  Uiso   1.00
C277   C     0.83083   0.41391   0.44263   0.00000  Uiso   1.00
C278   C     0.78213   0.43811   0.41837   0.00000  Uiso   1.00
C279   C     0.89634   0.50952   0.05949   0.00000  Uiso   1.00
C280   C     0.95626   0.43689   0.06123   0.00000  Uiso   1.00
H281   H     0.99247   0.41621   0.08161   0.00000  Uiso   1.00
H282   H     0.72561   0.33541   0.23682   0.00000  Uiso   1.00
H283   H     0.87191   0.39170   0.32497   0.00000  Uiso   1.00
H284   H     0.77533   0.47486   0.10856   0.00000  Uiso   1.00
H285   H     0.82367   0.45496   0.21269   0.00000  Uiso   1.00
H286   H     0.84323   0.54322   0.28986   0.00000  Uiso   1.00
H287   H     0.84021   0.37759   0.42311   0.00000  Uiso   1.00
H288   H     0.93061   0.37871   0.49319   0.00000  Uiso   1.00
H289   H     0.89263   0.54835   0.07550   0.00000  Uiso   1.00
H290   H     0.66769   0.57536   0.42013   0.00000  Uiso   1.00
H291   H     0.71039   0.60199   0.01641   0.00000  Uiso   1.00
H292   H     0.75488   0.41921   0.38049   0.00000  Uiso   1.00
N293   N     0.81160   0.48556   0.23542   0.00000  Uiso   1.00
N294   N     0.85507   0.51444   0.26457   0.00000  Uiso   1.00
O295   O     0.96435   0.57963   0.25357   0.00000  Uiso   1.00
O296   O     0.94708   0.62466   0.34706   0.00000  Uiso   1.00
O297   O     0.91164   0.38381   0.34365   0.00000  Uiso   1.00
O298   O     0.83521   0.60039   0.11909   0.00000  Uiso   1.00
O299   O     0.73334   0.57226   0.11537   0.00000  Uiso   1.00
O300   O     0.80727   0.50144   0.12627   0.00000  Uiso   1.00
O301   O     0.72408   0.57038   0.24423   0.00000  Uiso   1.00
O302   O     0.98157   0.50691   0.33380   0.00000  Uiso   1.00
O303   O     0.74130   0.49766   0.32446   0.00000  Uiso   1.00
O304   O     0.94258   0.42962   0.25576   0.00000  Uiso   1.00
O305   O     0.70231   0.42037   0.24642   0.00000  Uiso   1.00
O306   O     0.92537   0.50234   0.17554   0.00000  Uiso   1.00
O307   O     0.68510   0.49309   0.16620   0.00000  Uiso   1.00
O308   O     0.87267   0.64267   0.26618   0.00000  Uiso   1.00
S309   S     0.92711   0.66472   0.30679   0.00000  Uiso   1.00
S310   S     0.78820   0.55706   0.09816   0.00000  Uiso   1.00
Zn311  Zn    0.93786   0.50618   0.25623   0.00000  Uiso   1.00
Zn312  Zn    0.72881   0.49382   0.24376   0.00000  Uiso   1.00
C313   C     0.01566   0.93167   0.25249   0.00000  Uiso   1.00
C314   C     0.05605   0.84574   0.41468   0.00000  Uiso   1.00
C315   C     0.02293   0.98646   0.25453   0.00000  Uiso   1.00
C316   C     0.03604   0.83695   0.35485   0.00000  Uiso   1.00
C317   C     0.31555   0.68302   0.26865   0.00000  Uiso   1.00
C318   C     0.31964   0.73554   0.25506   0.00000  Uiso   1.00
C319   C     0.29725   0.82951   0.14501   0.00000  Uiso   1.00
C320   C     0.25332   0.74813   0.01217   0.00000  Uiso   1.00
C321   C     0.27600   0.81672   0.08587   0.00000  Uiso   1.00
C322   C     0.03641   0.88798   0.44144   0.00000  Uiso   1.00
C323   C     0.06212   0.90418   0.49593   0.00000  Uiso   1.00
C324   C     0.13354   0.83909   0.49575   0.00000  Uiso   1.00
C325   C     0.10926   0.87962   0.02460   0.00000  Uiso   1.00
C326   C     0.10159   0.81862   0.44273   0.00000  Uiso   1.00
C327   C     0.18759   0.81779   0.01600   0.00000  Uiso   1.00
C328   C     0.20164   0.77084   0.49012   0.00000  Uiso   1.00
C329   C     0.16416   0.74724   0.44263   0.00000  Uiso   1.00
C330   C     0.11547   0.77144   0.41837   0.00000  Uiso   1.00
C331   C     0.22967   0.84285   0.05949   0.00000  Uiso   1.00
C332   C     0.28959   0.77022   0.06123   0.00000  Uiso   1.00
H333   H     0.32580   0.74955   0.08161   0.00000  Uiso   1.00
H334   H     0.05895   0.66874   0.23682   0.00000  Uiso   1.00
H335   H     0.20524   0.72503   0.32497   0.00000  Uiso   1.00
H336   H     0.10867   0.80819   0.10856   0.00000  Uiso   1.00
H337   H     0.15700   0.78829   0.21269   0.00000  Uiso   1.00
H338   H     0.17656   0.87655   0.28986   0.00000  Uiso   1.00
H339   H     0.17354   0.71092   0.42311   0.00000  Uiso   1.00
H340   H     0.26394   0.71204   0.49319   0.00000  Uiso   1.00
H341   H     0.22596   0.88169   0.07550   0.00000  Uiso   1.00
H342   H     0.00102   0.90869   0.42013   0.00000  Uiso   1.00
H343   H     0.04373   0.93532   0.01641   0.00000  Uiso   1.00
H344   H     0.08821   0.75255   0.38049   0.00000  Uiso   1.00
N345   N     0.14493   0.81890   0.23542   0.00000  Uiso   1.00
N346   N     0.18840   0.84777   0.26457   0.00000  Uiso   1.00
O347   O     0.29769   0.91296   0.25357   0.00000  Uiso   1.00
O348   O     0.28042   0.95800   0.34706   0.00000  Uiso   1.00
O349   O     0.24497   0.71715   0.34365   0.00000  Uiso   1.00
O350   O     0.16854   0.93372   0.11909   0.00000  Uiso   1.00
O351   O     0.06667   0.90559   0.11537   0.00000  Uiso   1.00
O352   O     0.14060   0.83477   0.12627   0.00000  Uiso   1.00
O353   O     0.05742   0.90371   0.24423   0.00000  Uiso   1.00
O354   O     0.31490   0.84024   0.33380   0.00000  Uiso   1.00
O355   O     0.07463   0.83099   0.32446   0.00000  Uiso   1.00
O356   O     0.27592   0.76296   0.25576   0.00000  Uiso   1.00
O357   O     0.03565   0.75371   0.24642   0.00000  Uiso   1.00
O358   O     0.25870   0.83567   0.17554   0.00000  Uiso   1.00
O359   O     0.01843   0.82642   0.16620   0.00000  Uiso   1.00
O360   O     0.20600   0.97601   0.26618   0.00000  Uiso   1.00
S361   S     0.26044   0.99805   0.30679   0.00000  Uiso   1.00
S362   S     0.12153   0.89039   0.09816   0.00000  Uiso   1.00
Zn363  Zn    0.27119   0.83951   0.25623   0.00000  Uiso   1.00
Zn364  Zn    0.06214   0.82716   0.24376   0.00000  Uiso   1.00
C365   C     0.34899   0.93167   0.25249   0.00000  Uiso   1.00
C366   C     0.38938   0.84574   0.41468   0.00000  Uiso   1.00
C367   C     0.35626   0.98646   0.25453   0.00000  Uiso   1.00
C368   C     0.36937   0.83695   0.35485   0.00000  Uiso   1.00
C369   C     0.64888   0.68302   0.26865   0.00000  Uiso   1.00
C370   C     0.65297   0.73554   0.25506   0.00000  Uiso   1.00
C371   C     0.63058   0.82951   0.14501   0.00000  Uiso   1.00
C372   C     0.58665   0.74813   0.01217   0.00000  Uiso   1.00
C373   C     0.60933   0.81672   0.08587   0.00000  Uiso   1.00
C374   C     0.36975   0.88798   0.44144   0.00000  Uiso   1.00
C375   C     0.39545   0.90418   0.49593   0.00000  Uiso   1.00
C376   C     0.46687   0.83909   0.49575   0.00000  Uiso   1.00
C377   C     0.44260   0.87962   0.02460   0.00000  Uiso   1.00
C378   C     0.43492   0.81862   0.44273   0.00000  Uiso   1.00
C379   C     0.52093   0.81779   0.01600   0.00000  Uiso   1.00
C380   C     0.53498   0.77084   0.49012   0.00000  Uiso   1.00
C381   C     0.49750   0.74724   0.44263   0.00000  Uiso   1.00
C382   C     0.44880   0.77144   0.41837   0.00000  Uiso   1.00
C383   C     0.56300   0.84285   0.05949   0.00000  Uiso   1.00
C384   C     0.62292   0.77022   0.06123   0.00000  Uiso   1.00
H385   H     0.65914   0.74955   0.08161   0.00000  Uiso   1.00
H386   H     0.39228   0.66874   0.23682   0.00000  Uiso   1.00
H387   H     0.53857   0.72503   0.32497   0.00000  Uiso   1.00
H388   H     0.44200   0.80819   0.10856   0.00000  Uiso   1.00
H389   H     0.49034   0.78829   0.21269   0.00000  Uiso   1.00
H390   H     0.50990   0.87655   0.28986   0.00000  Uiso   1.00
H391   H     0.50687   0.71092   0.42311   0.00000  Uiso   1.00
H392   H     0.59728   0.71204   0.49319   0.00000  Uiso   1.00
H393   H     0.55930   0.88169   0.07550   0.00000  Uiso   1.00
H394   H     0.33435   0.90869   0.42013   0.00000  Uiso   1.00
H395   H     0.37706   0.93532   0.01641   0.00000  Uiso   1.00
H396   H     0.42155   0.75255   0.38049   0.00000  Uiso   1.00
N397   N     0.47827   0.81890   0.23542   0.00000  Uiso   1.00
N398   N     0.52173   0.84777   0.26457   0.00000  Uiso   1.00
O399   O     0.63102   0.91296   0.25357   0.00000  Uiso   1.00
O400   O     0.61375   0.95800   0.34706   0.00000  Uiso   1.00
O401   O     0.57830   0.71715   0.34365   0.00000  Uiso   1.00
O402   O     0.50188   0.93372   0.11909   0.00000  Uiso   1.00
O403   O     0.40000   0.90559   0.11537   0.00000  Uiso   1.00
O404   O     0.47393   0.83477   0.12627   0.00000  Uiso   1.00
O405   O     0.39075   0.90371   0.24423   0.00000  Uiso   1.00
O406   O     0.64823   0.84024   0.33380   0.00000  Uiso   1.00
O407   O     0.40796   0.83099   0.32446   0.00000  Uiso   1.00
O408   O     0.60925   0.76296   0.25576   0.00000  Uiso   1.00
O409   O     0.36898   0.75371   0.24642   0.00000  Uiso   1.00
O410   O     0.59204   0.83567   0.17554   0.00000  Uiso   1.00
O411   O     0.35177   0.82642   0.16620   0.00000  Uiso   1.00
O412   O     0.53934   0.97601   0.26618   0.00000  Uiso   1.00
S413   S     0.59378   0.99805   0.30679   0.00000  Uiso   1.00
S414   S     0.45487   0.89039   0.09816   0.00000  Uiso   1.00
Zn415  Zn    0.60453   0.83951   0.25623   0.00000  Uiso   1.00
Zn416  Zn    0.39547   0.82716   0.24376   0.00000  Uiso   1.00
C417   C     0.68233   0.93167   0.25249   0.00000  Uiso   1.00
C418   C     0.72271   0.84574   0.41468   0.00000  Uiso   1.00
C419   C     0.68959   0.98646   0.25453   0.00000  Uiso   1.00
C420   C     0.70270   0.83695   0.35485   0.00000  Uiso   1.00
C421   C     0.98221   0.68302   0.26865   0.00000  Uiso   1.00
C422   C     0.98630   0.73554   0.25506   0.00000  Uiso   1.00
C423   C     0.96391   0.82951   0.14501   0.00000  Uiso   1.00
C424   C     0.91999   0.74813   0.01217   0.00000  Uiso   1.00
C425   C     0.94267   0.81672   0.08587   0.00000  Uiso   1.00
C426   C     0.70308   0.88798   0.44144   0.00000  Uiso   1.00
C427   C     0.72879   0.90418   0.49593   0.00000  Uiso   1.00
C428   C     0.80020   0.83909   0.49575   0.00000  Uiso   1.00
C429   C     0.77593   0.87962   0.02460   0.00000  Uiso   1.00
C430   C     0.76825   0.81862   0.44273   0.00000  Uiso   1.00
C431   C     0.85426   0.81779   0.01600   0.00000  Uiso   1.00
C432   C     0.86831   0.77084   0.49012   0.00000  Uiso   1.00
C433   C     0.83083   0.74724   0.44263   0.00000  Uiso   1.00
C434   C     0.78213   0.77144   0.41837   0.00000  Uiso   1.00
C435   C     0.89634   0.84285   0.05949   0.00000  Uiso   1.00
C436   C     0.95626   0.77022   0.06123   0.00000  Uiso   1.00
H437   H     0.99247   0.74955   0.08161   0.00000  Uiso   1.00
H438   H     0.72561   0.66874   0.23682   0.00000  Uiso   1.00
H439   H     0.87191   0.72503   0.32497   0.00000  Uiso   1.00
H440   H     0.77533   0.80819   0.10856   0.00000  Uiso   1.00
H441   H     0.82367   0.78829   0.21269   0.00000  Uiso   1.00
H442   H     0.84323   0.87655   0.28986   0.00000  Uiso   1.00
H443   H     0.84021   0.71092   0.42311   0.00000  Uiso   1.00
H444   H     0.93061   0.71204   0.49319   0.00000  Uiso   1.00
H445   H     0.89263   0.88169   0.07550   0.00000  Uiso   1.00
H446   H     0.66769   0.90869   0.42013   0.00000  Uiso   1.00
H447   H     0.71039   0.93532   0.01641   0.00000  Uiso   1.00
H448   H     0.75488   0.75255   0.38049   0.00000  Uiso   1.00
N449   N     0.81160   0.81890   0.23542   0.00000  Uiso   1.00
N450   N     0.85507   0.84777   0.26457   0.00000  Uiso   1.00
O451   O     0.96435   0.91296   0.25357   0.00000  Uiso   1.00
O452   O     0.94708   0.95800   0.34706   0.00000  Uiso   1.00
O453   O     0.91164   0.71715   0.34365   0.00000  Uiso   1.00
O454   O     0.83521   0.93372   0.11909   0.00000  Uiso   1.00
O455   O     0.73334   0.90559   0.11537   0.00000  Uiso   1.00
O456   O     0.80727   0.83477   0.12627   0.00000  Uiso   1.00
O457   O     0.72408   0.90371   0.24423   0.00000  Uiso   1.00
O458   O     0.98157   0.84024   0.33380   0.00000  Uiso   1.00
O459   O     0.74130   0.83099   0.32446   0.00000  Uiso   1.00
O460   O     0.94258   0.76296   0.25576   0.00000  Uiso   1.00
O461   O     0.70231   0.75371   0.24642   0.00000  Uiso   1.00
O462   O     0.92537   0.83567   0.17554   0.00000  Uiso   1.00
O463   O     0.68510   0.82642   0.16620   0.00000  Uiso   1.00
O464   O     0.87267   0.97601   0.26618   0.00000  Uiso   1.00
S465   S     0.92711   0.99805   0.30679   0.00000  Uiso   1.00
S466   S     0.78820   0.89039   0.09816   0.00000  Uiso   1.00
Zn467  Zn    0.93786   0.83951   0.25623   0.00000  Uiso   1.00
Zn468  Zn    0.72881   0.82716   0.24376   0.00000  Uiso   1.00
C469   C     0.01566   0.26500   0.75249   0.00000  Uiso   1.00
C470   C     0.05605   0.17907   0.91468   0.00000  Uiso   1.00
C471   C     0.02293   0.31979   0.75453   0.00000  Uiso   1.00
C472   C     0.03604   0.17028   0.85485   0.00000  Uiso   1.00
C473   C     0.31555   0.01635   0.76865   0.00000  Uiso   1.00
C474   C     0.31964   0.06887   0.75506   0.00000  Uiso   1.00
C475   C     0.29725   0.16284   0.64501   0.00000  Uiso   1.00
C476   C     0.25332   0.08147   0.51217   0.00000  Uiso   1.00
C477   C     0.27600   0.15005   0.58587   0.00000  Uiso   1.00
C478   C     0.03641   0.22131   0.94144   0.00000  Uiso   1.00
C479   C     0.06212   0.23751   0.99593   0.00000  Uiso   1.00
C480   C     0.13354   0.17243   0.99575   0.00000  Uiso   1.00
C481   C     0.10926   0.21295   0.52460   0.00000  Uiso   1.00
C482   C     0.10159   0.15196   0.94273   0.00000  Uiso   1.00
C483   C     0.18759   0.15112   0.51600   0.00000  Uiso   1.00
C484   C     0.20164   0.10417   0.99012   0.00000  Uiso   1.00
C485   C     0.16416   0.08057   0.94263   0.00000  Uiso   1.00
C486   C     0.11547   0.10478   0.91837   0.00000  Uiso   1.00
C487   C     0.22967   0.17619   0.55949   0.00000  Uiso   1.00
C488   C     0.28959   0.10355   0.56123   0.00000  Uiso   1.00
H489   H     0.32580   0.08288   0.58161   0.00000  Uiso   1.00
H490   H     0.05895   0.00207   0.73682   0.00000  Uiso   1.00
H491   H     0.20524   0.05836   0.82497   0.00000  Uiso   1.00
H492   H     0.10867   0.14153   0.60856   0.00000  Uiso   1.00
H493   H     0.15700   0.12162   0.71269   0.00000  Uiso   1.00
H494   H     0.17656   0.20989   0.78986   0.00000  Uiso   1.00
H495   H     0.17354   0.04426   0.92311   0.00000  Uiso   1.00
H496   H     0.26394   0.04538   0.99319   0.00000  Uiso   1.00
H497   H     0.22596   0.21502   0.57550   0.00000  Uiso   1.00
H498   H     0.00102   0.24202   0.92013   0.00000  Uiso   1.00
H499   H     0.04373   0.26866   0.51641   0.00000  Uiso   1.00
H500   H     0.08821   0.08588   0.88049   0.00000  Uiso   1.00
N501   N     0.14493   0.15223   0.73542   0.00000  Uiso   1.00
N502   N     0.18840   0.18110   0.76457   0.00000  Uiso   1.00
O503   O     0.29769   0.24629   0.75357   0.00000  Uiso   1.00
O504   O     0.28042   0.29133   0.84706   0.00000  Uiso   1.00
O505   O     0.24497   0.05048   0.84365   0.00000  Uiso   1.00
O506   O     0.16854   0.26706   0.61909   0.00000  Uiso   1.00
O507   O     0.06667   0.23893   0.61537   0.00000  Uiso   1.00
O508   O     0.14060   0.16811   0.62627   0.00000  Uiso   1.00
O509   O     0.05742   0.23704   0.74423   0.00000  Uiso   1.00
O510   O     0.31490   0.17358   0.83380   0.00000  Uiso   1.00
O511   O     0.07463   0.16433   0.82446   0.00000  Uiso   1.00
O512   O     0.27592   0.09629   0.75576   0.00000  Uiso   1.00
O513   O     0.03565   0.08704   0.74642   0.00000  Uiso   1.00
O514   O     0.25870   0.16901   0.67554   0.00000  Uiso   1.00
O515   O     0.01843   0.15976   0.66620   0.00000  Uiso   1.00
O516   O     0.20600   0.30934   0.76618   0.00000  Uiso   1.00
S517   S     0.26044   0.33139   0.80679   0.00000  Uiso   1.00
S518   S     0.12153   0.22373   0.59816   0.00000  Uiso   1.00
Zn519  Zn    0.27119   0.17284   0.75623   0.00000  Uiso   1.00
Zn520  Zn    0.06214   0.16049   0.74376   0.00000  Uiso   1.00
C521   C     0.34899   0.26500   0.75249   0.00000  Uiso   1.00
C522   C     0.38938   0.17907   0.91468   0.00000  Uiso   1.00
C523   C     0.35626   0.31979   0.75453   0.00000  Uiso   1.00
C524   C     0.36937   0.17028   0.85485   0.00000  Uiso   1.00
C525   C     0.64888   0.01635   0.76865   0.00000  Uiso   1.00
C526   C     0.65297   0.06887   0.75506   0.00000  Uiso   1.00
C527   C     0.63058   0.16284   0.64501   0.00000  Uiso   1.00
C528   C     0.58665   0.08147   0.51217   0.00000  Uiso   1.00
C529   C     0.60933   0.15005   0.58587   0.00000  Uiso   1.00
C530   C     0.36975   0.22131   0.94144   0.00000  Uiso   1.00
C531   C     0.39545   0.23751   0.99593   0.00000  Uiso   1.00
C532   C     0.46687   0.17243   0.99575   0.00000  Uiso   1.00
C533   C     0.44260   0.21295   0.52460   0.00000  Uiso   1.00
C534   C     0.43492   0.15196   0.94273   0.00000  Uiso   1.00
C535   C     0.52093   0.15112   0.51600   0.00000  Uiso   1.00
C536   C     0.53498   0.10417   0.99012   0.00000  Uiso   1.00
C537   C     0.49750   0.08057   0.94263   0.00000  Uiso   1.00
C538   C     0.44880   0.10478   0.91837   0.00000  Uiso   1.00
C539   C     0.56300   0.17619   0.55949   0.00000  Uiso   1.00
C540   C     0.62292   0.10355   0.56123   0.00000  Uiso   1.00
H541   H     0.65914   0.08288   0.58161   0.00000  Uiso   1.00
H542   H     0.39228   0.00207   0.73682   0.00000  Uiso   1.00
H543   H     0.53857   0.05836   0.82497   0.00000  Uiso   1.00
H544   H     0.44200   0.14153   0.60856   0.00000  Uiso   1.00
H545   H     0.49034   0.12162   0.71269   0.00000  Uiso   1.00
H546   H     0.50990   0.20989   0.78986   0.00000  Uiso   1.00
H547   H     0.50687   0.04426   0.92311   0.00000  Uiso   1.00
H548   H     0.59728   0.04538   0.99319   0.00000  Uiso   1.00
H549   H     0.55930   0.21502   0.57550   0.00000  Uiso   1.00
H550   H     0.33435   0.24202   0.92013   0.00000  Uiso   1.00
H551   H     0.37706   0.26866   0.51641   0.00000  Uiso   1.00
H552   H     0.42155   0.08588   0.88049   0.00000  Uiso   1.00
N553   N     0.47827   0.15223   0.73542   0.00000  Uiso   1.00
N554   N     0.52173   0.18110   0.76457   0.00000  Uiso   1.00
O555   O     0.63102   0.24629   0.75357   0.00000  Uiso   1.00
O556   O     0.61375   0.29133   0.84706   0.00000  Uiso   1.00
O557   O     0.57830   0.05048   0.84365   0.00000  Uiso   1.00
O558   O     0.50188   0.26706   0.61909   0.00000  Uiso   1.00
O559   O     0.40000   0.23893   0.61537   0.00000  Uiso   1.00
O560   O     0.47393   0.16811   0.62627   0.00000  Uiso   1.00
O561   O     0.39075   0.23704   0.74423   0.00000  Uiso   1.00
O562   O     0.64823   0.17358   0.83380   0.00000  Uiso   1.00
O563   O     0.40796   0.16433   0.82446   0.00000  Uiso   1.00
O564   O     0.60925   0.09629   0.75576   0.00000  Uiso   1.00
O565   O     0.36898   0.08704   0.74642   0.00000  Uiso   1.00
O566   O     0.59204   0.16901   0.67554   0.00000  Uiso   1.00
O567   O     0.35177   0.15976   0.66620   0.00000  Uiso   1.00
O568   O     0.53934   0.30934   0.76618   0.00000  Uiso   1.00
S569   S     0.59378   0.33139   0.80679   0.00000  Uiso   1.00
S570   S     0.45487   0.22373   0.59816   0.00000  Uiso   1.00
Zn571  Zn    0.60453   0.17284   0.75623   0.00000  Uiso   1.00
Zn572  Zn    0.39547   0.16049   0.74376   0.00000  Uiso   1.00
C573   C     0.68233   0.26500   0.75249   0.00000  Uiso   1.00
C574   C     0.72271   0.17907   0.91468   0.00000  Uiso   1.00
C575   C     0.68959   0.31979   0.75453   0.00000  Uiso   1.00
C576   C     0.70270   0.17028   0.85485   0.00000  Uiso   1.00
C577   C     0.98221   0.01635   0.76865   0.00000  Uiso   1.00
C578   C     0.98630   0.06887   0.75506   0.00000  Uiso   1.00
C579   C     0.96391   0.16284   0.64501   0.00000  Uiso   1.00
C580   C     0.91999   0.08147   0.51217   0.00000  Uiso   1.00
C581   C     0.94267   0.15005   0.58587   0.00000  Uiso   1.00
C582   C     0.70308   0.22131   0.94144   0.00000  Uiso   1.00
C583   C     0.72879   0.23751   0.99593   0.00000  Uiso   1.00
C584   C     0.80020   0.17243   0.99575   0.00000  Uiso   1.00
C585   C     0.77593   0.21295   0.52460   0.00000  Uiso   1.00
C586   C     0.76825   0.15196   0.94273   0.00000  Uiso   1.00
C587   C     0.85426   0.15112   0.51600   0.00000  Uiso   1.00
C588   C     0.86831   0.10417   0.99012   0.00000  Uiso   1.00
C589   C     0.83083   0.08057   0.94263   0.00000  Uiso   1.00
C590   C     0.78213   0.10478   0.91837   0.00000  Uiso   1.00
C591   C     0.89634   0.17619   0.55949   0.00000  Uiso   1.00
C592   C     0.95626   0.10355   0.56123   0.00000  Uiso   1.00
H593   H     0.99247   0.08288   0.58161   0.00000  Uiso   1.00
H594   H     0.72561   0.00207   0.73682   0.00000  Uiso   1.00
H595   H     0.87191   0.05836   0.82497   0.00000  Uiso   1.00
H596   H     0.77533   0.14153   0.60856   0.00000  Uiso   1.00
H597   H     0.82367   0.12162   0.71269   0.00000  Uiso   1.00
H598   H     0.84323   0.20989   0.78986   0.00000  Uiso   1.00
H599   H     0.84021   0.04426   0.92311   0.00000  Uiso   1.00
H600   H     0.93061   0.04538   0.99319   0.00000  Uiso   1.00
H601   H     0.89263   0.21502   0.57550   0.00000  Uiso   1.00
H602   H     0.66769   0.24202   0.92013   0.00000  Uiso   1.00
H603   H     0.71039   0.26866   0.51641   0.00000  Uiso   1.00
H604   H     0.75488   0.08588   0.88049   0.00000  Uiso   1.00
N605   N     0.81160   0.15223   0.73542   0.00000  Uiso   1.00
N606   N     0.85507   0.18110   0.76457   0.00000  Uiso   1.00
O607   O     0.96435   0.24629   0.75357   0.00000  Uiso   1.00
O608   O     0.94708   0.29133   0.84706   0.00000  Uiso   1.00
O609   O     0.91164   0.05048   0.84365   0.00000  Uiso   1.00
O610   O     0.83521   0.26706   0.61909   0.00000  Uiso   1.00
O611   O     0.73334   0.23893   0.61537   0.00000  Uiso   1.00
O612   O     0.80727   0.16811   0.62627   0.00000  Uiso   1.00
O613   O     0.72408   0.23704   0.74423   0.00000  Uiso   1.00
O614   O     0.98157   0.17358   0.83380   0.00000  Uiso   1.00
O615   O     0.74130   0.16433   0.82446   0.00000  Uiso   1.00
O616   O     0.94258   0.09629   0.75576   0.00000  Uiso   1.00
O617   O     0.70231   0.08704   0.74642   0.00000  Uiso   1.00
O618   O     0.92537   0.16901   0.67554   0.00000  Uiso   1.00
O619   O     0.68510   0.15976   0.66620   0.00000  Uiso   1.00
O620   O     0.87267   0.30934   0.76618   0.00000  Uiso   1.00
S621   S     0.92711   0.33139   0.80679   0.00000  Uiso   1.00
S622   S     0.78820   0.22373   0.59816   0.00000  Uiso   1.00
Zn623  Zn    0.93786   0.17284   0.75623   0.00000  Uiso   1.00
Zn624  Zn    0.72881   0.16049   0.74376   0.00000  Uiso   1.00
C625   C     0.01566   0.59834   0.75249   0.00000  Uiso   1.00
C626   C     0.05605   0.51240   0.91468   0.00000  Uiso   1.00
C627   C     0.02293   0.65313   0.75453   0.00000  Uiso   1.00
C628   C     0.03604   0.50362   0.85485   0.00000  Uiso   1.00
C629   C     0.31555   0.34968   0.76865   0.00000  Uiso   1.00
C630   C     0.31964   0.40221   0.75506   0.00000  Uiso   1.00
C631   C     0.29725   0.49618   0.64501   0.00000  Uiso   1.00
C632   C     0.25332   0.41480   0.51217   0.00000  Uiso   1.00
C633   C     0.27600   0.48338   0.58587   0.00000  Uiso   1.00
C634   C     0.03641   0.55464   0.94144   0.00000  Uiso   1.00
C635   C     0.06212   0.57085   0.99593   0.00000  Uiso   1.00
C636   C     0.13354   0.50576   0.99575   0.00000  Uiso   1.00
C637   C     0.10926   0.54629   0.52460   0.00000  Uiso   1.00
C638   C     0.10159   0.48529   0.94273   0.00000  Uiso   1.00
C639   C     0.18759   0.48445   0.51600   0.00000  Uiso   1.00
C640   C     0.20164   0.43751   0.99012   0.00000  Uiso   1.00
C641   C     0.16416   0.41391   0.94263   0.00000  Uiso   1.00
C642   C     0.11547   0.43811   0.91837   0.00000  Uiso   1.00
C643   C     0.22967   0.50952   0.55949   0.00000  Uiso   1.00
C644   C     0.28959   0.43689   0.56123   0.00000  Uiso   1.00
H645   H     0.32580   0.41621   0.58161   0.00000  Uiso   1.00
H646   H     0.05895   0.33541   0.73682   0.00000  Uiso   1.00
H647   H     0.20524   0.39170   0.82497   0.00000  Uiso   1.00
H648   H     0.10867   0.47486   0.60856   0.00000  Uiso   1.00
H649   H     0.15700   0.45496   0.71269   0.00000  Uiso   1.00
H650   H     0.17656   0.54322   0.78986   0.00000  Uiso   1.00
H651   H     0.17354   0.37759   0.92311   0.00000  Uiso   1.00
H652   H     0.26394   0.37871   0.99319   0.00000  Uiso   1.00
H653   H     0.22596   0.54835   0.57550   0.00000  Uiso   1.00
H654   H     0.00102   0.57536   0.92013   0.00000  Uiso   1.00
H655   H     0.04373   0.60199   0.51641   0.00000  Uiso   1.00
H656   H     0.08821   0.41921   0.88049   0.00000  Uiso   1.00
N657   N     0.14493   0.48556   0.73542   0.00000  Uiso   1.00
N658   N     0.18840   0.51444   0.76457   0.00000  Uiso   1.00
O659   O     0.29769   0.57963   0.75357   0.00000  Uiso   1.00
O660   O     0.28042   0.62466   0.84706   0.00000  Uiso   1.00
O661   O     0.24497   0.38381   0.84365   0.00000  Uiso   1.00
O662   O     0.16854   0.60039   0.61909   0.00000  Uiso   1.00
O663   O     0.06667   0.57226   0.61537   0.00000  Uiso   1.00
O664   O     0.14060   0.50144   0.62627   0.00000  Uiso   1.00
O665   O     0.05742   0.57038   0.74423   0.00000  Uiso   1.00
O666   O     0.31490   0.50691   0.83380   0.00000  Uiso   1.00
O667   O     0.07463   0.49766   0.82446   0.00000  Uiso   1.00
O668   O     0.27592   0.42962   0.75576   0.00000  Uiso   1.00
O669   O     0.03565   0.42037   0.74642   0.00000  Uiso   1.00
O670   O     0.25870   0.50234   0.67554   0.00000  Uiso   1.00
O671   O     0.01843   0.49309   0.66620   0.00000  Uiso   1.00
O672   O     0.20600   0.64267   0.76618   0.00000  Uiso   1.00
S673   S     0.26044   0.66472   0.80679   0.00000  Uiso   1.00
S674   S     0.12153   0.55706   0.59816   0.00000  Uiso   1.00
Zn675  Zn    0.27119   0.50618   0.75623   0.00000  Uiso   1.00
Zn676  Zn    0.06214   0.49382   0.74376   0.00000  Uiso   1.00
C677   C     0.34899   0.59834   0.75249   0.00000  Uiso   1.00
C678   C     0.38938   0.51240   0.91468   0.00000  Uiso   1.00
C679   C     0.35626   0.65313   0.75453   0.00000  Uiso   1.00
C680   C     0.36937   0.50362   0.85485   0.00000  Uiso   1.00
C681   C     0.64888   0.34968   0.76865   0.00000  Uiso   1.00
C682   C     0.65297   0.40221   0.75506   0.00000  Uiso   1.00
C683   C     0.63058   0.49618   0.64501   0.00000  Uiso   1.00
C684   C     0.58665   0.41480   0.51217   0.00000  Uiso   1.00
C685   C     0.60933   0.48338   0.58587   0.00000  Uiso   1.00
C686   C     0.36975   0.55464   0.94144   0.00000  Uiso   1.00
C687   C     0.39545   0.57085   0.99593   0.00000  Uiso   1.00
C688   C     0.46687   0.50576   0.99575   0.00000  Uiso   1.00
C689   C     0.44260   0.54629   0.52460   0.00000  Uiso   1.00
C690   C     0.43492   0.48529   0.94273   0.00000  Uiso   1.00
C691   C     0.52093   0.48445   0.51600   0.00000  Uiso   1.00
C692   C     0.53498   0.43751   0.99012   0.00000  Uiso   1.00
C693   C     0.49750   0.41391   0.94263   0.00000  Uiso   1.00
C694   C     0.44880   0.43811   0.91837   0.00000  Uiso   1.00
C695   C     0.56300   0.50952   0.55949   0.00000  Uiso   1.00
C696   C     0.62292   0.43689   0.56123   0.00000  Uiso   1.00
H697   H     0.65914   0.41621   0.58161   0.00000  Uiso   1.00
H698   H     0.39228   0.33541   0.73682   0.00000  Uiso   1.00
H699   H     0.53857   0.39170   0.82497   0.00000  Uiso   1.00
H700   H     0.44200   0.47486   0.60856   0.00000  Uiso   1.00
H701   H     0.49034   0.45496   0.71269   0.00000  Uiso   1.00
H702   H     0.50990   0.54322   0.78986   0.00000  Uiso   1.00
H703   H     0.50687   0.37759   0.92311   0.00000  Uiso   1.00
H704   H     0.59728   0.37871   0.99319   0.00000  Uiso   1.00
H705   H     0.55930   0.54835   0.57550   0.00000  Uiso   1.00
H706   H     0.33435   0.57536   0.92013   0.00000  Uiso   1.00
H707   H     0.37706   0.60199   0.51641   0.00000  Uiso   1.00
H708   H     0.42155   0.41921   0.88049   0.00000  Uiso   1.00
N709   N     0.47827   0.48556   0.73542   0.00000  Uiso   1.00
N710   N     0.52173   0.51444   0.76457   0.00000  Uiso   1.00
O711   O     0.63102   0.57963   0.75357   0.00000  Uiso   1.00
O712   O     0.61375   0.62466   0.84706   0.00000  Uiso   1.00
O713   O     0.57830   0.38381   0.84365   0.00000  Uiso   1.00
O714   O     0.50188   0.60039   0.61909   0.00000  Uiso   1.00
O715   O     0.40000   0.57226   0.61537   0.00000  Uiso   1.00
O716   O     0.47393   0.50144   0.62627   0.00000  Uiso   1.00
O717   O     0.39075   0.57038   0.74423   0.00000  Uiso   1.00
O718   O     0.64823   0.50691   0.83380   0.00000  Uiso   1.00
O719   O     0.40796   0.49766   0.82446   0.00000  Uiso   1.00
O720   O     0.60925   0.42962   0.75576   0.00000  Uiso   1.00
O721   O     0.36898   0.42037   0.74642   0.00000  Uiso   1.00
O722   O     0.59204   0.50234   0.67554   0.00000  Uiso   1.00
O723   O     0.35177   0.49309   0.66620   0.00000  Uiso   1.00
O724   O     0.53934   0.64267   0.76618   0.00000  Uiso   1.00
S725   S     0.59378   0.66472   0.80679   0.00000  Uiso   1.00
S726   S     0.45487   0.55706   0.59816   0.00000  Uiso   1.00
Zn727  Zn    0.60453   0.50618   0.75623   0.00000  Uiso   1.00
Zn728  Zn    0.39547   0.49382   0.74376   0.00000  Uiso   1.00
C729   C     0.68233   0.59834   0.75249   0.00000  Uiso   1.00
C730   C     0.72271   0.51240   0.91468   0.00000  Uiso   1.00
C731   C     0.68959   0.65313   0.75453   0.00000  Uiso   1.00
C732   C     0.70270   0.50362   0.85485   0.00000  Uiso   1.00
C733   C     0.98221   0.34968   0.76865   0.00000  Uiso   1.00
C734   C     0.98630   0.40221   0.75506   0.00000  Uiso   1.00
C735   C     0.96391   0.49618   0.64501   0.00000  Uiso   1.00
C736   C     0.91999   0.41480   0.51217   0.00000  Uiso   1.00
C737   C     0.94267   0.48338   0.58587   0.00000  Uiso   1.00
C738   C     0.70308   0.55464   0.94144   0.00000  Uiso   1.00
C739   C     0.72879   0.57085   0.99593   0.00000  Uiso   1.00
C740   C     0.80020   0.50576   0.99575   0.00000  Uiso   1.00
C741   C     0.77593   0.54629   0.52460   0.00000  Uiso   1.00
C742   C     0.76825   0.48529   0.94273   0.00000  Uiso   1.00
C743   C     0.85426   0.48445   0.51600   0.00000  Uiso   1.00
C744   C     0.86831   0.43751   0.99012   0.00000  Uiso   1.00
C745   C     0.83083   0.41391   0.94263   0.00000  Uiso   1.00
C746   C     0.78213   0.43811   0.91837   0.00000  Uiso   1.00
C747   C     0.89634   0.50952   0.55949   0.00000  Uiso   1.00
C748   C     0.95626   0.43689   0.56123   0.00000  Uiso   1.00
H749   H     0.99247   0.41621   0.58161   0.00000  Uiso   1.00
H750   H     0.72561   0.33541   0.73682   0.00000  Uiso   1.00
H751   H     0.87191   0.39170   0.82497   0.00000  Uiso   1.00
H752   H     0.77533   0.47486   0.60856   0.00000  Uiso   1.00
H753   H     0.82367   0.45496   0.71269   0.00000  Uiso   1.00
H754   H     0.84323   0.54322   0.78986   0.00000  Uiso   1.00
H755   H     0.84021   0.37759   0.92311   0.00000  Uiso   1.00
H756   H     0.93061   0.37871   0.99319   0.00000  Uiso   1.00
H757   H     0.89263   0.54835   0.57550   0.00000  Uiso   1.00
H758   H     0.66769   0.57536   0.92013   0.00000  Uiso   1.00
H759   H     0.71039   0.60199   0.51641   0.00000  Uiso   1.00
H760   H     0.75488   0.41921   0.88049   0.00000  Uiso   1.00
N761   N     0.81160   0.48556   0.73542   0.00000  Uiso   1.00
N762   N     0.85507   0.51444   0.76457   0.00000  Uiso   1.00
O763   O     0.96435   0.57963   0.75357   0.00000  Uiso   1.00
O764   O     0.94708   0.62466   0.84706   0.00000  Uiso   1.00
O765   O     0.91164   0.38381   0.84365   0.00000  Uiso   1.00
O766   O     0.83521   0.60039   0.61909   0.00000  Uiso   1.00
O767   O     0.73334   0.57226   0.61537   0.00000  Uiso   1.00
O768   O     0.80727   0.50144   0.62627   0.00000  Uiso   1.00
O769   O     0.72408   0.57038   0.74423   0.00000  Uiso   1.00
O770   O     0.98157   0.50691   0.83380   0.00000  Uiso   1.00
O771   O     0.74130   0.49766   0.82446   0.00000  Uiso   1.00
O772   O     0.94258   0.42962   0.75576   0.00000  Uiso   1.00
O773   O     0.70231   0.42037   0.74642   0.00000  Uiso   1.00
O774   O     0.92537   0.50234   0.67554   0.00000  Uiso   1.00
O775   O     0.68510   0.49309   0.66620   0.00000  Uiso   1.00
O776   O     0.87267   0.64267   0.76618   0.00000  Uiso   1.00
S777   S     0.92711   0.66472   0.80679   0.00000  Uiso   1.00
S778   S     0.78820   0.55706   0.59816   0.00000  Uiso   1.00
Zn779  Zn    0.93786   0.50618   0.75623   0.00000  Uiso   1.00
Zn780  Zn    0.72881   0.49382   0.74376   0.00000  Uiso   1.00
C781   C     0.01566   0.93167   0.75249   0.00000  Uiso   1.00
C782   C     0.05605   0.84574   0.91468   0.00000  Uiso   1.00
C783   C     0.02293   0.98646   0.75453   0.00000  Uiso   1.00
C784   C     0.03604   0.83695   0.85485   0.00000  Uiso   1.00
C785   C     0.31555   0.68302   0.76865   0.00000  Uiso   1.00
C786   C     0.31964   0.73554   0.75506   0.00000  Uiso   1.00
C787   C     0.29725   0.82951   0.64501   0.00000  Uiso   1.00
C788   C     0.25332   0.74813   0.51217   0.00000  Uiso   1.00
C789   C     0.27600   0.81672   0.58587   0.00000  Uiso   1.00
C790   C     0.03641   0.88798   0.94144   0.00000  Uiso   1.00
C791   C     0.06212   0.90418   0.99593   0.00000  Uiso   1.00
C792   C     0.13354   0.83909   0.99575   0.00000  Uiso   1.00
C793   C     0.10926   0.87962   0.52460   0.00000  Uiso   1.00
C794   C     0.10159   0.81862   0.94273   0.00000  Uiso   1.00
C795   C     0.18759   0.81779   0.51600   0.00000  Uiso   1.00
C796   C     0.20164   0.77084   0.99012   0.00000  Uiso   1.00
C797   C     0.16416   0.74724   0.94263   0.00000  Uiso   1.00
C798   C     0.11547   0.77144   0.91837   0.00000  Uiso   1.00
C799   C     0.22967   0.84285   0.55949   0.00000  Uiso   1.00
C800   C     0.28959   0.77022   0.56123   0.00000  Uiso   1.00
H801   H     0.32580   0.74955   0.58161   0.00000  Uiso   1.00
H802   H     0.05895   0.66874   0.73682   0.00000  Uiso   1.00
H803   H     0.20524   0.72503   0.82497   0.00000  Uiso   1.00
H804   H     0.10867   0.80819   0.60856   0.00000  Uiso   1.00
H805   H     0.15700   0.78829   0.71269   0.00000  Uiso   1.00
H806   H     0.17656   0.87655   0.78986   0.00000  Uiso   1.00
H807   H     0.17354   0.71092   0.92311   0.00000  Uiso   1.00
H808   H     0.26394   0.71204   0.99319   0.00000  Uiso   1.00
H809   H     0.22596   0.88169   0.57550   0.00000  Uiso   1.00
H810   H     0.00102   0.90869   0.92013   0.00000  Uiso   1.00
H811   H     0.04373   0.93532   0.51641   0.00000  Uiso   1.00
H812   H     0.08821   0.75255   0.88049   0.00000  Uiso   1.00
N813   N     0.14493   0.81890   0.73542   0.00000  Uiso   1.00
N814   N     0.18840   0.84777   0.76457   0.00000  Uiso   1.00
O815   O     0.29769   0.91296   0.75357   0.00000  Uiso   1.00
O816   O     0.28042   0.95800   0.84706   0.00000  Uiso   1.00
O817   O     0.24497   0.71715   0.84365   0.00000  Uiso   1.00
O818   O     0.16854   0.93372   0.61909   0.00000  Uiso   1.00
O819   O     0.06667   0.90559   0.61537   0.00000  Uiso   1.00
O820   O     0.14060   0.83477   0.62627   0.00000  Uiso   1.00
O821   O     0.05742   0.90371   0.74423   0.00000  Uiso   1.00
O822   O     0.31490   0.84024   0.83380   0.00000  Uiso   1.00
O823   O     0.07463   0.83099   0.82446   0.00000  Uiso   1.00
O824   O     0.27592   0.76296   0.75576   0.00000  Uiso   1.00
O825   O     0.03565   0.75371   0.74642   0.00000  Uiso   1.00
O826   O     0.25870   0.83567   0.67554   0.00000  Uiso   1.00
O827   O     0.01843   0.82642   0.66620   0.00000  Uiso   1.00
O828   O     0.20600   0.97601   0.76618   0.00000  Uiso   1.00
S829   S     0.26044   0.99805   0.80679   0.00000  Uiso   1.00
S830   S     0.12153   0.89039   0.59816   0.00000  Uiso   1.00
Zn831  Zn    0.27119   0.83951   0.75623   0.00000  Uiso   1.00
Zn832  Zn    0.06214   0.82716   0.74376   0.00000  Uiso   1.00
C833   C     0.34899   0.93167   0.75249   0.00000  Uiso   1.00
C834   C     0.38938   0.84574   0.91468   0.00000  Uiso   1.00
C835   C     0.35626   0.98646   0.75453   0.00000  Uiso   1.00
C836   C     0.36937   0.83695   0.85485   0.00000  Uiso   1.00
C837   C     0.64888   0.68302   0.76865   0.00000  Uiso   1.00
C838   C     0.65297   0.73554   0.75506   0.00000  Uiso   1.00
C839   C     0.63058   0.82951   0.64501   0.00000  Uiso   1.00
C840   C     0.58665   0.74813   0.51217   0.00000  Uiso   1.00
C841   C     0.60933   0.81672   0.58587   0.00000  Uiso   1.00
C842   C     0.36975   0.88798   0.94144   0.00000  Uiso   1.00
C843   C     0.39545   0.90418   0.99593   0.00000  Uiso   1.00
C844   C     0.46687   0.83909   0.99575   0.00000  Uiso   1.00
C845   C     0.44260   0.87962   0.52460   0.00000  Uiso   1.00
C846   C     0.43492   0.81862   0.94273   0.00000  Uiso   1.00
C847   C     0.52093   0.81779   0.51600   0.00000  Uiso   1.00
C848   C     0.53498   0.77084   0.99012   0.00000  Uiso   1.00
C849   C     0.49750   0.74724   0.94263   0.00000  Uiso   1.00
C850   C     0.44880   0.77144   0.91837   0.00000  Uiso   1.00
C851   C     0.56300   0.84285   0.55949   0.00000  Uiso   1.00
C852   C     0.62292   0.77022   0.56123   0.00000  Uiso   1.00
H853   H     0.65914   0.74955   0.58161   0.00000  Uiso   1.00
H854   H     0.39228   0.66874   0.73682   0.00000  Uiso   1.00
H855   H     0.53857   0.72503   0.82497   0.00000  Uiso   1.00
H856   H     0.44200   0.80819   0.60856   0.00000  Uiso   1.00
H857   H     0.49034   0.78829   0.71269   0.00000  Uiso   1.00
H858   H     0.50990   0.87655   0.78986   0.00000  Uiso   1.00
H859   H     0.50687   0.71092   0.92311   0.00000  Uiso   1.00
H860   H     0.59728   0.71204   0.99319   0.00000  Uiso   1.00
H861   H     0.55930   0.88169   0.57550   0.00000  Uiso   1.00
H862   H     0.33435   0.90869   0.92013   0.00000  Uiso   1.00
H863   H     0.37706   0.93532   0.51641   0.00000  Uiso   1.00
H864   H     0.42155   0.75255   0.88049   0.00000  Uiso   1.00
N865   N     0.47827   0.81890   0.73542   0.00000  Uiso   1.00
N866   N     0.52173   0.84777   0.76457   0.00000  Uiso   1.00
O867   O     0.63102   0.91296   0.75357   0.00000  Uiso   1.00
O868   O     0.61375   0.95800   0.84706   0.00000  Uiso   1.00
O869   O     0.57830   0.71715   0.84365   0.00000  Uiso   1.00
O870   O     0.50188   0.93372   0.61909   0.00000  Uiso   1.00
O871   O     0.40000   0.90559   0.61537   0.00000  Uiso   1.00
O872   O     0.47393   0.83477   0.62627   0.00000  Uiso   1.00
O873   O     0.39075   0.90371   0.74423   0.00000  Uiso   1.00
O874   O     0.64823   0.84024   0.83380   0.00000  Uiso   1.00
O875   O     0.40796   0.83099   0.82446   0.00000  Uiso   1.00
O876   O     0.60925   0.76296   0.75576   0.00000  Uiso   1.00
O877   O     0.36898   0.75371   0.74642   0.00000  Uiso   1.00
O878   O     0.59204   0.83567   0.67554   0.00000  Uiso   1.00
O879   O     0.35177   0.82642   0.66620   0.00000  Uiso   1.00
O880   O     0.53934   0.97601   0.76618   0.00000  Uiso   1.00
S881   S     0.59378   0.99805   0.80679   0.00000  Uiso   1.00
S882   S     0.45487   0.89039   0.59816   0.00000  Uiso   1.00
Zn883  Zn    0.60453   0.83951   0.75623   0.00000  Uiso   1.00
Zn884  Zn    0.39547   0.82716   0.74376   0.00000  Uiso   1.00
C885   C     0.68233   0.93167   0.75249   0.00000  Uiso   1.00
C886   C     0.72271   0.84574   0.91468   0.00000  Uiso   1.00
C887   C     0.68959   0.98646   0.75453   0.00000  Uiso   1.00
C888   C     0.70270   0.83695   0.85485   0.00000  Uiso   1.00
C889   C     0.98221   0.68302   0.76865   0.00000  Uiso   1.00
C890   C     0.98630   0.73554   0.75506   0.00000  Uiso   1.00
C891   C     0.96391   0.82951   0.64501   0.00000  Uiso   1.00
C892   C     0.91999   0.74813   0.51217   0.00000  Uiso   1.00
C893   C     0.94267   0.81672   0.58587   0.00000  Uiso   1.00
C894   C     0.70308   0.88798   0.94144   0.00000  Uiso   1.00
C895   C     0.72879   0.90418   0.99593   0.00000  Uiso   1.00
C896   C     0.80020   0.83909   0.99575   0.00000  Uiso   1.00
C897   C     0.77593   0.87962   0.52460   0.00000  Uiso   1.00
C898   C     0.76825   0.81862   0.94273   0.00000  Uiso   1.00
C899   C     0.85426   0.81779   0.51600   0.00000  Uiso   1.00
C900   C     0.86831   0.77084   0.99012   0.00000  Uiso   1.00
C901   C     0.83083   0.74724   0.94263   0.00000  Uiso   1.00
C902   C     0.78213   0.77144   0.91837   0.00000  Uiso   1.00
C903   C     0.89634   0.84285   0.55949   0.00000  Uiso   1.00
C904   C     0.95626   0.77022   0.56123   0.00000  Uiso   1.00
H905   H     0.99247   0.74955   0.58161   0.00000  Uiso   1.00
H906   H     0.72561   0.66874   0.73682   0.00000  Uiso   1.00
H907   H     0.87191   0.72503   0.82497   0.00000  Uiso   1.00
H908   H     0.77533   0.80819   0.60856   0.00000  Uiso   1.00
H909   H     0.82367   0.78829   0.71269   0.00000  Uiso   1.00
H910   H     0.84323   0.87655   0.78986   0.00000  Uiso   1.00
H911   H     0.84021   0.71092   0.92311   0.00000  Uiso   1.00
H912   H     0.93061   0.71204   0.99319   0.00000  Uiso   1.00
H913   H     0.89263   0.88169   0.57550   0.00000  Uiso   1.00
H914   H     0.66769   0.90869   0.92013   0.00000  Uiso   1.00
H915   H     0.71039   0.93532   0.51641   0.00000  Uiso   1.00
H916   H     0.75488   0.75255   0.88049   0.00000  Uiso   1.00
N917   N     0.81160   0.81890   0.73542   0.00000  Uiso   1.00
N918   N     0.85507   0.84777   0.76457   0.00000  Uiso   1.00
O919   O     0.96435   0.91296   0.75357   0.00000  Uiso   1.00
O920   O     0.94708   0.95800   0.84706   0.00000  Uiso   1.00
O921   O     0.91164   0.71715   0.84365   0.00000  Uiso   1.00
O922   O     0.83521   0.93372   0.61909   0.00000  Uiso   1.00
O923   O     0.73334   0.90559   0.61537   0.00000  Uiso   1.00
O924   O     0.80727   0.83477   0.62627   0.00000  Uiso   1.00
O925   O     0.72408   0.90371   0.74423   0.00000  Uiso   1.00
O926   O     0.98157   0.84024   0.83380   0.00000  Uiso   1.00
O927   O     0.74130   0.83099   0.82446   0.00000  Uiso   1.00
O928   O     0.94258   0.76296   0.75576   0.00000  Uiso   1.00
O929   O     0.70231   0.75371   0.74642   0.00000  Uiso   1.00
O930   O     0.92537   0.83567   0.67554   0.00000  Uiso   1.00
O931   O     0.68510   0.82642   0.66620   0.00000  Uiso   1.00
O932   O     0.87267   0.97601   0.76618   0.00000  Uiso   1.00
S933   S     0.92711   0.99805   0.80679   0.00000  Uiso   1.00
S934   S     0.78820   0.89039   0.59816   0.00000  Uiso   1.00
Zn935  Zn    0.93786   0.83951   0.75623   0.00000  Uiso   1.00
Zn936  Zn    0.72881   0.82716   0.74376   0.00000  Uiso   1.00
loop_
_geom_bond_atom_site_label_1
_geom_bond_atom_site_label_2
_geom_bond_distance
_geom_bond_site_symmetry_2
_ccdc_geom_bond_type
C1     O41     1.297   .     A
C1     C3      1.407   .     S
C1     O139    1.270   1_455 S
C2     C4      1.446   .     S
C2     C14     1.400   .     A
C2     C10     1.393   .     A
C3     C265    1.353   1_455 S
C3     H178    1.088   .     S
C4     O43     1.295   .     A
C4     O146    1.287   1_455 S
C5     C6      1.413   .     S
C5     C367    1.353   1_545 S
C5     S361    1.794   1_545 S
C6     O44     1.287   .     A
C6     O97     1.279   .     S
C7     O46     1.297   .     A
C7     C9      1.445   .     S
C7     O99     1.288   .     S
C8     C20     1.391   .     A
C8     C484    1.403   1_554 S
C8     H496    1.084   1_554 S
C9     C20     1.398   .     A
C9     C19     1.384   .     A
C10    H30     1.078   .     S
C10    C11     1.378   .     A
C11    C481    1.395   .     S
C11    H499    1.083   .     S
C12    C14     1.415   .     A
C12    C481    1.442   .     S
C12    C483    1.423   .     S
C13    S50     1.770   .     S
C13    C480    1.442   1_554 S
C13    C479    1.395   1_554 S
C14    C18     1.412   .     A
C15    C19     1.391   .     A
C15    C480    1.423   1_554 S
C15    C484    1.425   1_554 S
C16    C17     1.389   .     A
C16    C483    1.425   .     S
C16    C476    1.403   .     S
C17    C18     1.382   .     A
C17    H27     1.084   .     S
C18    H32     1.083   .     S
C19    H29     1.070   .     S
C20    H21     1.083   .     S
H22    C315    1.088   1_545 S
H23    O37     0.991   .     S
H24    O40     0.991   .     S
H25    N33     1.029   .     S
H26    N34     1.029   .     S
H28    C476    1.084   .     S
H31    C479    1.083   1_554 S
N33    N34     1.281   .     D
N33    Zn52    2.017   .     S
N34    Zn51    2.017   .     S
O35    Zn51    1.959   .     S
O35    C53     1.270   .     S
O36    S49     1.500   .     D
O37    S361    1.685   1_545 S
O38    S50     1.503   .     D
O39    S50     1.503   .     D
O40    S50     1.673   .     S
O41    Zn52    1.983   .     S
O42    Zn51    1.966   .     S
O42    C56     1.287   .     S
O43    Zn52    1.935   .     S
O44    Zn51    1.983   .     S
O45    Zn52    1.959   .     S
O45    C110    1.279   1_455 S
O46    Zn51    1.935   .     S
O47    Zn52    1.966   .     S
O47    C111    1.288   1_455 S
O48    S49     1.504   .     D
S49    O193    1.685   .     S
S49    C161    1.794   .     S
C53    O93     1.297   .     A
C53    C55     1.407   .     S
C54    C56     1.446   .     S
C54    C66     1.400   .     A
C54    C62     1.393   .     A
C55    C161    1.353   .     S
C55    H230    1.088   .     S
C56    O95     1.295   .     A
C57    C58     1.413   .     S
C57    C419    1.353   1_545 S
C57    S413    1.794   1_545 S
C58    O96     1.287   .     A
C58    O149    1.279   .     S
C59    O98     1.297   .     A
C59    C61     1.445   .     S
C59    O151    1.288   .     S
C60    C72     1.391   .     A
C60    C536    1.403   1_554 S
C60    H548    1.084   1_554 S
C61    C72     1.398   .     A
C61    C71     1.384   .     A
C62    H82     1.078   .     S
C62    C63     1.378   .     A
C63    C533    1.395   .     S
C63    H551    1.083   .     S
C64    C66     1.415   .     A
C64    C533    1.442   .     S
C64    C535    1.423   .     S
C65    S102    1.770   .     S
C65    C532    1.442   1_554 S
C65    C531    1.395   1_554 S
C66    C70     1.412   .     A
C67    C71     1.391   .     A
C67    C532    1.423   1_554 S
C67    C536    1.425   1_554 S
C68    C69     1.389   .     A
C68    C535    1.425   .     S
C68    C528    1.403   .     S
C69    C70     1.382   .     A
C69    H79     1.084   .     S
C70    H84     1.083   .     S
C71    H81     1.070   .     S
C72    H73     1.083   .     S
H74    C367    1.088   1_545 S
H75    O89     0.991   .     S
H76    O92     0.991   .     S
H77    N85     1.029   .     S
H78    N86     1.029   .     S
H80    C528    1.084   .     S
H83    C531    1.083   1_554 S
N85    N86     1.281   .     D
N85    Zn104   2.017   .     S
N86    Zn103   2.017   .     S
O87    Zn103   1.959   .     S
O87    C105    1.270   .     S
O88    S101    1.500   .     D
O89    S413    1.685   1_545 S
O90    S102    1.503   .     D
O91    S102    1.503   .     D
O92    S102    1.673   .     S
O93    Zn104   1.983   .     S
O94    Zn103   1.966   .     S
O94    C108    1.287   .     S
O95    Zn104   1.935   .     S
O96    Zn103   1.983   .     S
O97    Zn104   1.959   .     S
O98    Zn103   1.935   .     S
O99    Zn104   1.966   .     S
O100   S101    1.504   .     D
S101   O245    1.685   .     S
S101   C213    1.794   .     S
C105   O145    1.297   .     A
C105   C107    1.407   .     S
C106   C108    1.446   .     S
C106   C118    1.400   .     A
C106   C114    1.393   .     A
C107   C213    1.353   .     S
C107   H282    1.088   .     S
C108   O147    1.295   .     A
C109   C110    1.413   .     S
C109   C315    1.353   1_645 S
C109   S465    1.794   1_545 S
C110   O148    1.287   .     A
C110   O45     1.279   1_655 S
C111   O150    1.297   .     A
C111   C113    1.445   .     S
C111   O47     1.288   1_655 S
C112   C124    1.391   .     A
C112   C588    1.403   1_554 S
C112   H600    1.084   1_554 S
C113   C124    1.398   .     A
C113   C123    1.384   .     A
C114   H134    1.078   .     S
C114   C115    1.378   .     A
C115   C585    1.395   .     S
C115   H603    1.083   .     S
C116   C118    1.415   .     A
C116   C585    1.442   .     S
C116   C587    1.423   .     S
C117   S154    1.770   .     S
C117   C584    1.442   1_554 S
C117   C583    1.395   1_554 S
C118   C122    1.412   .     A
C119   C123    1.391   .     A
C119   C584    1.423   1_554 S
C119   C588    1.425   1_554 S
C120   C121    1.389   .     A
C120   C587    1.425   .     S
C120   C580    1.403   .     S
C121   C122    1.382   .     A
C121   H131    1.084   .     S
C122   H136    1.083   .     S
C123   H133    1.070   .     S
C124   H125    1.083   .     S
H126   C419    1.088   1_545 S
H127   O141    0.991   .     S
H128   O144    0.991   .     S
H129   N137    1.029   .     S
H130   N138    1.029   .     S
H132   C580    1.084   .     S
H135   C583    1.083   1_554 S
N137   N138    1.281   .     D
N137   Zn156   2.017   .     S
N138   Zn155   2.017   .     S
O139   Zn155   1.959   .     S
O139   C1      1.270   1_655 S
O140   S153    1.500   .     D
O141   S465    1.685   1_545 S
O142   S154    1.503   .     D
O143   S154    1.503   .     D
O144   S154    1.673   .     S
O145   Zn156   1.983   .     S
O146   Zn155   1.966   .     S
O146   C4      1.287   1_655 S
O147   Zn156   1.935   .     S
O148   Zn155   1.983   .     S
O149   Zn156   1.959   .     S
O150   Zn155   1.935   .     S
O151   Zn156   1.966   .     S
O152   S153    1.504   .     D
S153   O297    1.685   .     S
S153   C265    1.794   .     S
C157   O197    1.297   .     A
C157   C159    1.407   .     S
C157   O295    1.270   1_455 S
C158   C160    1.446   .     S
C158   C170    1.400   .     A
C158   C166    1.393   .     A
C159   C421    1.353   1_455 S
C159   H334    1.088   .     S
C160   O199    1.295   .     A
C160   O302    1.287   1_455 S
C161   C162    1.413   .     S
C162   O200    1.287   .     A
C162   O253    1.279   .     S
C163   O202    1.297   .     A
C163   C165    1.445   .     S
C163   O255    1.288   .     S
C164   C176    1.391   .     A
C164   C640    1.403   1_554 S
C164   H652    1.084   1_554 S
C165   C176    1.398   .     A
C165   C175    1.384   .     A
C166   H186    1.078   .     S
C166   C167    1.378   .     A
C167   C637    1.395   .     S
C167   H655    1.083   .     S
C168   C170    1.415   .     A
C168   C637    1.442   .     S
C168   C639    1.423   .     S
C169   S206    1.770   .     S
C169   C636    1.442   1_554 S
C169   C635    1.395   1_554 S
C170   C174    1.412   .     A
C171   C175    1.391   .     A
C171   C636    1.423   1_554 S
C171   C640    1.425   1_554 S
C172   C173    1.389   .     A
C172   C639    1.425   .     S
C172   C632    1.403   .     S
C173   C174    1.382   .     A
C173   H183    1.084   .     S
C174   H188    1.083   .     S
C175   H185    1.070   .     S
C176   H177    1.083   .     S
H179   O193    0.991   .     S
H180   O196    0.991   .     S
H181   N189    1.029   .     S
H182   N190    1.029   .     S
H184   C632    1.084   .     S
H187   C635    1.083   1_554 S
N189   N190    1.281   .     D
N189   Zn208   2.017   .     S
N190   Zn207   2.017   .     S
O191   Zn207   1.959   .     S
O191   C209    1.270   .     S
O192   S205    1.500   .     D
O194   S206    1.503   .     D
O195   S206    1.503   .     D
O196   S206    1.673   .     S
O197   Zn208   1.983   .     S
O198   Zn207   1.966   .     S
O198   C212    1.287   .     S
O199   Zn208   1.935   .     S
O200   Zn207   1.983   .     S
O201   Zn208   1.959   .     S
O201   C266    1.279   1_455 S
O202   Zn207   1.935   .     S
O203   Zn208   1.966   .     S
O203   C267    1.288   1_455 S
O204   S205    1.504   .     D
S205   O349    1.685   .     S
S205   C317    1.794   .     S
C209   O249    1.297   .     A
C209   C211    1.407   .     S
C210   C212    1.446   .     S
C210   C222    1.400   .     A
C210   C218    1.393   .     A
C211   C317    1.353   .     S
C211   H386    1.088   .     S
C212   O251    1.295   .     A
C213   C214    1.413   .     S
C214   O252    1.287   .     A
C214   O305    1.279   .     S
C215   O254    1.297   .     A
C215   C217    1.445   .     S
C215   O307    1.288   .     S
C216   C228    1.391   .     A
C216   C692    1.403   1_554 S
C216   H704    1.084   1_554 S
C217   C228    1.398   .     A
C217   C227    1.384   .     A
C218   H238    1.078   .     S
C218   C219    1.378   .     A
C219   C689    1.395   .     S
C219   H707    1.083   .     S
C220   C222    1.415   .     A
C220   C689    1.442   .     S
C220   C691    1.423   .     S
C221   S258    1.770   .     S
C221   C688    1.442   1_554 S
C221   C687    1.395   1_554 S
C222   C226    1.412   .     A
C223   C227    1.391   .     A
C223   C688    1.423   1_554 S
C223   C692    1.425   1_554 S
C224   C225    1.389   .     A
C224   C691    1.425   .     S
C224   C684    1.403   .     S
C225   C226    1.382   .     A
C225   H235    1.084   .     S
C226   H240    1.083   .     S
C227   H237    1.070   .     S
C228   H229    1.083   .     S
H231   O245    0.991   .     S
H232   O248    0.991   .     S
H233   N241    1.029   .     S
H234   N242    1.029   .     S
H236   C684    1.084   .     S
H239   C687    1.083   1_554 S
N241   N242    1.281   .     D
N241   Zn260   2.017   .     S
N242   Zn259   2.017   .     S
O243   Zn259   1.959   .     S
O243   C261    1.270   .     S
O244   S257    1.500   .     D
O246   S258    1.503   .     D
O247   S258    1.503   .     D
O248   S258    1.673   .     S
O249   Zn260   1.983   .     S
O250   Zn259   1.966   .     S
O250   C264    1.287   .     S
O251   Zn260   1.935   .     S
O252   Zn259   1.983   .     S
O253   Zn260   1.959   .     S
O254   Zn259   1.935   .     S
O255   Zn260   1.966   .     S
O256   S257    1.504   .     D
S257   O401    1.685   .     S
S257   C369    1.794   .     S
C261   O301    1.297   .     A
C261   C263    1.407   .     S
C262   C264    1.446   .     S
C262   C274    1.400   .     A
C262   C270    1.393   .     A
C263   C369    1.353   .     S
C263   H438    1.088   .     S
C264   O303    1.295   .     A
C265   C266    1.413   .     S
C265   C3      1.353   1_655 S
C266   O304    1.287   .     A
C266   O201    1.279   1_655 S
C267   O306    1.297   .     A
C267   C269    1.445   .     S
C267   O203    1.288   1_655 S
C268   C280    1.391   .     A
C268   C744    1.403   1_554 S
C268   H756    1.084   1_554 S
C269   C280    1.398   .     A
C269   C279    1.384   .     A
C270   H290    1.078   .     S
C270   C271    1.378   .     A
C271   C741    1.395   .     S
C271   H759    1.083   .     S
C272   C274    1.415   .     A
C272   C741    1.442   .     S
C272   C743    1.423   .     S
C273   S310    1.770   .     S
C273   C740    1.442   1_554 S
C273   C739    1.395   1_554 S
C274   C278    1.412   .     A
C275   C279    1.391   .     A
C275   C740    1.423   1_554 S
C275   C744    1.425   1_554 S
C276   C277    1.389   .     A
C276   C743    1.425   .     S
C276   C736    1.403   .     S
C277   C278    1.382   .     A
C277   H287    1.084   .     S
C278   H292    1.083   .     S
C279   H289    1.070   .     S
C280   H281    1.083   .     S
H283   O297    0.991   .     S
H284   O300    0.991   .     S
H285   N293    1.029   .     S
H286   N294    1.029   .     S
H288   C736    1.084   .     S
H291   C739    1.083   1_554 S
N293   N294    1.281   .     D
N293   Zn312   2.017   .     S
N294   Zn311   2.017   .     S
O295   Zn311   1.959   .     S
O295   C157    1.270   1_655 S
O296   S309    1.500   .     D
O298   S310    1.503   .     D
O299   S310    1.503   .     D
O300   S310    1.673   .     S
O301   Zn312   1.983   .     S
O302   Zn311   1.966   .     S
O302   C160    1.287   1_655 S
O303   Zn312   1.935   .     S
O304   Zn311   1.983   .     S
O305   Zn312   1.959   .     S
O306   Zn311   1.935   .     S
O307   Zn312   1.966   .     S
O308   S309    1.504   .     D
S309   O453    1.685   .     S
S309   C421    1.794   .     S
C313   O353    1.297   .     A
C313   C315    1.407   .     S
C313   O451    1.270   1_455 S
C314   C316    1.446   .     S
C314   C326    1.400   .     A
C314   C322    1.393   .     A
C315   C109    1.353   1_465 S
C315   H22     1.088   1_565 S
C316   O355    1.295   .     A
C316   O458    1.287   1_455 S
C317   C318    1.413   .     S
C318   O356    1.287   .     A
C318   O409    1.279   .     S
C319   O358    1.297   .     A
C319   C321    1.445   .     S
C319   O411    1.288   .     S
C320   C332    1.391   .     A
C320   C796    1.403   1_554 S
C320   H808    1.084   1_554 S
C321   C332    1.398   .     A
C321   C331    1.384   .     A
C322   H342    1.078   .     S
C322   C323    1.378   .     A
C323   C793    1.395   .     S
C323   H811    1.083   .     S
C324   C326    1.415   .     A
C324   C793    1.442   .     S
C324   C795    1.423   .     S
C325   S362    1.770   .     S
C325   C792    1.442   1_554 S
C325   C791    1.395   1_554 S
C326   C330    1.412   .     A
C327   C331    1.391   .     A
C327   C792    1.423   1_554 S
C327   C796    1.425   1_554 S
C328   C329    1.389   .     A
C328   C795    1.425   .     S
C328   C788    1.403   .     S
C329   C330    1.382   .     A
C329   H339    1.084   .     S
C330   H344    1.083   .     S
C331   H341    1.070   .     S
C332   H333    1.083   .     S
H335   O349    0.991   .     S
H336   O352    0.991   .     S
H337   N345    1.029   .     S
H338   N346    1.029   .     S
H340   C788    1.084   .     S
H343   C791    1.083   1_554 S
N345   N346    1.281   .     D
N345   Zn364   2.017   .     S
N346   Zn363   2.017   .     S
O347   Zn363   1.959   .     S
O347   C365    1.270   .     S
O348   S361    1.500   .     D
O350   S362    1.503   .     D
O351   S362    1.503   .     D
O352   S362    1.673   .     S
O353   Zn364   1.983   .     S
O354   Zn363   1.966   .     S
O354   C368    1.287   .     S
O355   Zn364   1.935   .     S
O356   Zn363   1.983   .     S
O357   Zn364   1.959   .     S
O357   C422    1.279   1_455 S
O358   Zn363   1.935   .     S
O359   Zn364   1.966   .     S
O359   C423    1.288   1_455 S
O360   S361    1.504   .     D
S361   O37     1.685   1_565 S
S361   C5      1.794   1_565 S
C365   O405    1.297   .     A
C365   C367    1.407   .     S
C366   C368    1.446   .     S
C366   C378    1.400   .     A
C366   C374    1.393   .     A
C367   C5      1.353   1_565 S
C367   H74     1.088   1_565 S
C368   O407    1.295   .     A
C369   C370    1.413   .     S
C370   O408    1.287   .     A
C370   O461    1.279   .     S
C371   O410    1.297   .     A
C371   C373    1.445   .     S
C371   O463    1.288   .     S
C372   C384    1.391   .     A
C372   C848    1.403   1_554 S
C372   H860    1.084   1_554 S
C373   C384    1.398   .     A
C373   C383    1.384   .     A
C374   H394    1.078   .     S
C374   C375    1.378   .     A
C375   C845    1.395   .     S
C375   H863    1.083   .     S
C376   C378    1.415   .     A
C376   C845    1.442   .     S
C376   C847    1.423   .     S
C377   S414    1.770   .     S
C377   C844    1.442   1_554 S
C377   C843    1.395   1_554 S
C378   C382    1.412   .     A
C379   C383    1.391   .     A
C379   C844    1.423   1_554 S
C379   C848    1.425   1_554 S
C380   C381    1.389   .     A
C380   C847    1.425   .     S
C380   C840    1.403   .     S
C381   C382    1.382   .     A
C381   H391    1.084   .     S
C382   H396    1.083   .     S
C383   H393    1.070   .     S
C384   H385    1.083   .     S
H387   O401    0.991   .     S
H388   O404    0.991   .     S
H389   N397    1.029   .     S
H390   N398    1.029   .     S
H392   C840    1.084   .     S
H395   C843    1.083   1_554 S
N397   N398    1.281   .     D
N397   Zn416   2.017   .     S
N398   Zn415   2.017   .     S
O399   Zn415   1.959   .     S
O399   C417    1.270   .     S
O400   S413    1.500   .     D
O402   S414    1.503   .     D
O403   S414    1.503   .     D
O404   S414    1.673   .     S
O405   Zn416   1.983   .     S
O406   Zn415   1.966   .     S
O406   C420    1.287   .     S
O407   Zn416   1.935   .     S
O408   Zn415   1.983   .     S
O409   Zn416   1.959   .     S
O410   Zn415   1.935   .     S
O411   Zn416   1.966   .     S
O412   S413    1.504   .     D
S413   O89     1.685   1_565 S
S413   C57     1.794   1_565 S
C417   O457    1.297   .     A
C417   C419    1.407   .     S
C418   C420    1.446   .     S
C418   C430    1.400   .     A
C418   C426    1.393   .     A
C419   C57     1.353   1_565 S
C419   H126    1.088   1_565 S
C420   O459    1.295   .     A
C421   C422    1.413   .     S
C421   C159    1.353   1_655 S
C422   O460    1.287   .     A
C422   O357    1.279   1_655 S
C423   O462    1.297   .     A
C423   C425    1.445   .     S
C423   O359    1.288   1_655 S
C424   C436    1.391   .     A
C424   C900    1.403   1_554 S
C424   H912    1.084   1_554 S
C425   C436    1.398   .     A
C425   C435    1.384   .     A
C426   H446    1.078   .     S
C426   C427    1.378   .     A
C427   C897    1.395   .     S
C427   H915    1.083   .     S
C428   C430    1.415   .     A
C428   C897    1.442   .     S
C428   C899    1.423   .     S
C429   S466    1.770   .     S
C429   C896    1.442   1_554 S
C429   C895    1.395   1_554 S
C430   C434    1.412   .     A
C431   C435    1.391   .     A
C431   C896    1.423   1_554 S
C431   C900    1.425   1_554 S
C432   C433    1.389   .     A
C432   C899    1.425   .     S
C432   C892    1.403   .     S
C433   C434    1.382   .     A
C433   H443    1.084   .     S
C434   H448    1.083   .     S
C435   H445    1.070   .     S
C436   H437    1.083   .     S
H439   O453    0.991   .     S
H440   O456    0.991   .     S
H441   N449    1.029   .     S
H442   N450    1.029   .     S
H444   C892    1.084   .     S
H447   C895    1.083   1_554 S
N449   N450    1.281   .     D
N449   Zn468   2.017   .     S
N450   Zn467   2.017   .     S
O451   Zn467   1.959   .     S
O451   C313    1.270   1_655 S
O452   S465    1.500   .     D
O454   S466    1.503   .     D
O455   S466    1.503   .     D
O456   S466    1.673   .     S
O457   Zn468   1.983   .     S
O458   Zn467   1.966   .     S
O458   C316    1.287   1_655 S
O459   Zn468   1.935   .     S
O460   Zn467   1.983   .     S
O461   Zn468   1.959   .     S
O462   Zn467   1.935   .     S
O463   Zn468   1.966   .     S
O464   S465    1.504   .     D
S465   O141    1.685   1_565 S
S465   C109    1.794   1_565 S
C469   O509    1.297   .     A
C469   C471    1.407   .     S
C469   O607    1.270   1_455 S
C470   C472    1.446   .     S
C470   C482    1.400   .     A
C470   C478    1.393   .     A
C471   C733    1.353   1_455 S
C471   H646    1.088   .     S
C472   O511    1.295   .     A
C472   O614    1.287   1_455 S
C473   C474    1.413   .     S
C473   C835    1.353   1_545 S
C473   S829    1.794   1_545 S
C474   O512    1.287   .     A
C474   O565    1.279   .     S
C475   O514    1.297   .     A
C475   C477    1.445   .     S
C475   O567    1.288   .     S
C476   C488    1.391   .     A
C477   C488    1.398   .     A
C477   C487    1.384   .     A
C478   H498    1.078   .     S
C478   C479    1.378   .     A
C479   C13     1.395   1_556 S
C479   H31     1.083   1_556 S
C480   C482    1.415   .     A
C480   C13     1.442   1_556 S
C480   C15     1.423   1_556 S
C481   S518    1.770   .     S
C482   C486    1.412   .     A
C483   C487    1.391   .     A
C484   C485    1.389   .     A
C484   C15     1.425   1_556 S
C484   C8      1.403   1_556 S
C485   C486    1.382   .     A
C485   H495    1.084   .     S
C486   H500    1.083   .     S
C487   H497    1.070   .     S
C488   H489    1.083   .     S
H490   C783    1.088   1_545 S
H491   O505    0.991   .     S
H492   O508    0.991   .     S
H493   N501    1.029   .     S
H494   N502    1.029   .     S
H496   C8      1.084   1_556 S
N501   N502    1.281   .     D
N501   Zn520   2.017   .     S
N502   Zn519   2.017   .     S
O503   Zn519   1.959   .     S
O503   C521    1.270   .     S
O504   S517    1.500   .     D
O505   S829    1.685   1_545 S
O506   S518    1.503   .     D
O507   S518    1.503   .     D
O508   S518    1.673   .     S
O509   Zn520   1.983   .     S
O510   Zn519   1.966   .     S
O510   C524    1.287   .     S
O511   Zn520   1.935   .     S
O512   Zn519   1.983   .     S
O513   Zn520   1.959   .     S
O513   C578    1.279   1_455 S
O514   Zn519   1.935   .     S
O515   Zn520   1.966   .     S
O515   C579    1.288   1_455 S
O516   S517    1.504   .     D
S517   O661    1.685   .     S
S517   C629    1.794   .     S
C521   O561    1.297   .     A
C521   C523    1.407   .     S
C522   C524    1.446   .     S
C522   C534    1.400   .     A
C522   C530    1.393   .     A
C523   C629    1.353   .     S
C523   H698    1.088   .     S
C524   O563    1.295   .     A
C525   C526    1.413   .     S
C525   C887    1.353   1_545 S
C525   S881    1.794   1_545 S
C526   O564    1.287   .     A
C526   O617    1.279   .     S
C527   O566    1.297   .     A
C527   C529    1.445   .     S
C527   O619    1.288   .     S
C528   C540    1.391   .     A
C529   C540    1.398   .     A
C529   C539    1.384   .     A
C530   H550    1.078   .     S
C530   C531    1.378   .     A
C531   C65     1.395   1_556 S
C531   H83     1.083   1_556 S
C532   C534    1.415   .     A
C532   C65     1.442   1_556 S
C532   C67     1.423   1_556 S
C533   S570    1.770   .     S
C534   C538    1.412   .     A
C535   C539    1.391   .     A
C536   C537    1.389   .     A
C536   C67     1.425   1_556 S
C536   C60     1.403   1_556 S
C537   C538    1.382   .     A
C537   H547    1.084   .     S
C538   H552    1.083   .     S
C539   H549    1.070   .     S
C540   H541    1.083   .     S
H542   C835    1.088   1_545 S
H543   O557    0.991   .     S
H544   O560    0.991   .     S
H545   N553    1.029   .     S
H546   N554    1.029   .     S
H548   C60     1.084   1_556 S
N553   N554    1.281   .     D
N553   Zn572   2.017   .     S
N554   Zn571   2.017   .     S
O555   Zn571   1.959   .     S
O555   C573    1.270   .     S
O556   S569    1.500   .     D
O557   S881    1.685   1_545 S
O558   S570    1.503   .     D
O559   S570    1.503   .     D
O560   S570    1.673   .     S
O561   Zn572   1.983   .     S
O562   Zn571   1.966   .     S
O562   C576    1.287   .     S
O563   Zn572   1.935   .     S
O564   Zn571   1.983   .     S
O565   Zn572   1.959   .     S
O566   Zn571   1.935   .     S
O567   Zn572   1.966   .     S
O568   S569    1.504   .     D
S569   O713    1.685   .     S
S569   C681    1.794   .     S
C573   O613    1.297   .     A
C573   C575    1.407   .     S
C574   C576    1.446   .     S
C574   C586    1.400   .     A
C574   C582    1.393   .     A
C575   C681    1.353   .     S
C575   H750    1.088   .     S
C576   O615    1.295   .     A
C577   C578    1.413   .     S
C577   C783    1.353   1_645 S
C577   S933    1.794   1_545 S
C578   O616    1.287   .     A
C578   O513    1.279   1_655 S
C579   O618    1.297   .     A
C579   C581    1.445   .     S
C579   O515    1.288   1_655 S
C580   C592    1.391   .     A
C581   C592    1.398   .     A
C581   C591    1.384   .     A
C582   H602    1.078   .     S
C582   C583    1.378   .     A
C583   C117    1.395   1_556 S
C583   H135    1.083   1_556 S
C584   C586    1.415   .     A
C584   C117    1.442   1_556 S
C584   C119    1.423   1_556 S
C585   S622    1.770   .     S
C586   C590    1.412   .     A
C587   C591    1.391   .     A
C588   C589    1.389   .     A
C588   C119    1.425   1_556 S
C588   C112    1.403   1_556 S
C589   C590    1.382   .     A
C589   H599    1.084   .     S
C590   H604    1.083   .     S
C591   H601    1.070   .     S
C592   H593    1.083   .     S
H594   C887    1.088   1_545 S
H595   O609    0.991   .     S
H596   O612    0.991   .     S
H597   N605    1.029   .     S
H598   N606    1.029   .     S
H600   C112    1.084   1_556 S
N605   N606    1.281   .     D
N605   Zn624   2.017   .     S
N606   Zn623   2.017   .     S
O607   Zn623   1.959   .     S
O607   C469    1.270   1_655 S
O608   S621    1.500   .     D
O609   S933    1.685   1_545 S
O610   S622    1.503   .     D
O611   S622    1.503   .     D
O612   S622    1.673   .     S
O613   Zn624   1.983   .     S
O614   Zn623   1.966   .     S
O614   C472    1.287   1_655 S
O615   Zn624   1.935   .     S
O616   Zn623   1.983   .     S
O617   Zn624   1.959   .     S
O618   Zn623   1.935   .     S
O619   Zn624   1.966   .     S
O620   S621    1.504   .     D
S621   O765    1.685   .     S
S621   C733    1.794   .     S
C625   O665    1.297   .     A
C625   C627    1.407   .     S
C625   O763    1.270   1_455 S
C626   C628    1.446   .     S
C626   C638    1.400   .     A
C626   C634    1.393   .     A
C627   C889    1.353   1_455 S
C627   H802    1.088   .     S
C628   O667    1.295   .     A
C628   O770    1.287   1_455 S
C629   C630    1.413   .     S
C630   O668    1.287   .     A
C630   O721    1.279   .     S
C631   O670    1.297   .     A
C631   C633    1.445   .     S
C631   O723    1.288   .     S
C632   C644    1.391   .     A
C633   C644    1.398   .     A
C633   C643    1.384   .     A
C634   H654    1.078   .     S
C634   C635    1.378   .     A
C635   C169    1.395   1_556 S
C635   H187    1.083   1_556 S
C636   C638    1.415   .     A
C636   C169    1.442   1_556 S
C636   C171    1.423   1_556 S
C637   S674    1.770   .     S
C638   C642    1.412   .     A
C639   C643    1.391   .     A
C640   C641    1.389   .     A
C640   C171    1.425   1_556 S
C640   C164    1.403   1_556 S
C641   C642    1.382   .     A
C641   H651    1.084   .     S
C642   H656    1.083   .     S
C643   H653    1.070   .     S
C644   H645    1.083   .     S
H647   O661    0.991   .     S
H648   O664    0.991   .     S
H649   N657    1.029   .     S
H650   N658    1.029   .     S
H652   C164    1.084   1_556 S
N657   N658    1.281   .     D
N657   Zn676   2.017   .     S
N658   Zn675   2.017   .     S
O659   Zn675   1.959   .     S
O659   C677    1.270   .     S
O660   S673    1.500   .     D
O662   S674    1.503   .     D
O663   S674    1.503   .     D
O664   S674    1.673   .     S
O665   Zn676   1.983   .     S
O666   Zn675   1.966   .     S
O666   C680    1.287   .     S
O667   Zn676   1.935   .     S
O668   Zn675   1.983   .     S
O669   Zn676   1.959   .     S
O669   C734    1.279   1_455 S
O670   Zn675   1.935   .     S
O671   Zn676   1.966   .     S
O671   C735    1.288   1_455 S
O672   S673    1.504   .     D
S673   O817    1.685   .     S
S673   C785    1.794   .     S
C677   O717    1.297   .     A
C677   C679    1.407   .     S
C678   C680    1.446   .     S
C678   C690    1.400   .     A
C678   C686    1.393   .     A
C679   C785    1.353   .     S
C679   H854    1.088   .     S
C680   O719    1.295   .     A
C681   C682    1.413   .     S
C682   O720    1.287   .     A
C682   O773    1.279   .     S
C683   O722    1.297   .     A
C683   C685    1.445   .     S
C683   O775    1.288   .     S
C684   C696    1.391   .     A
C685   C696    1.398   .     A
C685   C695    1.384   .     A
C686   H706    1.078   .     S
C686   C687    1.378   .     A
C687   C221    1.395   1_556 S
C687   H239    1.083   1_556 S
C688   C690    1.415   .     A
C688   C221    1.442   1_556 S
C688   C223    1.423   1_556 S
C689   S726    1.770   .     S
C690   C694    1.412   .     A
C691   C695    1.391   .     A
C692   C693    1.389   .     A
C692   C223    1.425   1_556 S
C692   C216    1.403   1_556 S
C693   C694    1.382   .     A
C693   H703    1.084   .     S
C694   H708    1.083   .     S
C695   H705    1.070   .     S
C696   H697    1.083   .     S
H699   O713    0.991   .     S
H700   O716    0.991   .     S
H701   N709    1.029   .     S
H702   N710    1.029   .     S
H704   C216    1.084   1_556 S
N709   N710    1.281   .     D
N709   Zn728   2.017   .     S
N710   Zn727   2.017   .     S
O711   Zn727   1.959   .     S
O711   C729    1.270   .     S
O712   S725    1.500   .     D
O714   S726    1.503   .     D
O715   S726    1.503   .     D
O716   S726    1.673   .     S
O717   Zn728   1.983   .     S
O718   Zn727   1.966   .     S
O718   C732    1.287   .     S
O719   Zn728   1.935   .     S
O720   Zn727   1.983   .     S
O721   Zn728   1.959   .     S
O722   Zn727   1.935   .     S
O723   Zn728   1.966   .     S
O724   S725    1.504   .     D
S725   O869    1.685   .     S
S725   C837    1.794   .     S
C729   O769    1.297   .     A
C729   C731    1.407   .     S
C730   C732    1.446   .     S
C730   C742    1.400   .     A
C730   C738    1.393   .     A
C731   C837    1.353   .     S
C731   H906    1.088   .     S
C732   O771    1.295   .     A
C733   C734    1.413   .     S
C733   C471    1.353   1_655 S
C734   O772    1.287   .     A
C734   O669    1.279   1_655 S
C735   O774    1.297   .     A
C735   C737    1.445   .     S
C735   O671    1.288   1_655 S
C736   C748    1.391   .     A
C737   C748    1.398   .     A
C737   C747    1.384   .     A
C738   H758    1.078   .     S
C738   C739    1.378   .     A
C739   C273    1.395   1_556 S
C739   H291    1.083   1_556 S
C740   C742    1.415   .     A
C740   C273    1.442   1_556 S
C740   C275    1.423   1_556 S
C741   S778    1.770   .     S
C742   C746    1.412   .     A
C743   C747    1.391   .     A
C744   C745    1.389   .     A
C744   C275    1.425   1_556 S
C744   C268    1.403   1_556 S
C745   C746    1.382   .     A
C745   H755    1.084   .     S
C746   H760    1.083   .     S
C747   H757    1.070   .     S
C748   H749    1.083   .     S
H751   O765    0.991   .     S
H752   O768    0.991   .     S
H753   N761    1.029   .     S
H754   N762    1.029   .     S
H756   C268    1.084   1_556 S
N761   N762    1.281   .     D
N761   Zn780   2.017   .     S
N762   Zn779   2.017   .     S
O763   Zn779   1.959   .     S
O763   C625    1.270   1_655 S
O764   S777    1.500   .     D
O766   S778    1.503   .     D
O767   S778    1.503   .     D
O768   S778    1.673   .     S
O769   Zn780   1.983   .     S
O770   Zn779   1.966   .     S
O770   C628    1.287   1_655 S
O771   Zn780   1.935   .     S
O772   Zn779   1.983   .     S
O773   Zn780   1.959   .     S
O774   Zn779   1.935   .     S
O775   Zn780   1.966   .     S
O776   S777    1.504   .     D
S777   O921    1.685   .     S
S777   C889    1.794   .     S
C781   O821    1.297   .     A
C781   C783    1.407   .     S
C781   O919    1.270   1_455 S
C782   C784    1.446   .     S
C782   C794    1.400   .     A
C782   C790    1.393   .     A
C783   C577    1.353   1_465 S
C783   H490    1.088   1_565 S
C784   O823    1.295   .     A
C784   O926    1.287   1_455 S
C785   C786    1.413   .     S
C786   O824    1.287   .     A
C786   O877    1.279   .     S
C787   O826    1.297   .     A
C787   C789    1.445   .     S
C787   O879    1.288   .     S
C788   C800    1.391   .     A
C789   C800    1.398   .     A
C789   C799    1.384   .     A
C790   H810    1.078   .     S
C790   C791    1.378   .     A
C791   C325    1.395   1_556 S
C791   H343    1.083   1_556 S
C792   C794    1.415   .     A
C792   C325    1.442   1_556 S
C792   C327    1.423   1_556 S
C793   S830    1.770   .     S
C794   C798    1.412   .     A
C795   C799    1.391   .     A
C796   C797    1.389   .     A
C796   C327    1.425   1_556 S
C796   C320    1.403   1_556 S
C797   C798    1.382   .     A
C797   H807    1.084   .     S
C798   H812    1.083   .     S
C799   H809    1.070   .     S
C800   H801    1.083   .     S
H803   O817    0.991   .     S
H804   O820    0.991   .     S
H805   N813    1.029   .     S
H806   N814    1.029   .     S
H808   C320    1.084   1_556 S
N813   N814    1.281   .     D
N813   Zn832   2.017   .     S
N814   Zn831   2.017   .     S
O815   Zn831   1.959   .     S
O815   C833    1.270   .     S
O816   S829    1.500   .     D
O818   S830    1.503   .     D
O819   S830    1.503   .     D
O820   S830    1.673   .     S
O821   Zn832   1.983   .     S
O822   Zn831   1.966   .     S
O822   C836    1.287   .     S
O823   Zn832   1.935   .     S
O824   Zn831   1.983   .     S
O825   Zn832   1.959   .     S
O825   C890    1.279   1_455 S
O826   Zn831   1.935   .     S
O827   Zn832   1.966   .     S
O827   C891    1.288   1_455 S
O828   S829    1.504   .     D
S829   O505    1.685   1_565 S
S829   C473    1.794   1_565 S
C833   O873    1.297   .     A
C833   C835    1.407   .     S
C834   C836    1.446   .     S
C834   C846    1.400   .     A
C834   C842    1.393   .     A
C835   C473    1.353   1_565 S
C835   H542    1.088   1_565 S
C836   O875    1.295   .     A
C837   C838    1.413   .     S
C838   O876    1.287   .     A
C838   O929    1.279   .     S
C839   O878    1.297   .     A
C839   C841    1.445   .     S
C839   O931    1.288   .     S
C840   C852    1.391   .     A
C841   C852    1.398   .     A
C841   C851    1.384   .     A
C842   H862    1.078   .     S
C842   C843    1.378   .     A
C843   C377    1.395   1_556 S
C843   H395    1.083   1_556 S
C844   C846    1.415   .     A
C844   C377    1.442   1_556 S
C844   C379    1.423   1_556 S
C845   S882    1.770   .     S
C846   C850    1.412   .     A
C847   C851    1.391   .     A
C848   C849    1.389   .     A
C848   C379    1.425   1_556 S
C848   C372    1.403   1_556 S
C849   C850    1.382   .     A
C849   H859    1.084   .     S
C850   H864    1.083   .     S
C851   H861    1.070   .     S
C852   H853    1.083   .     S
H855   O869    0.991   .     S
H856   O872    0.991   .     S
H857   N865    1.029   .     S
H858   N866    1.029   .     S
H860   C372    1.084   1_556 S
N865   N866    1.281   .     D
N865   Zn884   2.017   .     S
N866   Zn883   2.017   .     S
O867   Zn883   1.959   .     S
O867   C885    1.270   .     S
O868   S881    1.500   .     D
O870   S882    1.503   .     D
O871   S882    1.503   .     D
O872   S882    1.673   .     S
O873   Zn884   1.983   .     S
O874   Zn883   1.966   .     S
O874   C888    1.287   .     S
O875   Zn884   1.935   .     S
O876   Zn883   1.983   .     S
O877   Zn884   1.959   .     S
O878   Zn883   1.935   .     S
O879   Zn884   1.966   .     S
O880   S881    1.504   .     D
S881   O557    1.685   1_565 S
S881   C525    1.794   1_565 S
C885   O925    1.297   .     A
C885   C887    1.407   .     S
C886   C888    1.446   .     S
C886   C898    1.400   .     A
C886   C894    1.393   .     A
C887   C525    1.353   1_565 S
C887   H594    1.088   1_565 S
C888   O927    1.295   .     A
C889   C890    1.413   .     S
C889   C627    1.353   1_655 S
C890   O928    1.287   .     A
C890   O825    1.279   1_655 S
C891   O930    1.297   .     A
C891   C893    1.445   .     S
C891   O827    1.288   1_655 S
C892   C904    1.391   .     A
C893   C904    1.398   .     A
C893   C903    1.384   .     A
C894   H914    1.078   .     S
C894   C895    1.378   .     A
C895   C429    1.395   1_556 S
C895   H447    1.083   1_556 S
C896   C898    1.415   .     A
C896   C429    1.442   1_556 S
C896   C431    1.423   1_556 S
C897   S934    1.770   .     S
C898   C902    1.412   .     A
C899   C903    1.391   .     A
C900   C901    1.389   .     A
C900   C431    1.425   1_556 S
C900   C424    1.403   1_556 S
C901   C902    1.382   .     A
C901   H911    1.084   .     S
C902   H916    1.083   .     S
C903   H913    1.070   .     S
C904   H905    1.083   .     S
H907   O921    0.991   .     S
H908   O924    0.991   .     S
H909   N917    1.029   .     S
H910   N918    1.029   .     S
H912   C424    1.084   1_556 S
N917   N918    1.281   .     D
N917   Zn936   2.017   .     S
N918   Zn935   2.017   .     S
O919   Zn935   1.959   .     S
O919   C781    1.270   1_655 S
O920   S933    1.500   .     D
O922   S934    1.503   .     D
O923   S934    1.503   .     D
O924   S934    1.673   .     S
O925   Zn936   1.983   .     S
O926   Zn935   1.966   .     S
O926   C784    1.287   1_655 S
O927   Zn936   1.935   .     S
O928   Zn935   1.983   .     S
O929   Zn936   1.959   .     S
O930   Zn935   1.935   .     S
O931   Zn936   1.966   .     S
O932   S933    1.504   .     D
S933   O609    1.685   1_565 S
S933   C577    1.794   1_565 S
