data_str_m3_o1_o16_pcu_sym.92
_audit_creation_date              2020-01-03
_audit_creation_method            'Materials Studio'
_symmetry_space_group_name_H-M    'P1'
_symmetry_Int_Tables_number       1
_symmetry_cell_setting            triclinic
loop_
_symmetry_equiv_pos_as_xyz
  x,y,z
_cell_length_a                    29.6396
_cell_length_b                    32.1457
_cell_length_c                    26.1003
_cell_angle_alpha                 90.4697
_cell_angle_beta                  71.4434
_cell_angle_gamma                 89.7847
loop_
_atom_site_label
_atom_site_type_symbol
_atom_site_fract_x
_atom_site_fract_y
_atom_site_fract_z
_atom_site_U_iso_or_equiv
_atom_site_adp_type
_atom_site_occupancy
C1     C     0.16659   0.24667   0.25016   0.00000  Uiso   1.00
C2     C     0.14843   0.13888   0.49037   0.00000  Uiso   1.00
C3     C     0.16063   0.13774   0.43355   0.00000  Uiso   1.00
C4     C     0.18542   0.13643   0.01344   0.00000  Uiso   1.00
C5     C     0.23333   0.13842   0.48017   0.00000  Uiso   1.00
C6     C     0.24435   0.12902   0.42548   0.00000  Uiso   1.00
C7     C     0.20766   0.12527   0.40328   0.00000  Uiso   1.00
C8     C     0.17625   0.13546   0.06884   0.00000  Uiso   1.00
C9     C     0.25546   0.16086   0.05743   0.00000  Uiso   1.00
C10    C     0.12661   0.15170   0.40923   0.00000  Uiso   1.00
C11    C     0.20412   0.31197   0.26017   0.00000  Uiso   1.00
C12    C     0.14103   0.16232   0.35161   0.00000  Uiso   1.00
C13    C     0.20418   0.02126   0.26014   0.00000  Uiso   1.00
C14    C     0.16660   0.04250   0.25036   0.00000  Uiso   1.00
C15    C     0.12882   0.02138   0.24094   0.00000  Uiso   1.00
C16    C     0.12878   0.31211   0.24093   0.00000  Uiso   1.00
C17    C     0.16647   0.29085   0.25044   0.00000  Uiso   1.00
C18    C     0.31921   0.14003   0.21707   0.00000  Uiso   1.00
C19    C     0.03321   0.13981   0.21801   0.00000  Uiso   1.00
C20    C     0.01462   0.19338   0.28274   0.00000  Uiso   1.00
C21    C     0.30000   0.19322   0.28295   0.00000  Uiso   1.00
C22    C     0.16667   0.08666   0.25009   0.00000  Uiso   1.00
C23    C     0.19278   0.16402   0.14815   0.00000  Uiso   1.00
C24    C     0.26861   0.14990   0.00265   0.00000  Uiso   1.00
C25    C     0.20854   0.15413   0.09066   0.00000  Uiso   1.00
C26    C     0.07954   0.15956   0.44152   0.00000  Uiso   1.00
C27    C     0.06677   0.15680   0.49744   0.00000  Uiso   1.00
C28    C     0.10096   0.14777   0.02189   0.00000  Uiso   1.00
H29    H     0.28179   0.17321   0.07409   0.00000  Uiso   1.00
H30    H     0.23334   0.03742   0.26800   0.00000  Uiso   1.00
H31    H     0.09957   0.03762   0.23321   0.00000  Uiso   1.00
H32    H     0.09957   0.29596   0.23314   0.00000  Uiso   1.00
H33    H     0.05837   0.11801   0.19317   0.00000  Uiso   1.00
H34    H     0.02525   0.21478   0.30892   0.00000  Uiso   1.00
H35    H     0.27445   0.21446   0.30931   0.00000  Uiso   1.00
H36    H     0.28097   0.12527   0.39991   0.00000  Uiso   1.00
H37    H     0.30522   0.15286   0.47737   0.00000  Uiso   1.00
H38    H     0.05311   0.16975   0.42365   0.00000  Uiso   1.00
H39    H     0.09029   0.15006   0.06547   0.00000  Uiso   1.00
H40    H     0.03088   0.16425   0.02226   0.00000  Uiso   1.00
H41    H     0.21728   0.11467   0.36182   0.00000  Uiso   1.00
H42    H     0.23330   0.29571   0.26803   0.00000  Uiso   1.00
N43    N     0.04760   0.16668   0.25001   0.00000  Uiso   1.00
N44    N     0.28573   0.16665   0.25001   0.00000  Uiso   1.00
O45    O     0.12846   0.22775   0.25001   0.00000  Uiso   1.00
O46    O     0.20490   0.22774   0.25001   0.00000  Uiso   1.00
O47    O     0.10947   0.16666   0.32681   0.00000  Uiso   1.00
O48    O     0.18591   0.16665   0.32681   0.00000  Uiso   1.00
O49    O     0.12843   0.10559   0.25000   0.00000  Uiso   1.00
O50    O     0.20488   0.10558   0.25000   0.00000  Uiso   1.00
O51    O     0.14742   0.16668   0.17319   0.00000  Uiso   1.00
O52    O     0.22387   0.16667   0.17319   0.00000  Uiso   1.00
Zn53   Zn    0.11562   0.16667   0.25000   0.00000  Uiso   1.00
Zn54   Zn    0.21771   0.16666   0.25000   0.00000  Uiso   1.00
I55    I     0.30428   0.09831   0.16156   0.00000  Uiso   1.00
I56    I     0.13535   0.08412   0.10950   0.00000  Uiso   1.00
C57    C     0.49992   0.24667   0.25016   0.00000  Uiso   1.00
C58    C     0.48176   0.13888   0.49037   0.00000  Uiso   1.00
C59    C     0.49396   0.13774   0.43355   0.00000  Uiso   1.00
C60    C     0.51876   0.13643   0.01344   0.00000  Uiso   1.00
C61    C     0.56666   0.13842   0.48017   0.00000  Uiso   1.00
C62    C     0.57768   0.12902   0.42548   0.00000  Uiso   1.00
C63    C     0.54099   0.12527   0.40328   0.00000  Uiso   1.00
C64    C     0.50958   0.13546   0.06884   0.00000  Uiso   1.00
C65    C     0.58880   0.16086   0.05743   0.00000  Uiso   1.00
C66    C     0.45994   0.15170   0.40923   0.00000  Uiso   1.00
C67    C     0.53746   0.31197   0.26017   0.00000  Uiso   1.00
C68    C     0.47437   0.16232   0.35161   0.00000  Uiso   1.00
C69    C     0.53751   0.02126   0.26014   0.00000  Uiso   1.00
C70    C     0.49993   0.04250   0.25036   0.00000  Uiso   1.00
C71    C     0.46215   0.02138   0.24094   0.00000  Uiso   1.00
C72    C     0.46211   0.31211   0.24093   0.00000  Uiso   1.00
C73    C     0.49981   0.29085   0.25044   0.00000  Uiso   1.00
C74    C     0.65254   0.14003   0.21707   0.00000  Uiso   1.00
C75    C     0.36654   0.13981   0.21801   0.00000  Uiso   1.00
C76    C     0.34796   0.19338   0.28274   0.00000  Uiso   1.00
C77    C     0.63333   0.19322   0.28295   0.00000  Uiso   1.00
C78    C     0.50001   0.08666   0.25009   0.00000  Uiso   1.00
C79    C     0.52611   0.16402   0.14815   0.00000  Uiso   1.00
C80    C     0.60195   0.14990   0.00265   0.00000  Uiso   1.00
C81    C     0.54187   0.15413   0.09066   0.00000  Uiso   1.00
C82    C     0.41288   0.15956   0.44152   0.00000  Uiso   1.00
C83    C     0.40010   0.15680   0.49744   0.00000  Uiso   1.00
C84    C     0.43429   0.14777   0.02189   0.00000  Uiso   1.00
H85    H     0.61512   0.17321   0.07409   0.00000  Uiso   1.00
H86    H     0.56668   0.03742   0.26800   0.00000  Uiso   1.00
H87    H     0.43291   0.03762   0.23321   0.00000  Uiso   1.00
H88    H     0.43290   0.29596   0.23314   0.00000  Uiso   1.00
H89    H     0.39170   0.11801   0.19317   0.00000  Uiso   1.00
H90    H     0.35858   0.21478   0.30892   0.00000  Uiso   1.00
H91    H     0.60778   0.21446   0.30931   0.00000  Uiso   1.00
H92    H     0.61431   0.12527   0.39991   0.00000  Uiso   1.00
H93    H     0.63855   0.15286   0.47737   0.00000  Uiso   1.00
H94    H     0.38644   0.16975   0.42365   0.00000  Uiso   1.00
H95    H     0.42363   0.15006   0.06547   0.00000  Uiso   1.00
H96    H     0.36421   0.16425   0.02226   0.00000  Uiso   1.00
H97    H     0.55061   0.11467   0.36182   0.00000  Uiso   1.00
H98    H     0.56663   0.29571   0.26803   0.00000  Uiso   1.00
N99    N     0.38093   0.16668   0.25001   0.00000  Uiso   1.00
N100   N     0.61906   0.16665   0.25001   0.00000  Uiso   1.00
O101   O     0.46179   0.22775   0.25001   0.00000  Uiso   1.00
O102   O     0.53823   0.22774   0.25001   0.00000  Uiso   1.00
O103   O     0.44280   0.16666   0.32681   0.00000  Uiso   1.00
O104   O     0.51924   0.16665   0.32681   0.00000  Uiso   1.00
O105   O     0.46177   0.10559   0.25000   0.00000  Uiso   1.00
O106   O     0.53821   0.10558   0.25000   0.00000  Uiso   1.00
O107   O     0.48076   0.16668   0.17319   0.00000  Uiso   1.00
O108   O     0.55720   0.16667   0.17319   0.00000  Uiso   1.00
Zn109  Zn    0.44896   0.16667   0.25000   0.00000  Uiso   1.00
Zn110  Zn    0.55104   0.16666   0.25000   0.00000  Uiso   1.00
I111   I     0.63762   0.09831   0.16156   0.00000  Uiso   1.00
I112   I     0.46869   0.08412   0.10950   0.00000  Uiso   1.00
C113   C     0.83325   0.24667   0.25016   0.00000  Uiso   1.00
C114   C     0.81510   0.13888   0.49037   0.00000  Uiso   1.00
C115   C     0.82730   0.13774   0.43355   0.00000  Uiso   1.00
C116   C     0.85209   0.13643   0.01344   0.00000  Uiso   1.00
C117   C     0.90000   0.13842   0.48017   0.00000  Uiso   1.00
C118   C     0.91102   0.12902   0.42548   0.00000  Uiso   1.00
C119   C     0.87433   0.12527   0.40328   0.00000  Uiso   1.00
C120   C     0.84292   0.13546   0.06884   0.00000  Uiso   1.00
C121   C     0.92213   0.16086   0.05743   0.00000  Uiso   1.00
C122   C     0.79328   0.15170   0.40923   0.00000  Uiso   1.00
C123   C     0.87079   0.31197   0.26017   0.00000  Uiso   1.00
C124   C     0.80770   0.16232   0.35161   0.00000  Uiso   1.00
C125   C     0.87084   0.02126   0.26014   0.00000  Uiso   1.00
C126   C     0.83327   0.04250   0.25036   0.00000  Uiso   1.00
C127   C     0.79549   0.02138   0.24094   0.00000  Uiso   1.00
C128   C     0.79545   0.31211   0.24093   0.00000  Uiso   1.00
C129   C     0.83314   0.29085   0.25044   0.00000  Uiso   1.00
C130   C     0.98588   0.14003   0.21707   0.00000  Uiso   1.00
C131   C     0.69987   0.13981   0.21801   0.00000  Uiso   1.00
C132   C     0.68129   0.19338   0.28274   0.00000  Uiso   1.00
C133   C     0.96666   0.19322   0.28295   0.00000  Uiso   1.00
C134   C     0.83334   0.08666   0.25009   0.00000  Uiso   1.00
C135   C     0.85944   0.16402   0.14815   0.00000  Uiso   1.00
C136   C     0.93528   0.14990   0.00265   0.00000  Uiso   1.00
C137   C     0.87521   0.15413   0.09066   0.00000  Uiso   1.00
C138   C     0.74621   0.15956   0.44152   0.00000  Uiso   1.00
C139   C     0.73344   0.15680   0.49744   0.00000  Uiso   1.00
C140   C     0.76762   0.14777   0.02189   0.00000  Uiso   1.00
H141   H     0.94845   0.17321   0.07409   0.00000  Uiso   1.00
H142   H     0.90001   0.03742   0.26800   0.00000  Uiso   1.00
H143   H     0.76624   0.03762   0.23321   0.00000  Uiso   1.00
H144   H     0.76623   0.29596   0.23314   0.00000  Uiso   1.00
H145   H     0.72504   0.11801   0.19317   0.00000  Uiso   1.00
H146   H     0.69191   0.21478   0.30892   0.00000  Uiso   1.00
H147   H     0.94112   0.21446   0.30931   0.00000  Uiso   1.00
H148   H     0.94764   0.12527   0.39991   0.00000  Uiso   1.00
H149   H     0.97188   0.15286   0.47737   0.00000  Uiso   1.00
H150   H     0.71978   0.16975   0.42365   0.00000  Uiso   1.00
H151   H     0.75696   0.15006   0.06547   0.00000  Uiso   1.00
H152   H     0.69755   0.16425   0.02226   0.00000  Uiso   1.00
H153   H     0.88395   0.11467   0.36182   0.00000  Uiso   1.00
H154   H     0.89996   0.29571   0.26803   0.00000  Uiso   1.00
N155   N     0.71426   0.16668   0.25001   0.00000  Uiso   1.00
N156   N     0.95239   0.16665   0.25001   0.00000  Uiso   1.00
O157   O     0.79512   0.22775   0.25001   0.00000  Uiso   1.00
O158   O     0.87157   0.22774   0.25001   0.00000  Uiso   1.00
O159   O     0.77613   0.16666   0.32681   0.00000  Uiso   1.00
O160   O     0.85258   0.16665   0.32681   0.00000  Uiso   1.00
O161   O     0.79510   0.10559   0.25000   0.00000  Uiso   1.00
O162   O     0.87154   0.10558   0.25000   0.00000  Uiso   1.00
O163   O     0.81409   0.16668   0.17319   0.00000  Uiso   1.00
O164   O     0.89053   0.16667   0.17319   0.00000  Uiso   1.00
Zn165  Zn    0.78229   0.16667   0.25000   0.00000  Uiso   1.00
Zn166  Zn    0.88438   0.16666   0.25000   0.00000  Uiso   1.00
I167   I     0.97095   0.09831   0.16156   0.00000  Uiso   1.00
I168   I     0.80202   0.08412   0.10950   0.00000  Uiso   1.00
C169   C     0.16659   0.58001   0.25016   0.00000  Uiso   1.00
C170   C     0.14843   0.47221   0.49037   0.00000  Uiso   1.00
C171   C     0.16063   0.47107   0.43355   0.00000  Uiso   1.00
C172   C     0.18542   0.46976   0.01344   0.00000  Uiso   1.00
C173   C     0.23333   0.47175   0.48017   0.00000  Uiso   1.00
C174   C     0.24435   0.46236   0.42548   0.00000  Uiso   1.00
C175   C     0.20766   0.45860   0.40328   0.00000  Uiso   1.00
C176   C     0.17625   0.46879   0.06884   0.00000  Uiso   1.00
C177   C     0.25546   0.49419   0.05743   0.00000  Uiso   1.00
C178   C     0.12661   0.48504   0.40923   0.00000  Uiso   1.00
C179   C     0.20412   0.64531   0.26017   0.00000  Uiso   1.00
C180   C     0.14103   0.49565   0.35161   0.00000  Uiso   1.00
C181   C     0.20418   0.35459   0.26014   0.00000  Uiso   1.00
C182   C     0.16660   0.37584   0.25036   0.00000  Uiso   1.00
C183   C     0.12882   0.35471   0.24094   0.00000  Uiso   1.00
C184   C     0.12878   0.64544   0.24093   0.00000  Uiso   1.00
C185   C     0.16647   0.62418   0.25044   0.00000  Uiso   1.00
C186   C     0.31921   0.47337   0.21707   0.00000  Uiso   1.00
C187   C     0.03321   0.47314   0.21801   0.00000  Uiso   1.00
C188   C     0.01462   0.52671   0.28274   0.00000  Uiso   1.00
C189   C     0.30000   0.52655   0.28295   0.00000  Uiso   1.00
C190   C     0.16667   0.42000   0.25009   0.00000  Uiso   1.00
C191   C     0.19278   0.49736   0.14815   0.00000  Uiso   1.00
C192   C     0.26861   0.48323   0.00265   0.00000  Uiso   1.00
C193   C     0.20854   0.48746   0.09066   0.00000  Uiso   1.00
C194   C     0.07954   0.49289   0.44152   0.00000  Uiso   1.00
C195   C     0.06677   0.49014   0.49744   0.00000  Uiso   1.00
C196   C     0.10096   0.48110   0.02189   0.00000  Uiso   1.00
H197   H     0.28179   0.50654   0.07409   0.00000  Uiso   1.00
H198   H     0.23334   0.37076   0.26800   0.00000  Uiso   1.00
H199   H     0.09957   0.37095   0.23321   0.00000  Uiso   1.00
H200   H     0.09957   0.62930   0.23314   0.00000  Uiso   1.00
H201   H     0.05837   0.45134   0.19317   0.00000  Uiso   1.00
H202   H     0.02525   0.54811   0.30892   0.00000  Uiso   1.00
H203   H     0.27445   0.54780   0.30931   0.00000  Uiso   1.00
H204   H     0.28097   0.45860   0.39991   0.00000  Uiso   1.00
H205   H     0.30522   0.48619   0.47737   0.00000  Uiso   1.00
H206   H     0.05311   0.50308   0.42365   0.00000  Uiso   1.00
H207   H     0.09029   0.48339   0.06547   0.00000  Uiso   1.00
H208   H     0.03088   0.49759   0.02226   0.00000  Uiso   1.00
H209   H     0.21728   0.44800   0.36182   0.00000  Uiso   1.00
H210   H     0.23330   0.62904   0.26803   0.00000  Uiso   1.00
N211   N     0.04760   0.50001   0.25001   0.00000  Uiso   1.00
N212   N     0.28573   0.49998   0.25001   0.00000  Uiso   1.00
O213   O     0.12846   0.56108   0.25001   0.00000  Uiso   1.00
O214   O     0.20490   0.56107   0.25001   0.00000  Uiso   1.00
O215   O     0.10947   0.50000   0.32681   0.00000  Uiso   1.00
O216   O     0.18591   0.49999   0.32681   0.00000  Uiso   1.00
O217   O     0.12843   0.43893   0.25000   0.00000  Uiso   1.00
O218   O     0.20488   0.43892   0.25000   0.00000  Uiso   1.00
O219   O     0.14742   0.50001   0.17319   0.00000  Uiso   1.00
O220   O     0.22387   0.50000   0.17319   0.00000  Uiso   1.00
Zn221  Zn    0.11562   0.50001   0.25000   0.00000  Uiso   1.00
Zn222  Zn    0.21771   0.49999   0.25000   0.00000  Uiso   1.00
I223   I     0.30428   0.43165   0.16156   0.00000  Uiso   1.00
I224   I     0.13535   0.41745   0.10950   0.00000  Uiso   1.00
C225   C     0.49992   0.58001   0.25016   0.00000  Uiso   1.00
C226   C     0.48176   0.47221   0.49037   0.00000  Uiso   1.00
C227   C     0.49396   0.47107   0.43355   0.00000  Uiso   1.00
C228   C     0.51876   0.46976   0.01344   0.00000  Uiso   1.00
C229   C     0.56666   0.47175   0.48017   0.00000  Uiso   1.00
C230   C     0.57768   0.46236   0.42548   0.00000  Uiso   1.00
C231   C     0.54099   0.45860   0.40328   0.00000  Uiso   1.00
C232   C     0.50958   0.46879   0.06884   0.00000  Uiso   1.00
C233   C     0.58880   0.49419   0.05743   0.00000  Uiso   1.00
C234   C     0.45994   0.48504   0.40923   0.00000  Uiso   1.00
C235   C     0.53746   0.64531   0.26017   0.00000  Uiso   1.00
C236   C     0.47437   0.49565   0.35161   0.00000  Uiso   1.00
C237   C     0.53751   0.35459   0.26014   0.00000  Uiso   1.00
C238   C     0.49993   0.37584   0.25036   0.00000  Uiso   1.00
C239   C     0.46215   0.35471   0.24094   0.00000  Uiso   1.00
C240   C     0.46211   0.64544   0.24093   0.00000  Uiso   1.00
C241   C     0.49981   0.62418   0.25044   0.00000  Uiso   1.00
C242   C     0.65254   0.47337   0.21707   0.00000  Uiso   1.00
C243   C     0.36654   0.47314   0.21801   0.00000  Uiso   1.00
C244   C     0.34796   0.52671   0.28274   0.00000  Uiso   1.00
C245   C     0.63333   0.52655   0.28295   0.00000  Uiso   1.00
C246   C     0.50001   0.42000   0.25009   0.00000  Uiso   1.00
C247   C     0.52611   0.49736   0.14815   0.00000  Uiso   1.00
C248   C     0.60195   0.48323   0.00265   0.00000  Uiso   1.00
C249   C     0.54187   0.48746   0.09066   0.00000  Uiso   1.00
C250   C     0.41288   0.49289   0.44152   0.00000  Uiso   1.00
C251   C     0.40010   0.49014   0.49744   0.00000  Uiso   1.00
C252   C     0.43429   0.48110   0.02189   0.00000  Uiso   1.00
H253   H     0.61512   0.50654   0.07409   0.00000  Uiso   1.00
H254   H     0.56668   0.37076   0.26800   0.00000  Uiso   1.00
H255   H     0.43291   0.37095   0.23321   0.00000  Uiso   1.00
H256   H     0.43290   0.62930   0.23314   0.00000  Uiso   1.00
H257   H     0.39170   0.45134   0.19317   0.00000  Uiso   1.00
H258   H     0.35858   0.54811   0.30892   0.00000  Uiso   1.00
H259   H     0.60778   0.54780   0.30931   0.00000  Uiso   1.00
H260   H     0.61431   0.45860   0.39991   0.00000  Uiso   1.00
H261   H     0.63855   0.48619   0.47737   0.00000  Uiso   1.00
H262   H     0.38644   0.50308   0.42365   0.00000  Uiso   1.00
H263   H     0.42363   0.48339   0.06547   0.00000  Uiso   1.00
H264   H     0.36421   0.49759   0.02226   0.00000  Uiso   1.00
H265   H     0.55061   0.44800   0.36182   0.00000  Uiso   1.00
H266   H     0.56663   0.62904   0.26803   0.00000  Uiso   1.00
N267   N     0.38093   0.50001   0.25001   0.00000  Uiso   1.00
N268   N     0.61906   0.49998   0.25001   0.00000  Uiso   1.00
O269   O     0.46179   0.56108   0.25001   0.00000  Uiso   1.00
O270   O     0.53823   0.56107   0.25001   0.00000  Uiso   1.00
O271   O     0.44280   0.50000   0.32681   0.00000  Uiso   1.00
O272   O     0.51924   0.49999   0.32681   0.00000  Uiso   1.00
O273   O     0.46177   0.43893   0.25000   0.00000  Uiso   1.00
O274   O     0.53821   0.43892   0.25000   0.00000  Uiso   1.00
O275   O     0.48076   0.50001   0.17319   0.00000  Uiso   1.00
O276   O     0.55720   0.50000   0.17319   0.00000  Uiso   1.00
Zn277  Zn    0.44896   0.50001   0.25000   0.00000  Uiso   1.00
Zn278  Zn    0.55104   0.49999   0.25000   0.00000  Uiso   1.00
I279   I     0.63762   0.43165   0.16156   0.00000  Uiso   1.00
I280   I     0.46869   0.41745   0.10950   0.00000  Uiso   1.00
C281   C     0.83325   0.58001   0.25016   0.00000  Uiso   1.00
C282   C     0.81510   0.47221   0.49037   0.00000  Uiso   1.00
C283   C     0.82730   0.47107   0.43355   0.00000  Uiso   1.00
C284   C     0.85209   0.46976   0.01344   0.00000  Uiso   1.00
C285   C     0.90000   0.47175   0.48017   0.00000  Uiso   1.00
C286   C     0.91102   0.46236   0.42548   0.00000  Uiso   1.00
C287   C     0.87433   0.45860   0.40328   0.00000  Uiso   1.00
C288   C     0.84292   0.46879   0.06884   0.00000  Uiso   1.00
C289   C     0.92213   0.49419   0.05743   0.00000  Uiso   1.00
C290   C     0.79328   0.48504   0.40923   0.00000  Uiso   1.00
C291   C     0.87079   0.64531   0.26017   0.00000  Uiso   1.00
C292   C     0.80770   0.49565   0.35161   0.00000  Uiso   1.00
C293   C     0.87084   0.35459   0.26014   0.00000  Uiso   1.00
C294   C     0.83327   0.37584   0.25036   0.00000  Uiso   1.00
C295   C     0.79549   0.35471   0.24094   0.00000  Uiso   1.00
C296   C     0.79545   0.64544   0.24093   0.00000  Uiso   1.00
C297   C     0.83314   0.62418   0.25044   0.00000  Uiso   1.00
C298   C     0.98588   0.47337   0.21707   0.00000  Uiso   1.00
C299   C     0.69987   0.47314   0.21801   0.00000  Uiso   1.00
C300   C     0.68129   0.52671   0.28274   0.00000  Uiso   1.00
C301   C     0.96666   0.52655   0.28295   0.00000  Uiso   1.00
C302   C     0.83334   0.42000   0.25009   0.00000  Uiso   1.00
C303   C     0.85944   0.49736   0.14815   0.00000  Uiso   1.00
C304   C     0.93528   0.48323   0.00265   0.00000  Uiso   1.00
C305   C     0.87521   0.48746   0.09066   0.00000  Uiso   1.00
C306   C     0.74621   0.49289   0.44152   0.00000  Uiso   1.00
C307   C     0.73344   0.49014   0.49744   0.00000  Uiso   1.00
C308   C     0.76762   0.48110   0.02189   0.00000  Uiso   1.00
H309   H     0.94845   0.50654   0.07409   0.00000  Uiso   1.00
H310   H     0.90001   0.37076   0.26800   0.00000  Uiso   1.00
H311   H     0.76624   0.37095   0.23321   0.00000  Uiso   1.00
H312   H     0.76623   0.62930   0.23314   0.00000  Uiso   1.00
H313   H     0.72504   0.45134   0.19317   0.00000  Uiso   1.00
H314   H     0.69191   0.54811   0.30892   0.00000  Uiso   1.00
H315   H     0.94112   0.54780   0.30931   0.00000  Uiso   1.00
H316   H     0.94764   0.45860   0.39991   0.00000  Uiso   1.00
H317   H     0.97188   0.48619   0.47737   0.00000  Uiso   1.00
H318   H     0.71978   0.50308   0.42365   0.00000  Uiso   1.00
H319   H     0.75696   0.48339   0.06547   0.00000  Uiso   1.00
H320   H     0.69755   0.49759   0.02226   0.00000  Uiso   1.00
H321   H     0.88395   0.44800   0.36182   0.00000  Uiso   1.00
H322   H     0.89996   0.62904   0.26803   0.00000  Uiso   1.00
N323   N     0.71426   0.50001   0.25001   0.00000  Uiso   1.00
N324   N     0.95239   0.49998   0.25001   0.00000  Uiso   1.00
O325   O     0.79512   0.56108   0.25001   0.00000  Uiso   1.00
O326   O     0.87157   0.56107   0.25001   0.00000  Uiso   1.00
O327   O     0.77613   0.50000   0.32681   0.00000  Uiso   1.00
O328   O     0.85258   0.49999   0.32681   0.00000  Uiso   1.00
O329   O     0.79510   0.43893   0.25000   0.00000  Uiso   1.00
O330   O     0.87154   0.43892   0.25000   0.00000  Uiso   1.00
O331   O     0.81409   0.50001   0.17319   0.00000  Uiso   1.00
O332   O     0.89053   0.50000   0.17319   0.00000  Uiso   1.00
Zn333  Zn    0.78229   0.50001   0.25000   0.00000  Uiso   1.00
Zn334  Zn    0.88438   0.49999   0.25000   0.00000  Uiso   1.00
I335   I     0.97095   0.43165   0.16156   0.00000  Uiso   1.00
I336   I     0.80202   0.41745   0.10950   0.00000  Uiso   1.00
C337   C     0.16659   0.91334   0.25016   0.00000  Uiso   1.00
C338   C     0.14843   0.80555   0.49037   0.00000  Uiso   1.00
C339   C     0.16063   0.80441   0.43355   0.00000  Uiso   1.00
C340   C     0.18542   0.80309   0.01344   0.00000  Uiso   1.00
C341   C     0.23333   0.80509   0.48017   0.00000  Uiso   1.00
C342   C     0.24435   0.79569   0.42548   0.00000  Uiso   1.00
C343   C     0.20766   0.79194   0.40328   0.00000  Uiso   1.00
C344   C     0.17625   0.80213   0.06884   0.00000  Uiso   1.00
C345   C     0.25546   0.82752   0.05743   0.00000  Uiso   1.00
C346   C     0.12661   0.81837   0.40923   0.00000  Uiso   1.00
C347   C     0.20412   0.97864   0.26017   0.00000  Uiso   1.00
C348   C     0.14103   0.82899   0.35161   0.00000  Uiso   1.00
C349   C     0.20418   0.68792   0.26014   0.00000  Uiso   1.00
C350   C     0.16660   0.70917   0.25036   0.00000  Uiso   1.00
C351   C     0.12882   0.68804   0.24094   0.00000  Uiso   1.00
C352   C     0.12878   0.97878   0.24093   0.00000  Uiso   1.00
C353   C     0.16647   0.95752   0.25044   0.00000  Uiso   1.00
C354   C     0.31921   0.80670   0.21707   0.00000  Uiso   1.00
C355   C     0.03321   0.80648   0.21801   0.00000  Uiso   1.00
C356   C     0.01462   0.86004   0.28274   0.00000  Uiso   1.00
C357   C     0.30000   0.85988   0.28295   0.00000  Uiso   1.00
C358   C     0.16667   0.75333   0.25009   0.00000  Uiso   1.00
C359   C     0.19278   0.83069   0.14815   0.00000  Uiso   1.00
C360   C     0.26861   0.81656   0.00265   0.00000  Uiso   1.00
C361   C     0.20854   0.82080   0.09066   0.00000  Uiso   1.00
C362   C     0.07954   0.82622   0.44152   0.00000  Uiso   1.00
C363   C     0.06677   0.82347   0.49744   0.00000  Uiso   1.00
C364   C     0.10096   0.81444   0.02189   0.00000  Uiso   1.00
H365   H     0.28179   0.83988   0.07409   0.00000  Uiso   1.00
H366   H     0.23334   0.70409   0.26800   0.00000  Uiso   1.00
H367   H     0.09957   0.70429   0.23321   0.00000  Uiso   1.00
H368   H     0.09957   0.96263   0.23314   0.00000  Uiso   1.00
H369   H     0.05837   0.78468   0.19317   0.00000  Uiso   1.00
H370   H     0.02525   0.88144   0.30892   0.00000  Uiso   1.00
H371   H     0.27445   0.88113   0.30931   0.00000  Uiso   1.00
H372   H     0.28097   0.79194   0.39991   0.00000  Uiso   1.00
H373   H     0.30522   0.81952   0.47737   0.00000  Uiso   1.00
H374   H     0.05311   0.83642   0.42365   0.00000  Uiso   1.00
H375   H     0.09029   0.81672   0.06547   0.00000  Uiso   1.00
H376   H     0.03088   0.83092   0.02226   0.00000  Uiso   1.00
H377   H     0.21728   0.78133   0.36182   0.00000  Uiso   1.00
H378   H     0.23330   0.96238   0.26803   0.00000  Uiso   1.00
N379   N     0.04760   0.83334   0.25001   0.00000  Uiso   1.00
N380   N     0.28573   0.83331   0.25001   0.00000  Uiso   1.00
O381   O     0.12846   0.89442   0.25001   0.00000  Uiso   1.00
O382   O     0.20490   0.89441   0.25001   0.00000  Uiso   1.00
O383   O     0.10947   0.83333   0.32681   0.00000  Uiso   1.00
O384   O     0.18591   0.83332   0.32681   0.00000  Uiso   1.00
O385   O     0.12843   0.77226   0.25000   0.00000  Uiso   1.00
O386   O     0.20488   0.77225   0.25000   0.00000  Uiso   1.00
O387   O     0.14742   0.83335   0.17319   0.00000  Uiso   1.00
O388   O     0.22387   0.83334   0.17319   0.00000  Uiso   1.00
Zn389  Zn    0.11562   0.83334   0.25000   0.00000  Uiso   1.00
Zn390  Zn    0.21771   0.83333   0.25000   0.00000  Uiso   1.00
I391   I     0.30428   0.76498   0.16156   0.00000  Uiso   1.00
I392   I     0.13535   0.75078   0.10950   0.00000  Uiso   1.00
C393   C     0.49992   0.91334   0.25016   0.00000  Uiso   1.00
C394   C     0.48176   0.80555   0.49037   0.00000  Uiso   1.00
C395   C     0.49396   0.80441   0.43355   0.00000  Uiso   1.00
C396   C     0.51876   0.80309   0.01344   0.00000  Uiso   1.00
C397   C     0.56666   0.80509   0.48017   0.00000  Uiso   1.00
C398   C     0.57768   0.79569   0.42548   0.00000  Uiso   1.00
C399   C     0.54099   0.79194   0.40328   0.00000  Uiso   1.00
C400   C     0.50958   0.80213   0.06884   0.00000  Uiso   1.00
C401   C     0.58880   0.82752   0.05743   0.00000  Uiso   1.00
C402   C     0.45994   0.81837   0.40923   0.00000  Uiso   1.00
C403   C     0.53746   0.97864   0.26017   0.00000  Uiso   1.00
C404   C     0.47437   0.82899   0.35161   0.00000  Uiso   1.00
C405   C     0.53751   0.68792   0.26014   0.00000  Uiso   1.00
C406   C     0.49993   0.70917   0.25036   0.00000  Uiso   1.00
C407   C     0.46215   0.68804   0.24094   0.00000  Uiso   1.00
C408   C     0.46211   0.97878   0.24093   0.00000  Uiso   1.00
C409   C     0.49981   0.95752   0.25044   0.00000  Uiso   1.00
C410   C     0.65254   0.80670   0.21707   0.00000  Uiso   1.00
C411   C     0.36654   0.80648   0.21801   0.00000  Uiso   1.00
C412   C     0.34796   0.86004   0.28274   0.00000  Uiso   1.00
C413   C     0.63333   0.85988   0.28295   0.00000  Uiso   1.00
C414   C     0.50001   0.75333   0.25009   0.00000  Uiso   1.00
C415   C     0.52611   0.83069   0.14815   0.00000  Uiso   1.00
C416   C     0.60195   0.81656   0.00265   0.00000  Uiso   1.00
C417   C     0.54187   0.82080   0.09066   0.00000  Uiso   1.00
C418   C     0.41288   0.82622   0.44152   0.00000  Uiso   1.00
C419   C     0.40010   0.82347   0.49744   0.00000  Uiso   1.00
C420   C     0.43429   0.81444   0.02189   0.00000  Uiso   1.00
H421   H     0.61512   0.83988   0.07409   0.00000  Uiso   1.00
H422   H     0.56668   0.70409   0.26800   0.00000  Uiso   1.00
H423   H     0.43291   0.70429   0.23321   0.00000  Uiso   1.00
H424   H     0.43290   0.96263   0.23314   0.00000  Uiso   1.00
H425   H     0.39170   0.78468   0.19317   0.00000  Uiso   1.00
H426   H     0.35858   0.88144   0.30892   0.00000  Uiso   1.00
H427   H     0.60778   0.88113   0.30931   0.00000  Uiso   1.00
H428   H     0.61431   0.79194   0.39991   0.00000  Uiso   1.00
H429   H     0.63855   0.81952   0.47737   0.00000  Uiso   1.00
H430   H     0.38644   0.83642   0.42365   0.00000  Uiso   1.00
H431   H     0.42363   0.81672   0.06547   0.00000  Uiso   1.00
H432   H     0.36421   0.83092   0.02226   0.00000  Uiso   1.00
H433   H     0.55061   0.78133   0.36182   0.00000  Uiso   1.00
H434   H     0.56663   0.96238   0.26803   0.00000  Uiso   1.00
N435   N     0.38093   0.83334   0.25001   0.00000  Uiso   1.00
N436   N     0.61906   0.83331   0.25001   0.00000  Uiso   1.00
O437   O     0.46179   0.89442   0.25001   0.00000  Uiso   1.00
O438   O     0.53823   0.89441   0.25001   0.00000  Uiso   1.00
O439   O     0.44280   0.83333   0.32681   0.00000  Uiso   1.00
O440   O     0.51924   0.83332   0.32681   0.00000  Uiso   1.00
O441   O     0.46177   0.77226   0.25000   0.00000  Uiso   1.00
O442   O     0.53821   0.77225   0.25000   0.00000  Uiso   1.00
O443   O     0.48076   0.83335   0.17319   0.00000  Uiso   1.00
O444   O     0.55720   0.83334   0.17319   0.00000  Uiso   1.00
Zn445  Zn    0.44896   0.83334   0.25000   0.00000  Uiso   1.00
Zn446  Zn    0.55104   0.83333   0.25000   0.00000  Uiso   1.00
I447   I     0.63762   0.76498   0.16156   0.00000  Uiso   1.00
I448   I     0.46869   0.75078   0.10950   0.00000  Uiso   1.00
C449   C     0.83325   0.91334   0.25016   0.00000  Uiso   1.00
C450   C     0.81510   0.80555   0.49037   0.00000  Uiso   1.00
C451   C     0.82730   0.80441   0.43355   0.00000  Uiso   1.00
C452   C     0.85209   0.80309   0.01344   0.00000  Uiso   1.00
C453   C     0.90000   0.80509   0.48017   0.00000  Uiso   1.00
C454   C     0.91102   0.79569   0.42548   0.00000  Uiso   1.00
C455   C     0.87433   0.79194   0.40328   0.00000  Uiso   1.00
C456   C     0.84292   0.80213   0.06884   0.00000  Uiso   1.00
C457   C     0.92213   0.82752   0.05743   0.00000  Uiso   1.00
C458   C     0.79328   0.81837   0.40923   0.00000  Uiso   1.00
C459   C     0.87079   0.97864   0.26017   0.00000  Uiso   1.00
C460   C     0.80770   0.82899   0.35161   0.00000  Uiso   1.00
C461   C     0.87084   0.68792   0.26014   0.00000  Uiso   1.00
C462   C     0.83327   0.70917   0.25036   0.00000  Uiso   1.00
C463   C     0.79549   0.68804   0.24094   0.00000  Uiso   1.00
C464   C     0.79545   0.97878   0.24093   0.00000  Uiso   1.00
C465   C     0.83314   0.95752   0.25044   0.00000  Uiso   1.00
C466   C     0.98588   0.80670   0.21707   0.00000  Uiso   1.00
C467   C     0.69987   0.80648   0.21801   0.00000  Uiso   1.00
C468   C     0.68129   0.86004   0.28274   0.00000  Uiso   1.00
C469   C     0.96666   0.85988   0.28295   0.00000  Uiso   1.00
C470   C     0.83334   0.75333   0.25009   0.00000  Uiso   1.00
C471   C     0.85944   0.83069   0.14815   0.00000  Uiso   1.00
C472   C     0.93528   0.81656   0.00265   0.00000  Uiso   1.00
C473   C     0.87521   0.82080   0.09066   0.00000  Uiso   1.00
C474   C     0.74621   0.82622   0.44152   0.00000  Uiso   1.00
C475   C     0.73344   0.82347   0.49744   0.00000  Uiso   1.00
C476   C     0.76762   0.81444   0.02189   0.00000  Uiso   1.00
H477   H     0.94845   0.83988   0.07409   0.00000  Uiso   1.00
H478   H     0.90001   0.70409   0.26800   0.00000  Uiso   1.00
H479   H     0.76624   0.70429   0.23321   0.00000  Uiso   1.00
H480   H     0.76623   0.96263   0.23314   0.00000  Uiso   1.00
H481   H     0.72504   0.78468   0.19317   0.00000  Uiso   1.00
H482   H     0.69191   0.88144   0.30892   0.00000  Uiso   1.00
H483   H     0.94112   0.88113   0.30931   0.00000  Uiso   1.00
H484   H     0.94764   0.79194   0.39991   0.00000  Uiso   1.00
H485   H     0.97188   0.81952   0.47737   0.00000  Uiso   1.00
H486   H     0.71978   0.83642   0.42365   0.00000  Uiso   1.00
H487   H     0.75696   0.81672   0.06547   0.00000  Uiso   1.00
H488   H     0.69755   0.83092   0.02226   0.00000  Uiso   1.00
H489   H     0.88395   0.78133   0.36182   0.00000  Uiso   1.00
H490   H     0.89996   0.96238   0.26803   0.00000  Uiso   1.00
N491   N     0.71426   0.83334   0.25001   0.00000  Uiso   1.00
N492   N     0.95239   0.83331   0.25001   0.00000  Uiso   1.00
O493   O     0.79512   0.89442   0.25001   0.00000  Uiso   1.00
O494   O     0.87157   0.89441   0.25001   0.00000  Uiso   1.00
O495   O     0.77613   0.83333   0.32681   0.00000  Uiso   1.00
O496   O     0.85258   0.83332   0.32681   0.00000  Uiso   1.00
O497   O     0.79510   0.77226   0.25000   0.00000  Uiso   1.00
O498   O     0.87154   0.77225   0.25000   0.00000  Uiso   1.00
O499   O     0.81409   0.83335   0.17319   0.00000  Uiso   1.00
O500   O     0.89053   0.83334   0.17319   0.00000  Uiso   1.00
Zn501  Zn    0.78229   0.83334   0.25000   0.00000  Uiso   1.00
Zn502  Zn    0.88438   0.83333   0.25000   0.00000  Uiso   1.00
I503   I     0.97095   0.76498   0.16156   0.00000  Uiso   1.00
I504   I     0.80202   0.75078   0.10950   0.00000  Uiso   1.00
C505   C     0.16659   0.24667   0.75016   0.00000  Uiso   1.00
C506   C     0.14843   0.13888   0.99037   0.00000  Uiso   1.00
C507   C     0.16063   0.13774   0.93355   0.00000  Uiso   1.00
C508   C     0.18542   0.13643   0.51344   0.00000  Uiso   1.00
C509   C     0.23333   0.13842   0.98017   0.00000  Uiso   1.00
C510   C     0.24435   0.12902   0.92548   0.00000  Uiso   1.00
C511   C     0.20766   0.12527   0.90328   0.00000  Uiso   1.00
C512   C     0.17625   0.13546   0.56884   0.00000  Uiso   1.00
C513   C     0.25546   0.16086   0.55743   0.00000  Uiso   1.00
C514   C     0.12661   0.15170   0.90923   0.00000  Uiso   1.00
C515   C     0.20412   0.31197   0.76017   0.00000  Uiso   1.00
C516   C     0.14103   0.16232   0.85161   0.00000  Uiso   1.00
C517   C     0.20418   0.02126   0.76014   0.00000  Uiso   1.00
C518   C     0.16660   0.04250   0.75036   0.00000  Uiso   1.00
C519   C     0.12882   0.02138   0.74094   0.00000  Uiso   1.00
C520   C     0.12878   0.31211   0.74093   0.00000  Uiso   1.00
C521   C     0.16647   0.29085   0.75044   0.00000  Uiso   1.00
C522   C     0.31921   0.14003   0.71707   0.00000  Uiso   1.00
C523   C     0.03321   0.13981   0.71801   0.00000  Uiso   1.00
C524   C     0.01462   0.19338   0.78274   0.00000  Uiso   1.00
C525   C     0.30000   0.19322   0.78295   0.00000  Uiso   1.00
C526   C     0.16667   0.08666   0.75009   0.00000  Uiso   1.00
C527   C     0.19278   0.16402   0.64815   0.00000  Uiso   1.00
C528   C     0.26861   0.14990   0.50265   0.00000  Uiso   1.00
C529   C     0.20854   0.15413   0.59066   0.00000  Uiso   1.00
C530   C     0.07954   0.15956   0.94152   0.00000  Uiso   1.00
C531   C     0.06677   0.15680   0.99744   0.00000  Uiso   1.00
C532   C     0.10096   0.14777   0.52189   0.00000  Uiso   1.00
H533   H     0.28179   0.17321   0.57409   0.00000  Uiso   1.00
H534   H     0.23334   0.03742   0.76800   0.00000  Uiso   1.00
H535   H     0.09957   0.03762   0.73321   0.00000  Uiso   1.00
H536   H     0.09957   0.29596   0.73314   0.00000  Uiso   1.00
H537   H     0.05837   0.11801   0.69317   0.00000  Uiso   1.00
H538   H     0.02525   0.21478   0.80892   0.00000  Uiso   1.00
H539   H     0.27445   0.21446   0.80931   0.00000  Uiso   1.00
H540   H     0.28097   0.12527   0.89991   0.00000  Uiso   1.00
H541   H     0.30522   0.15286   0.97737   0.00000  Uiso   1.00
H542   H     0.05311   0.16975   0.92365   0.00000  Uiso   1.00
H543   H     0.09029   0.15006   0.56547   0.00000  Uiso   1.00
H544   H     0.03088   0.16425   0.52226   0.00000  Uiso   1.00
H545   H     0.21728   0.11467   0.86182   0.00000  Uiso   1.00
H546   H     0.23330   0.29571   0.76803   0.00000  Uiso   1.00
N547   N     0.04760   0.16668   0.75001   0.00000  Uiso   1.00
N548   N     0.28573   0.16665   0.75001   0.00000  Uiso   1.00
O549   O     0.12846   0.22775   0.75001   0.00000  Uiso   1.00
O550   O     0.20490   0.22774   0.75001   0.00000  Uiso   1.00
O551   O     0.10947   0.16666   0.82681   0.00000  Uiso   1.00
O552   O     0.18591   0.16665   0.82681   0.00000  Uiso   1.00
O553   O     0.12843   0.10559   0.75000   0.00000  Uiso   1.00
O554   O     0.20488   0.10558   0.75000   0.00000  Uiso   1.00
O555   O     0.14742   0.16668   0.67319   0.00000  Uiso   1.00
O556   O     0.22387   0.16667   0.67319   0.00000  Uiso   1.00
Zn557  Zn    0.11562   0.16667   0.75000   0.00000  Uiso   1.00
Zn558  Zn    0.21771   0.16666   0.75000   0.00000  Uiso   1.00
I559   I     0.30428   0.09831   0.66156   0.00000  Uiso   1.00
I560   I     0.13535   0.08412   0.60950   0.00000  Uiso   1.00
C561   C     0.49992   0.24667   0.75016   0.00000  Uiso   1.00
C562   C     0.48176   0.13888   0.99037   0.00000  Uiso   1.00
C563   C     0.49396   0.13774   0.93355   0.00000  Uiso   1.00
C564   C     0.51876   0.13643   0.51344   0.00000  Uiso   1.00
C565   C     0.56666   0.13842   0.98017   0.00000  Uiso   1.00
C566   C     0.57768   0.12902   0.92548   0.00000  Uiso   1.00
C567   C     0.54099   0.12527   0.90328   0.00000  Uiso   1.00
C568   C     0.50958   0.13546   0.56884   0.00000  Uiso   1.00
C569   C     0.58880   0.16086   0.55743   0.00000  Uiso   1.00
C570   C     0.45994   0.15170   0.90923   0.00000  Uiso   1.00
C571   C     0.53746   0.31197   0.76017   0.00000  Uiso   1.00
C572   C     0.47437   0.16232   0.85161   0.00000  Uiso   1.00
C573   C     0.53751   0.02126   0.76014   0.00000  Uiso   1.00
C574   C     0.49993   0.04250   0.75036   0.00000  Uiso   1.00
C575   C     0.46215   0.02138   0.74094   0.00000  Uiso   1.00
C576   C     0.46211   0.31211   0.74093   0.00000  Uiso   1.00
C577   C     0.49981   0.29085   0.75044   0.00000  Uiso   1.00
C578   C     0.65254   0.14003   0.71707   0.00000  Uiso   1.00
C579   C     0.36654   0.13981   0.71801   0.00000  Uiso   1.00
C580   C     0.34796   0.19338   0.78274   0.00000  Uiso   1.00
C581   C     0.63333   0.19322   0.78295   0.00000  Uiso   1.00
C582   C     0.50001   0.08666   0.75009   0.00000  Uiso   1.00
C583   C     0.52611   0.16402   0.64815   0.00000  Uiso   1.00
C584   C     0.60195   0.14990   0.50265   0.00000  Uiso   1.00
C585   C     0.54187   0.15413   0.59066   0.00000  Uiso   1.00
C586   C     0.41288   0.15956   0.94152   0.00000  Uiso   1.00
C587   C     0.40010   0.15680   0.99744   0.00000  Uiso   1.00
C588   C     0.43429   0.14777   0.52189   0.00000  Uiso   1.00
H589   H     0.61512   0.17321   0.57409   0.00000  Uiso   1.00
H590   H     0.56668   0.03742   0.76800   0.00000  Uiso   1.00
H591   H     0.43291   0.03762   0.73321   0.00000  Uiso   1.00
H592   H     0.43290   0.29596   0.73314   0.00000  Uiso   1.00
H593   H     0.39170   0.11801   0.69317   0.00000  Uiso   1.00
H594   H     0.35858   0.21478   0.80892   0.00000  Uiso   1.00
H595   H     0.60778   0.21446   0.80931   0.00000  Uiso   1.00
H596   H     0.61431   0.12527   0.89991   0.00000  Uiso   1.00
H597   H     0.63855   0.15286   0.97737   0.00000  Uiso   1.00
H598   H     0.38644   0.16975   0.92365   0.00000  Uiso   1.00
H599   H     0.42363   0.15006   0.56547   0.00000  Uiso   1.00
H600   H     0.36421   0.16425   0.52226   0.00000  Uiso   1.00
H601   H     0.55061   0.11467   0.86182   0.00000  Uiso   1.00
H602   H     0.56663   0.29571   0.76803   0.00000  Uiso   1.00
N603   N     0.38093   0.16668   0.75001   0.00000  Uiso   1.00
N604   N     0.61906   0.16665   0.75001   0.00000  Uiso   1.00
O605   O     0.46179   0.22775   0.75001   0.00000  Uiso   1.00
O606   O     0.53823   0.22774   0.75001   0.00000  Uiso   1.00
O607   O     0.44280   0.16666   0.82681   0.00000  Uiso   1.00
O608   O     0.51924   0.16665   0.82681   0.00000  Uiso   1.00
O609   O     0.46177   0.10559   0.75000   0.00000  Uiso   1.00
O610   O     0.53821   0.10558   0.75000   0.00000  Uiso   1.00
O611   O     0.48076   0.16668   0.67319   0.00000  Uiso   1.00
O612   O     0.55720   0.16667   0.67319   0.00000  Uiso   1.00
Zn613  Zn    0.44896   0.16667   0.75000   0.00000  Uiso   1.00
Zn614  Zn    0.55104   0.16666   0.75000   0.00000  Uiso   1.00
I615   I     0.63762   0.09831   0.66156   0.00000  Uiso   1.00
I616   I     0.46869   0.08412   0.60950   0.00000  Uiso   1.00
C617   C     0.83325   0.24667   0.75016   0.00000  Uiso   1.00
C618   C     0.81510   0.13888   0.99037   0.00000  Uiso   1.00
C619   C     0.82730   0.13774   0.93355   0.00000  Uiso   1.00
C620   C     0.85209   0.13643   0.51344   0.00000  Uiso   1.00
C621   C     0.90000   0.13842   0.98017   0.00000  Uiso   1.00
C622   C     0.91102   0.12902   0.92548   0.00000  Uiso   1.00
C623   C     0.87433   0.12527   0.90328   0.00000  Uiso   1.00
C624   C     0.84292   0.13546   0.56884   0.00000  Uiso   1.00
C625   C     0.92213   0.16086   0.55743   0.00000  Uiso   1.00
C626   C     0.79328   0.15170   0.90923   0.00000  Uiso   1.00
C627   C     0.87079   0.31197   0.76017   0.00000  Uiso   1.00
C628   C     0.80770   0.16232   0.85161   0.00000  Uiso   1.00
C629   C     0.87084   0.02126   0.76014   0.00000  Uiso   1.00
C630   C     0.83327   0.04250   0.75036   0.00000  Uiso   1.00
C631   C     0.79549   0.02138   0.74094   0.00000  Uiso   1.00
C632   C     0.79545   0.31211   0.74093   0.00000  Uiso   1.00
C633   C     0.83314   0.29085   0.75044   0.00000  Uiso   1.00
C634   C     0.98588   0.14003   0.71707   0.00000  Uiso   1.00
C635   C     0.69987   0.13981   0.71801   0.00000  Uiso   1.00
C636   C     0.68129   0.19338   0.78274   0.00000  Uiso   1.00
C637   C     0.96666   0.19322   0.78295   0.00000  Uiso   1.00
C638   C     0.83334   0.08666   0.75009   0.00000  Uiso   1.00
C639   C     0.85944   0.16402   0.64815   0.00000  Uiso   1.00
C640   C     0.93528   0.14990   0.50265   0.00000  Uiso   1.00
C641   C     0.87521   0.15413   0.59066   0.00000  Uiso   1.00
C642   C     0.74621   0.15956   0.94152   0.00000  Uiso   1.00
C643   C     0.73344   0.15680   0.99744   0.00000  Uiso   1.00
C644   C     0.76762   0.14777   0.52189   0.00000  Uiso   1.00
H645   H     0.94845   0.17321   0.57409   0.00000  Uiso   1.00
H646   H     0.90001   0.03742   0.76800   0.00000  Uiso   1.00
H647   H     0.76624   0.03762   0.73321   0.00000  Uiso   1.00
H648   H     0.76623   0.29596   0.73314   0.00000  Uiso   1.00
H649   H     0.72504   0.11801   0.69317   0.00000  Uiso   1.00
H650   H     0.69191   0.21478   0.80892   0.00000  Uiso   1.00
H651   H     0.94112   0.21446   0.80931   0.00000  Uiso   1.00
H652   H     0.94764   0.12527   0.89991   0.00000  Uiso   1.00
H653   H     0.97188   0.15286   0.97737   0.00000  Uiso   1.00
H654   H     0.71978   0.16975   0.92365   0.00000  Uiso   1.00
H655   H     0.75696   0.15006   0.56547   0.00000  Uiso   1.00
H656   H     0.69755   0.16425   0.52226   0.00000  Uiso   1.00
H657   H     0.88395   0.11467   0.86182   0.00000  Uiso   1.00
H658   H     0.89996   0.29571   0.76803   0.00000  Uiso   1.00
N659   N     0.71426   0.16668   0.75001   0.00000  Uiso   1.00
N660   N     0.95239   0.16665   0.75001   0.00000  Uiso   1.00
O661   O     0.79512   0.22775   0.75001   0.00000  Uiso   1.00
O662   O     0.87157   0.22774   0.75001   0.00000  Uiso   1.00
O663   O     0.77613   0.16666   0.82681   0.00000  Uiso   1.00
O664   O     0.85258   0.16665   0.82681   0.00000  Uiso   1.00
O665   O     0.79510   0.10559   0.75000   0.00000  Uiso   1.00
O666   O     0.87154   0.10558   0.75000   0.00000  Uiso   1.00
O667   O     0.81409   0.16668   0.67319   0.00000  Uiso   1.00
O668   O     0.89053   0.16667   0.67319   0.00000  Uiso   1.00
Zn669  Zn    0.78229   0.16667   0.75000   0.00000  Uiso   1.00
Zn670  Zn    0.88438   0.16666   0.75000   0.00000  Uiso   1.00
I671   I     0.97095   0.09831   0.66156   0.00000  Uiso   1.00
I672   I     0.80202   0.08412   0.60950   0.00000  Uiso   1.00
C673   C     0.16659   0.58001   0.75016   0.00000  Uiso   1.00
C674   C     0.14843   0.47221   0.99037   0.00000  Uiso   1.00
C675   C     0.16063   0.47107   0.93355   0.00000  Uiso   1.00
C676   C     0.18542   0.46976   0.51344   0.00000  Uiso   1.00
C677   C     0.23333   0.47175   0.98017   0.00000  Uiso   1.00
C678   C     0.24435   0.46236   0.92548   0.00000  Uiso   1.00
C679   C     0.20766   0.45860   0.90328   0.00000  Uiso   1.00
C680   C     0.17625   0.46879   0.56884   0.00000  Uiso   1.00
C681   C     0.25546   0.49419   0.55743   0.00000  Uiso   1.00
C682   C     0.12661   0.48504   0.90923   0.00000  Uiso   1.00
C683   C     0.20412   0.64531   0.76017   0.00000  Uiso   1.00
C684   C     0.14103   0.49565   0.85161   0.00000  Uiso   1.00
C685   C     0.20418   0.35459   0.76014   0.00000  Uiso   1.00
C686   C     0.16660   0.37584   0.75036   0.00000  Uiso   1.00
C687   C     0.12882   0.35471   0.74094   0.00000  Uiso   1.00
C688   C     0.12878   0.64544   0.74093   0.00000  Uiso   1.00
C689   C     0.16647   0.62418   0.75044   0.00000  Uiso   1.00
C690   C     0.31921   0.47337   0.71707   0.00000  Uiso   1.00
C691   C     0.03321   0.47314   0.71801   0.00000  Uiso   1.00
C692   C     0.01462   0.52671   0.78274   0.00000  Uiso   1.00
C693   C     0.30000   0.52655   0.78295   0.00000  Uiso   1.00
C694   C     0.16667   0.42000   0.75009   0.00000  Uiso   1.00
C695   C     0.19278   0.49736   0.64815   0.00000  Uiso   1.00
C696   C     0.26861   0.48323   0.50265   0.00000  Uiso   1.00
C697   C     0.20854   0.48746   0.59066   0.00000  Uiso   1.00
C698   C     0.07954   0.49289   0.94152   0.00000  Uiso   1.00
C699   C     0.06677   0.49014   0.99744   0.00000  Uiso   1.00
C700   C     0.10096   0.48110   0.52189   0.00000  Uiso   1.00
H701   H     0.28179   0.50654   0.57409   0.00000  Uiso   1.00
H702   H     0.23334   0.37076   0.76800   0.00000  Uiso   1.00
H703   H     0.09957   0.37095   0.73321   0.00000  Uiso   1.00
H704   H     0.09957   0.62930   0.73314   0.00000  Uiso   1.00
H705   H     0.05837   0.45134   0.69317   0.00000  Uiso   1.00
H706   H     0.02525   0.54811   0.80892   0.00000  Uiso   1.00
H707   H     0.27445   0.54780   0.80931   0.00000  Uiso   1.00
H708   H     0.28097   0.45860   0.89991   0.00000  Uiso   1.00
H709   H     0.30522   0.48619   0.97737   0.00000  Uiso   1.00
H710   H     0.05311   0.50308   0.92365   0.00000  Uiso   1.00
H711   H     0.09029   0.48339   0.56547   0.00000  Uiso   1.00
H712   H     0.03088   0.49759   0.52226   0.00000  Uiso   1.00
H713   H     0.21728   0.44800   0.86182   0.00000  Uiso   1.00
H714   H     0.23330   0.62904   0.76803   0.00000  Uiso   1.00
N715   N     0.04760   0.50001   0.75001   0.00000  Uiso   1.00
N716   N     0.28573   0.49998   0.75001   0.00000  Uiso   1.00
O717   O     0.12846   0.56108   0.75001   0.00000  Uiso   1.00
O718   O     0.20490   0.56107   0.75001   0.00000  Uiso   1.00
O719   O     0.10947   0.50000   0.82681   0.00000  Uiso   1.00
O720   O     0.18591   0.49999   0.82681   0.00000  Uiso   1.00
O721   O     0.12843   0.43893   0.75000   0.00000  Uiso   1.00
O722   O     0.20488   0.43892   0.75000   0.00000  Uiso   1.00
O723   O     0.14742   0.50001   0.67319   0.00000  Uiso   1.00
O724   O     0.22387   0.50000   0.67319   0.00000  Uiso   1.00
Zn725  Zn    0.11562   0.50001   0.75000   0.00000  Uiso   1.00
Zn726  Zn    0.21771   0.49999   0.75000   0.00000  Uiso   1.00
I727   I     0.30428   0.43165   0.66156   0.00000  Uiso   1.00
I728   I     0.13535   0.41745   0.60950   0.00000  Uiso   1.00
C729   C     0.49992   0.58001   0.75016   0.00000  Uiso   1.00
C730   C     0.48176   0.47221   0.99037   0.00000  Uiso   1.00
C731   C     0.49396   0.47107   0.93355   0.00000  Uiso   1.00
C732   C     0.51876   0.46976   0.51344   0.00000  Uiso   1.00
C733   C     0.56666   0.47175   0.98017   0.00000  Uiso   1.00
C734   C     0.57768   0.46236   0.92548   0.00000  Uiso   1.00
C735   C     0.54099   0.45860   0.90328   0.00000  Uiso   1.00
C736   C     0.50958   0.46879   0.56884   0.00000  Uiso   1.00
C737   C     0.58880   0.49419   0.55743   0.00000  Uiso   1.00
C738   C     0.45994   0.48504   0.90923   0.00000  Uiso   1.00
C739   C     0.53746   0.64531   0.76017   0.00000  Uiso   1.00
C740   C     0.47437   0.49565   0.85161   0.00000  Uiso   1.00
C741   C     0.53751   0.35459   0.76014   0.00000  Uiso   1.00
C742   C     0.49993   0.37584   0.75036   0.00000  Uiso   1.00
C743   C     0.46215   0.35471   0.74094   0.00000  Uiso   1.00
C744   C     0.46211   0.64544   0.74093   0.00000  Uiso   1.00
C745   C     0.49981   0.62418   0.75044   0.00000  Uiso   1.00
C746   C     0.65254   0.47337   0.71707   0.00000  Uiso   1.00
C747   C     0.36654   0.47314   0.71801   0.00000  Uiso   1.00
C748   C     0.34796   0.52671   0.78274   0.00000  Uiso   1.00
C749   C     0.63333   0.52655   0.78295   0.00000  Uiso   1.00
C750   C     0.50001   0.42000   0.75009   0.00000  Uiso   1.00
C751   C     0.52611   0.49736   0.64815   0.00000  Uiso   1.00
C752   C     0.60195   0.48323   0.50265   0.00000  Uiso   1.00
C753   C     0.54187   0.48746   0.59066   0.00000  Uiso   1.00
C754   C     0.41288   0.49289   0.94152   0.00000  Uiso   1.00
C755   C     0.40010   0.49014   0.99744   0.00000  Uiso   1.00
C756   C     0.43429   0.48110   0.52189   0.00000  Uiso   1.00
H757   H     0.61512   0.50654   0.57409   0.00000  Uiso   1.00
H758   H     0.56668   0.37076   0.76800   0.00000  Uiso   1.00
H759   H     0.43291   0.37095   0.73321   0.00000  Uiso   1.00
H760   H     0.43290   0.62930   0.73314   0.00000  Uiso   1.00
H761   H     0.39170   0.45134   0.69317   0.00000  Uiso   1.00
H762   H     0.35858   0.54811   0.80892   0.00000  Uiso   1.00
H763   H     0.60778   0.54780   0.80931   0.00000  Uiso   1.00
H764   H     0.61431   0.45860   0.89991   0.00000  Uiso   1.00
H765   H     0.63855   0.48619   0.97737   0.00000  Uiso   1.00
H766   H     0.38644   0.50308   0.92365   0.00000  Uiso   1.00
H767   H     0.42363   0.48339   0.56547   0.00000  Uiso   1.00
H768   H     0.36421   0.49759   0.52226   0.00000  Uiso   1.00
H769   H     0.55061   0.44800   0.86182   0.00000  Uiso   1.00
H770   H     0.56663   0.62904   0.76803   0.00000  Uiso   1.00
N771   N     0.38093   0.50001   0.75001   0.00000  Uiso   1.00
N772   N     0.61906   0.49998   0.75001   0.00000  Uiso   1.00
O773   O     0.46179   0.56108   0.75001   0.00000  Uiso   1.00
O774   O     0.53823   0.56107   0.75001   0.00000  Uiso   1.00
O775   O     0.44280   0.50000   0.82681   0.00000  Uiso   1.00
O776   O     0.51924   0.49999   0.82681   0.00000  Uiso   1.00
O777   O     0.46177   0.43893   0.75000   0.00000  Uiso   1.00
O778   O     0.53821   0.43892   0.75000   0.00000  Uiso   1.00
O779   O     0.48076   0.50001   0.67319   0.00000  Uiso   1.00
O780   O     0.55720   0.50000   0.67319   0.00000  Uiso   1.00
Zn781  Zn    0.44896   0.50001   0.75000   0.00000  Uiso   1.00
Zn782  Zn    0.55104   0.49999   0.75000   0.00000  Uiso   1.00
I783   I     0.63762   0.43165   0.66156   0.00000  Uiso   1.00
I784   I     0.46869   0.41745   0.60950   0.00000  Uiso   1.00
C785   C     0.83325   0.58001   0.75016   0.00000  Uiso   1.00
C786   C     0.81510   0.47221   0.99037   0.00000  Uiso   1.00
C787   C     0.82730   0.47107   0.93355   0.00000  Uiso   1.00
C788   C     0.85209   0.46976   0.51344   0.00000  Uiso   1.00
C789   C     0.90000   0.47175   0.98017   0.00000  Uiso   1.00
C790   C     0.91102   0.46236   0.92548   0.00000  Uiso   1.00
C791   C     0.87433   0.45860   0.90328   0.00000  Uiso   1.00
C792   C     0.84292   0.46879   0.56884   0.00000  Uiso   1.00
C793   C     0.92213   0.49419   0.55743   0.00000  Uiso   1.00
C794   C     0.79328   0.48504   0.90923   0.00000  Uiso   1.00
C795   C     0.87079   0.64531   0.76017   0.00000  Uiso   1.00
C796   C     0.80770   0.49565   0.85161   0.00000  Uiso   1.00
C797   C     0.87084   0.35459   0.76014   0.00000  Uiso   1.00
C798   C     0.83327   0.37584   0.75036   0.00000  Uiso   1.00
C799   C     0.79549   0.35471   0.74094   0.00000  Uiso   1.00
C800   C     0.79545   0.64544   0.74093   0.00000  Uiso   1.00
C801   C     0.83314   0.62418   0.75044   0.00000  Uiso   1.00
C802   C     0.98588   0.47337   0.71707   0.00000  Uiso   1.00
C803   C     0.69987   0.47314   0.71801   0.00000  Uiso   1.00
C804   C     0.68129   0.52671   0.78274   0.00000  Uiso   1.00
C805   C     0.96666   0.52655   0.78295   0.00000  Uiso   1.00
C806   C     0.83334   0.42000   0.75009   0.00000  Uiso   1.00
C807   C     0.85944   0.49736   0.64815   0.00000  Uiso   1.00
C808   C     0.93528   0.48323   0.50265   0.00000  Uiso   1.00
C809   C     0.87521   0.48746   0.59066   0.00000  Uiso   1.00
C810   C     0.74621   0.49289   0.94152   0.00000  Uiso   1.00
C811   C     0.73344   0.49014   0.99744   0.00000  Uiso   1.00
C812   C     0.76762   0.48110   0.52189   0.00000  Uiso   1.00
H813   H     0.94845   0.50654   0.57409   0.00000  Uiso   1.00
H814   H     0.90001   0.37076   0.76800   0.00000  Uiso   1.00
H815   H     0.76624   0.37095   0.73321   0.00000  Uiso   1.00
H816   H     0.76623   0.62930   0.73314   0.00000  Uiso   1.00
H817   H     0.72504   0.45134   0.69317   0.00000  Uiso   1.00
H818   H     0.69191   0.54811   0.80892   0.00000  Uiso   1.00
H819   H     0.94112   0.54780   0.80931   0.00000  Uiso   1.00
H820   H     0.94764   0.45860   0.89991   0.00000  Uiso   1.00
H821   H     0.97188   0.48619   0.97737   0.00000  Uiso   1.00
H822   H     0.71978   0.50308   0.92365   0.00000  Uiso   1.00
H823   H     0.75696   0.48339   0.56547   0.00000  Uiso   1.00
H824   H     0.69755   0.49759   0.52226   0.00000  Uiso   1.00
H825   H     0.88395   0.44800   0.86182   0.00000  Uiso   1.00
H826   H     0.89996   0.62904   0.76803   0.00000  Uiso   1.00
N827   N     0.71426   0.50001   0.75001   0.00000  Uiso   1.00
N828   N     0.95239   0.49998   0.75001   0.00000  Uiso   1.00
O829   O     0.79512   0.56108   0.75001   0.00000  Uiso   1.00
O830   O     0.87157   0.56107   0.75001   0.00000  Uiso   1.00
O831   O     0.77613   0.50000   0.82681   0.00000  Uiso   1.00
O832   O     0.85258   0.49999   0.82681   0.00000  Uiso   1.00
O833   O     0.79510   0.43893   0.75000   0.00000  Uiso   1.00
O834   O     0.87154   0.43892   0.75000   0.00000  Uiso   1.00
O835   O     0.81409   0.50001   0.67319   0.00000  Uiso   1.00
O836   O     0.89053   0.50000   0.67319   0.00000  Uiso   1.00
Zn837  Zn    0.78229   0.50001   0.75000   0.00000  Uiso   1.00
Zn838  Zn    0.88438   0.49999   0.75000   0.00000  Uiso   1.00
I839   I     0.97095   0.43165   0.66156   0.00000  Uiso   1.00
I840   I     0.80202   0.41745   0.60950   0.00000  Uiso   1.00
C841   C     0.16659   0.91334   0.75016   0.00000  Uiso   1.00
C842   C     0.14843   0.80555   0.99037   0.00000  Uiso   1.00
C843   C     0.16063   0.80441   0.93355   0.00000  Uiso   1.00
C844   C     0.18542   0.80309   0.51344   0.00000  Uiso   1.00
C845   C     0.23333   0.80509   0.98017   0.00000  Uiso   1.00
C846   C     0.24435   0.79569   0.92548   0.00000  Uiso   1.00
C847   C     0.20766   0.79194   0.90328   0.00000  Uiso   1.00
C848   C     0.17625   0.80213   0.56884   0.00000  Uiso   1.00
C849   C     0.25546   0.82752   0.55743   0.00000  Uiso   1.00
C850   C     0.12661   0.81837   0.90923   0.00000  Uiso   1.00
C851   C     0.20412   0.97864   0.76017   0.00000  Uiso   1.00
C852   C     0.14103   0.82899   0.85161   0.00000  Uiso   1.00
C853   C     0.20418   0.68792   0.76014   0.00000  Uiso   1.00
C854   C     0.16660   0.70917   0.75036   0.00000  Uiso   1.00
C855   C     0.12882   0.68804   0.74094   0.00000  Uiso   1.00
C856   C     0.12878   0.97878   0.74093   0.00000  Uiso   1.00
C857   C     0.16647   0.95752   0.75044   0.00000  Uiso   1.00
C858   C     0.31921   0.80670   0.71707   0.00000  Uiso   1.00
C859   C     0.03321   0.80648   0.71801   0.00000  Uiso   1.00
C860   C     0.01462   0.86004   0.78274   0.00000  Uiso   1.00
C861   C     0.30000   0.85988   0.78295   0.00000  Uiso   1.00
C862   C     0.16667   0.75333   0.75009   0.00000  Uiso   1.00
C863   C     0.19278   0.83069   0.64815   0.00000  Uiso   1.00
C864   C     0.26861   0.81656   0.50265   0.00000  Uiso   1.00
C865   C     0.20854   0.82080   0.59066   0.00000  Uiso   1.00
C866   C     0.07954   0.82622   0.94152   0.00000  Uiso   1.00
C867   C     0.06677   0.82347   0.99744   0.00000  Uiso   1.00
C868   C     0.10096   0.81444   0.52189   0.00000  Uiso   1.00
H869   H     0.28179   0.83988   0.57409   0.00000  Uiso   1.00
H870   H     0.23334   0.70409   0.76800   0.00000  Uiso   1.00
H871   H     0.09957   0.70429   0.73321   0.00000  Uiso   1.00
H872   H     0.09957   0.96263   0.73314   0.00000  Uiso   1.00
H873   H     0.05837   0.78468   0.69317   0.00000  Uiso   1.00
H874   H     0.02525   0.88144   0.80892   0.00000  Uiso   1.00
H875   H     0.27445   0.88113   0.80931   0.00000  Uiso   1.00
H876   H     0.28097   0.79194   0.89991   0.00000  Uiso   1.00
H877   H     0.30522   0.81952   0.97737   0.00000  Uiso   1.00
H878   H     0.05311   0.83642   0.92365   0.00000  Uiso   1.00
H879   H     0.09029   0.81672   0.56547   0.00000  Uiso   1.00
H880   H     0.03088   0.83092   0.52226   0.00000  Uiso   1.00
H881   H     0.21728   0.78133   0.86182   0.00000  Uiso   1.00
H882   H     0.23330   0.96238   0.76803   0.00000  Uiso   1.00
N883   N     0.04760   0.83334   0.75001   0.00000  Uiso   1.00
N884   N     0.28573   0.83331   0.75001   0.00000  Uiso   1.00
O885   O     0.12846   0.89442   0.75001   0.00000  Uiso   1.00
O886   O     0.20490   0.89441   0.75001   0.00000  Uiso   1.00
O887   O     0.10947   0.83333   0.82681   0.00000  Uiso   1.00
O888   O     0.18591   0.83332   0.82681   0.00000  Uiso   1.00
O889   O     0.12843   0.77226   0.75000   0.00000  Uiso   1.00
O890   O     0.20488   0.77225   0.75000   0.00000  Uiso   1.00
O891   O     0.14742   0.83335   0.67319   0.00000  Uiso   1.00
O892   O     0.22387   0.83334   0.67319   0.00000  Uiso   1.00
Zn893  Zn    0.11562   0.83334   0.75000   0.00000  Uiso   1.00
Zn894  Zn    0.21771   0.83333   0.75000   0.00000  Uiso   1.00
I895   I     0.30428   0.76498   0.66156   0.00000  Uiso   1.00
I896   I     0.13535   0.75078   0.60950   0.00000  Uiso   1.00
C897   C     0.49992   0.91334   0.75016   0.00000  Uiso   1.00
C898   C     0.48176   0.80555   0.99037   0.00000  Uiso   1.00
C899   C     0.49396   0.80441   0.93355   0.00000  Uiso   1.00
C900   C     0.51876   0.80309   0.51344   0.00000  Uiso   1.00
C901   C     0.56666   0.80509   0.98017   0.00000  Uiso   1.00
C902   C     0.57768   0.79569   0.92548   0.00000  Uiso   1.00
C903   C     0.54099   0.79194   0.90328   0.00000  Uiso   1.00
C904   C     0.50958   0.80213   0.56884   0.00000  Uiso   1.00
C905   C     0.58880   0.82752   0.55743   0.00000  Uiso   1.00
C906   C     0.45994   0.81837   0.90923   0.00000  Uiso   1.00
C907   C     0.53746   0.97864   0.76017   0.00000  Uiso   1.00
C908   C     0.47437   0.82899   0.85161   0.00000  Uiso   1.00
C909   C     0.53751   0.68792   0.76014   0.00000  Uiso   1.00
C910   C     0.49993   0.70917   0.75036   0.00000  Uiso   1.00
C911   C     0.46215   0.68804   0.74094   0.00000  Uiso   1.00
C912   C     0.46211   0.97878   0.74093   0.00000  Uiso   1.00
C913   C     0.49981   0.95752   0.75044   0.00000  Uiso   1.00
C914   C     0.65254   0.80670   0.71707   0.00000  Uiso   1.00
C915   C     0.36654   0.80648   0.71801   0.00000  Uiso   1.00
C916   C     0.34796   0.86004   0.78274   0.00000  Uiso   1.00
C917   C     0.63333   0.85988   0.78295   0.00000  Uiso   1.00
C918   C     0.50001   0.75333   0.75009   0.00000  Uiso   1.00
C919   C     0.52611   0.83069   0.64815   0.00000  Uiso   1.00
C920   C     0.60195   0.81656   0.50265   0.00000  Uiso   1.00
C921   C     0.54187   0.82080   0.59066   0.00000  Uiso   1.00
C922   C     0.41288   0.82622   0.94152   0.00000  Uiso   1.00
C923   C     0.40010   0.82347   0.99744   0.00000  Uiso   1.00
C924   C     0.43429   0.81444   0.52189   0.00000  Uiso   1.00
H925   H     0.61512   0.83988   0.57409   0.00000  Uiso   1.00
H926   H     0.56668   0.70409   0.76800   0.00000  Uiso   1.00
H927   H     0.43291   0.70429   0.73321   0.00000  Uiso   1.00
H928   H     0.43290   0.96263   0.73314   0.00000  Uiso   1.00
H929   H     0.39170   0.78468   0.69317   0.00000  Uiso   1.00
H930   H     0.35858   0.88144   0.80892   0.00000  Uiso   1.00
H931   H     0.60778   0.88113   0.80931   0.00000  Uiso   1.00
H932   H     0.61431   0.79194   0.89991   0.00000  Uiso   1.00
H933   H     0.63855   0.81952   0.97737   0.00000  Uiso   1.00
H934   H     0.38644   0.83642   0.92365   0.00000  Uiso   1.00
H935   H     0.42363   0.81672   0.56547   0.00000  Uiso   1.00
H936   H     0.36421   0.83092   0.52226   0.00000  Uiso   1.00
H937   H     0.55061   0.78133   0.86182   0.00000  Uiso   1.00
H938   H     0.56663   0.96238   0.76803   0.00000  Uiso   1.00
N939   N     0.38093   0.83334   0.75001   0.00000  Uiso   1.00
N940   N     0.61906   0.83331   0.75001   0.00000  Uiso   1.00
O941   O     0.46179   0.89442   0.75001   0.00000  Uiso   1.00
O942   O     0.53823   0.89441   0.75001   0.00000  Uiso   1.00
O943   O     0.44280   0.83333   0.82681   0.00000  Uiso   1.00
O944   O     0.51924   0.83332   0.82681   0.00000  Uiso   1.00
O945   O     0.46177   0.77226   0.75000   0.00000  Uiso   1.00
O946   O     0.53821   0.77225   0.75000   0.00000  Uiso   1.00
O947   O     0.48076   0.83335   0.67319   0.00000  Uiso   1.00
O948   O     0.55720   0.83334   0.67319   0.00000  Uiso   1.00
Zn949  Zn    0.44896   0.83334   0.75000   0.00000  Uiso   1.00
Zn950  Zn    0.55104   0.83333   0.75000   0.00000  Uiso   1.00
I951   I     0.63762   0.76498   0.66156   0.00000  Uiso   1.00
I952   I     0.46869   0.75078   0.60950   0.00000  Uiso   1.00
C953   C     0.83325   0.91334   0.75016   0.00000  Uiso   1.00
C954   C     0.81510   0.80555   0.99037   0.00000  Uiso   1.00
C955   C     0.82730   0.80441   0.93355   0.00000  Uiso   1.00
C956   C     0.85209   0.80309   0.51344   0.00000  Uiso   1.00
C957   C     0.90000   0.80509   0.98017   0.00000  Uiso   1.00
C958   C     0.91102   0.79569   0.92548   0.00000  Uiso   1.00
C959   C     0.87433   0.79194   0.90328   0.00000  Uiso   1.00
C960   C     0.84292   0.80213   0.56884   0.00000  Uiso   1.00
C961   C     0.92213   0.82752   0.55743   0.00000  Uiso   1.00
C962   C     0.79328   0.81837   0.90923   0.00000  Uiso   1.00
C963   C     0.87079   0.97864   0.76017   0.00000  Uiso   1.00
C964   C     0.80770   0.82899   0.85161   0.00000  Uiso   1.00
C965   C     0.87084   0.68792   0.76014   0.00000  Uiso   1.00
C966   C     0.83327   0.70917   0.75036   0.00000  Uiso   1.00
C967   C     0.79549   0.68804   0.74094   0.00000  Uiso   1.00
C968   C     0.79545   0.97878   0.74093   0.00000  Uiso   1.00
C969   C     0.83314   0.95752   0.75044   0.00000  Uiso   1.00
C970   C     0.98588   0.80670   0.71707   0.00000  Uiso   1.00
C971   C     0.69987   0.80648   0.71801   0.00000  Uiso   1.00
C972   C     0.68129   0.86004   0.78274   0.00000  Uiso   1.00
C973   C     0.96666   0.85988   0.78295   0.00000  Uiso   1.00
C974   C     0.83334   0.75333   0.75009   0.00000  Uiso   1.00
C975   C     0.85944   0.83069   0.64815   0.00000  Uiso   1.00
C976   C     0.93528   0.81656   0.50265   0.00000  Uiso   1.00
C977   C     0.87521   0.82080   0.59066   0.00000  Uiso   1.00
C978   C     0.74621   0.82622   0.94152   0.00000  Uiso   1.00
C979   C     0.73344   0.82347   0.99744   0.00000  Uiso   1.00
C980   C     0.76762   0.81444   0.52189   0.00000  Uiso   1.00
H981   H     0.94845   0.83988   0.57409   0.00000  Uiso   1.00
H982   H     0.90001   0.70409   0.76800   0.00000  Uiso   1.00
H983   H     0.76624   0.70429   0.73321   0.00000  Uiso   1.00
H984   H     0.76623   0.96263   0.73314   0.00000  Uiso   1.00
H985   H     0.72504   0.78468   0.69317   0.00000  Uiso   1.00
H986   H     0.69191   0.88144   0.80892   0.00000  Uiso   1.00
H987   H     0.94112   0.88113   0.80931   0.00000  Uiso   1.00
H988   H     0.94764   0.79194   0.89991   0.00000  Uiso   1.00
H989   H     0.97188   0.81952   0.97737   0.00000  Uiso   1.00
H990   H     0.71978   0.83642   0.92365   0.00000  Uiso   1.00
H991   H     0.75696   0.81672   0.56547   0.00000  Uiso   1.00
H992   H     0.69755   0.83092   0.52226   0.00000  Uiso   1.00
H993   H     0.88395   0.78133   0.86182   0.00000  Uiso   1.00
H994   H     0.89996   0.96238   0.76803   0.00000  Uiso   1.00
N995   N     0.71426   0.83334   0.75001   0.00000  Uiso   1.00
N996   N     0.95239   0.83331   0.75001   0.00000  Uiso   1.00
O997   O     0.79512   0.89442   0.75001   0.00000  Uiso   1.00
O998   O     0.87157   0.89441   0.75001   0.00000  Uiso   1.00
O999   O     0.77613   0.83333   0.82681   0.00000  Uiso   1.00
O1000  O     0.85258   0.83332   0.82681   0.00000  Uiso   1.00
O1001  O     0.79510   0.77226   0.75000   0.00000  Uiso   1.00
O1002  O     0.87154   0.77225   0.75000   0.00000  Uiso   1.00
O1003  O     0.81409   0.83335   0.67319   0.00000  Uiso   1.00
O1004  O     0.89053   0.83334   0.67319   0.00000  Uiso   1.00
Zn1005 Zn    0.78229   0.83334   0.75000   0.00000  Uiso   1.00
Zn1006 Zn    0.88438   0.83333   0.75000   0.00000  Uiso   1.00
I1007  I     0.97095   0.76498   0.66156   0.00000  Uiso   1.00
I1008  I     0.80202   0.75078   0.60950   0.00000  Uiso   1.00
loop_
_geom_bond_atom_site_label_1
_geom_bond_atom_site_label_2
_geom_bond_distance
_geom_bond_site_symmetry_2
_ccdc_geom_bond_type
C1     C17     1.420   .     S
C1     O45     1.287   .     A
C1     O46     1.285   .     A
C2     C3      1.410   .     A
C2     C508    1.411   .     S
C2     C532    1.412   .     S
C3     C10     1.425   .     A
C3     C7      1.420   .     A
C4     C8      1.384   .     A
C4     C506    1.411   1_554 S
C4     C509    1.411   1_554 S
C5     C6      1.390   .     A
C5     C508    1.411   .     S
C5     C528    1.401   .     S
C6     H36     1.084   .     S
C6     C7      1.391   .     A
C7     H41     1.080   .     S
C8     I56     2.132   .     S
C8     C25     1.395   .     A
C9     C24     1.399   .     A
C9     H29     1.082   .     S
C9     C25     1.404   .     A
C10    C12     1.470   .     S
C10    C26     1.402   .     A
C11    H42     1.084   .     S
C11    C17     1.398   .     A
C11    C181    1.370   .     S
C12    O48     1.289   .     A
C12    O47     1.304   .     A
C13    H30     1.084   .     S
C13    C14     1.397   .     A
C13    C347    1.370   1_545 S
C14    C22     1.420   .     S
C14    C15     1.398   .     A
C15    H31     1.084   .     S
C15    C352    1.369   1_545 S
C16    H32     1.084   .     S
C16    C17     1.397   .     A
C16    C183    1.369   .     S
C18    N44     1.376   .     A
C18    I55     2.115   .     S
C18    C75     1.411   .     S
C19    N43     1.358   .     A
C19    H33     1.072   .     S
C19    C130    1.411   1_455 S
C20    H34     1.082   .     S
C20    N43     1.368   .     A
C20    C133    1.420   1_455 S
C21    H35     1.082   .     S
C21    N44     1.367   .     A
C21    C76     1.420   .     S
C22    O50     1.287   .     A
C22    O49     1.285   .     A
C23    O52     1.291   .     A
C23    C25     1.455   .     S
C23    O51     1.296   .     A
C24    C509    1.401   1_554 S
C24    H541    1.080   1_554 S
C26    C27     1.390   .     A
C26    H38     1.083   .     S
C27    C532    1.389   .     S
C27    H544    1.080   .     S
C28    H39     1.081   .     S
C28    C531    1.389   1_554 S
C28    C506    1.412   1_554 S
H37    C528    1.080   .     S
H40    C531    1.080   1_554 S
N43    Zn53    2.016   .     S
N44    Zn54    2.016   .     S
O45    Zn53    2.001   .     S
O46    Zn54    1.998   .     S
O47    Zn53    1.954   .     S
O48    Zn54    1.925   .     S
O49    Zn53    1.998   .     S
O50    Zn54    2.001   .     S
O51    Zn53    1.925   .     S
O52    Zn54    1.954   .     S
C57    C73     1.420   .     S
C57    O101    1.287   .     A
C57    O102    1.285   .     A
C58    C59     1.410   .     A
C58    C564    1.411   .     S
C58    C588    1.412   .     S
C59    C66     1.425   .     A
C59    C63     1.420   .     A
C60    C64     1.384   .     A
C60    C562    1.411   1_554 S
C60    C565    1.411   1_554 S
C61    C62     1.390   .     A
C61    C564    1.411   .     S
C61    C584    1.401   .     S
C62    H92     1.084   .     S
C62    C63     1.391   .     A
C63    H97     1.080   .     S
C64    I112    2.132   .     S
C64    C81     1.395   .     A
C65    C80     1.399   .     A
C65    H85     1.082   .     S
C65    C81     1.404   .     A
C66    C68     1.470   .     S
C66    C82     1.402   .     A
C67    H98     1.084   .     S
C67    C73     1.398   .     A
C67    C237    1.370   .     S
C68    O104    1.289   .     A
C68    O103    1.304   .     A
C69    H86     1.084   .     S
C69    C70     1.397   .     A
C69    C403    1.370   1_545 S
C70    C78     1.420   .     S
C70    C71     1.398   .     A
C71    H87     1.084   .     S
C71    C408    1.369   1_545 S
C72    H88     1.084   .     S
C72    C73     1.397   .     A
C72    C239    1.369   .     S
C74    N100    1.376   .     A
C74    I111    2.115   .     S
C74    C131    1.411   .     S
C75    N99     1.358   .     A
C75    H89     1.072   .     S
C76    H90     1.082   .     S
C76    N99     1.368   .     A
C77    H91     1.082   .     S
C77    N100    1.367   .     A
C77    C132    1.420   .     S
C78    O106    1.287   .     A
C78    O105    1.285   .     A
C79    O108    1.291   .     A
C79    C81     1.455   .     S
C79    O107    1.296   .     A
C80    C565    1.401   1_554 S
C80    H597    1.080   1_554 S
C82    C83     1.390   .     A
C82    H94     1.083   .     S
C83    C588    1.389   .     S
C83    H600    1.080   .     S
C84    H95     1.081   .     S
C84    C587    1.389   1_554 S
C84    C562    1.412   1_554 S
H93    C584    1.080   .     S
H96    C587    1.080   1_554 S
N99    Zn109   2.016   .     S
N100   Zn110   2.016   .     S
O101   Zn109   2.001   .     S
O102   Zn110   1.998   .     S
O103   Zn109   1.954   .     S
O104   Zn110   1.925   .     S
O105   Zn109   1.998   .     S
O106   Zn110   2.001   .     S
O107   Zn109   1.925   .     S
O108   Zn110   1.954   .     S
C113   C129    1.420   .     S
C113   O157    1.287   .     A
C113   O158    1.285   .     A
C114   C115    1.410   .     A
C114   C620    1.411   .     S
C114   C644    1.412   .     S
C115   C122    1.425   .     A
C115   C119    1.420   .     A
C116   C120    1.384   .     A
C116   C618    1.411   1_554 S
C116   C621    1.411   1_554 S
C117   C118    1.390   .     A
C117   C620    1.411   .     S
C117   C640    1.401   .     S
C118   H148    1.084   .     S
C118   C119    1.391   .     A
C119   H153    1.080   .     S
C120   I168    2.132   .     S
C120   C137    1.395   .     A
C121   C136    1.399   .     A
C121   H141    1.082   .     S
C121   C137    1.404   .     A
C122   C124    1.470   .     S
C122   C138    1.402   .     A
C123   H154    1.084   .     S
C123   C129    1.398   .     A
C123   C293    1.370   .     S
C124   O160    1.289   .     A
C124   O159    1.304   .     A
C125   H142    1.084   .     S
C125   C126    1.397   .     A
C125   C459    1.370   1_545 S
C126   C134    1.420   .     S
C126   C127    1.398   .     A
C127   H143    1.084   .     S
C127   C464    1.369   1_545 S
C128   H144    1.084   .     S
C128   C129    1.397   .     A
C128   C295    1.369   .     S
C130   N156    1.376   .     A
C130   I167    2.115   .     S
C130   C19     1.411   1_655 S
C131   N155    1.358   .     A
C131   H145    1.072   .     S
C132   H146    1.082   .     S
C132   N155    1.368   .     A
C133   H147    1.082   .     S
C133   N156    1.367   .     A
C133   C20     1.420   1_655 S
C134   O162    1.287   .     A
C134   O161    1.285   .     A
C135   O164    1.291   .     A
C135   C137    1.455   .     S
C135   O163    1.296   .     A
C136   C621    1.401   1_554 S
C136   H653    1.080   1_554 S
C138   C139    1.390   .     A
C138   H150    1.083   .     S
C139   C644    1.389   .     S
C139   H656    1.080   .     S
C140   H151    1.081   .     S
C140   C643    1.389   1_554 S
C140   C618    1.412   1_554 S
H149   C640    1.080   .     S
H152   C643    1.080   1_554 S
N155   Zn165   2.016   .     S
N156   Zn166   2.016   .     S
O157   Zn165   2.001   .     S
O158   Zn166   1.998   .     S
O159   Zn165   1.954   .     S
O160   Zn166   1.925   .     S
O161   Zn165   1.998   .     S
O162   Zn166   2.001   .     S
O163   Zn165   1.925   .     S
O164   Zn166   1.954   .     S
C169   C185    1.420   .     S
C169   O213    1.287   .     A
C169   O214    1.285   .     A
C170   C171    1.410   .     A
C170   C676    1.411   .     S
C170   C700    1.412   .     S
C171   C178    1.425   .     A
C171   C175    1.420   .     A
C172   C176    1.384   .     A
C172   C674    1.411   1_554 S
C172   C677    1.411   1_554 S
C173   C174    1.390   .     A
C173   C676    1.411   .     S
C173   C696    1.401   .     S
C174   H204    1.084   .     S
C174   C175    1.391   .     A
C175   H209    1.080   .     S
C176   I224    2.132   .     S
C176   C193    1.395   .     A
C177   C192    1.399   .     A
C177   H197    1.082   .     S
C177   C193    1.404   .     A
C178   C180    1.470   .     S
C178   C194    1.402   .     A
C179   H210    1.084   .     S
C179   C185    1.398   .     A
C179   C349    1.370   .     S
C180   O216    1.289   .     A
C180   O215    1.304   .     A
C181   H198    1.084   .     S
C181   C182    1.397   .     A
C182   C190    1.420   .     S
C182   C183    1.398   .     A
C183   H199    1.084   .     S
C184   H200    1.084   .     S
C184   C185    1.397   .     A
C184   C351    1.369   .     S
C186   N212    1.376   .     A
C186   I223    2.115   .     S
C186   C243    1.411   .     S
C187   N211    1.358   .     A
C187   H201    1.072   .     S
C187   C298    1.411   1_455 S
C188   H202    1.082   .     S
C188   N211    1.368   .     A
C188   C301    1.420   1_455 S
C189   H203    1.082   .     S
C189   N212    1.367   .     A
C189   C244    1.420   .     S
C190   O218    1.287   .     A
C190   O217    1.285   .     A
C191   O220    1.291   .     A
C191   C193    1.455   .     S
C191   O219    1.296   .     A
C192   C677    1.401   1_554 S
C192   H709    1.080   1_554 S
C194   C195    1.390   .     A
C194   H206    1.083   .     S
C195   C700    1.389   .     S
C195   H712    1.080   .     S
C196   H207    1.081   .     S
C196   C699    1.389   1_554 S
C196   C674    1.412   1_554 S
H205   C696    1.080   .     S
H208   C699    1.080   1_554 S
N211   Zn221   2.016   .     S
N212   Zn222   2.016   .     S
O213   Zn221   2.001   .     S
O214   Zn222   1.998   .     S
O215   Zn221   1.954   .     S
O216   Zn222   1.925   .     S
O217   Zn221   1.998   .     S
O218   Zn222   2.001   .     S
O219   Zn221   1.925   .     S
O220   Zn222   1.954   .     S
C225   C241    1.420   .     S
C225   O269    1.287   .     A
C225   O270    1.285   .     A
C226   C227    1.410   .     A
C226   C732    1.411   .     S
C226   C756    1.412   .     S
C227   C234    1.425   .     A
C227   C231    1.420   .     A
C228   C232    1.384   .     A
C228   C730    1.411   1_554 S
C228   C733    1.411   1_554 S
C229   C230    1.390   .     A
C229   C732    1.411   .     S
C229   C752    1.401   .     S
C230   H260    1.084   .     S
C230   C231    1.391   .     A
C231   H265    1.080   .     S
C232   I280    2.132   .     S
C232   C249    1.395   .     A
C233   C248    1.399   .     A
C233   H253    1.082   .     S
C233   C249    1.404   .     A
C234   C236    1.470   .     S
C234   C250    1.402   .     A
C235   H266    1.084   .     S
C235   C241    1.398   .     A
C235   C405    1.370   .     S
C236   O272    1.289   .     A
C236   O271    1.304   .     A
C237   H254    1.084   .     S
C237   C238    1.397   .     A
C238   C246    1.420   .     S
C238   C239    1.398   .     A
C239   H255    1.084   .     S
C240   H256    1.084   .     S
C240   C241    1.397   .     A
C240   C407    1.369   .     S
C242   N268    1.376   .     A
C242   I279    2.115   .     S
C242   C299    1.411   .     S
C243   N267    1.358   .     A
C243   H257    1.072   .     S
C244   H258    1.082   .     S
C244   N267    1.368   .     A
C245   H259    1.082   .     S
C245   N268    1.367   .     A
C245   C300    1.420   .     S
C246   O274    1.287   .     A
C246   O273    1.285   .     A
C247   O276    1.291   .     A
C247   C249    1.455   .     S
C247   O275    1.296   .     A
C248   C733    1.401   1_554 S
C248   H765    1.080   1_554 S
C250   C251    1.390   .     A
C250   H262    1.083   .     S
C251   C756    1.389   .     S
C251   H768    1.080   .     S
C252   H263    1.081   .     S
C252   C755    1.389   1_554 S
C252   C730    1.412   1_554 S
H261   C752    1.080   .     S
H264   C755    1.080   1_554 S
N267   Zn277   2.016   .     S
N268   Zn278   2.016   .     S
O269   Zn277   2.001   .     S
O270   Zn278   1.998   .     S
O271   Zn277   1.954   .     S
O272   Zn278   1.925   .     S
O273   Zn277   1.998   .     S
O274   Zn278   2.001   .     S
O275   Zn277   1.925   .     S
O276   Zn278   1.954   .     S
C281   C297    1.420   .     S
C281   O325    1.287   .     A
C281   O326    1.285   .     A
C282   C283    1.410   .     A
C282   C788    1.411   .     S
C282   C812    1.412   .     S
C283   C290    1.425   .     A
C283   C287    1.420   .     A
C284   C288    1.384   .     A
C284   C786    1.411   1_554 S
C284   C789    1.411   1_554 S
C285   C286    1.390   .     A
C285   C788    1.411   .     S
C285   C808    1.401   .     S
C286   H316    1.084   .     S
C286   C287    1.391   .     A
C287   H321    1.080   .     S
C288   I336    2.132   .     S
C288   C305    1.395   .     A
C289   C304    1.399   .     A
C289   H309    1.082   .     S
C289   C305    1.404   .     A
C290   C292    1.470   .     S
C290   C306    1.402   .     A
C291   H322    1.084   .     S
C291   C297    1.398   .     A
C291   C461    1.370   .     S
C292   O328    1.289   .     A
C292   O327    1.304   .     A
C293   H310    1.084   .     S
C293   C294    1.397   .     A
C294   C302    1.420   .     S
C294   C295    1.398   .     A
C295   H311    1.084   .     S
C296   H312    1.084   .     S
C296   C297    1.397   .     A
C296   C463    1.369   .     S
C298   N324    1.376   .     A
C298   I335    2.115   .     S
C298   C187    1.411   1_655 S
C299   N323    1.358   .     A
C299   H313    1.072   .     S
C300   H314    1.082   .     S
C300   N323    1.368   .     A
C301   H315    1.082   .     S
C301   N324    1.367   .     A
C301   C188    1.420   1_655 S
C302   O330    1.287   .     A
C302   O329    1.285   .     A
C303   O332    1.291   .     A
C303   C305    1.455   .     S
C303   O331    1.296   .     A
C304   C789    1.401   1_554 S
C304   H821    1.080   1_554 S
C306   C307    1.390   .     A
C306   H318    1.083   .     S
C307   C812    1.389   .     S
C307   H824    1.080   .     S
C308   H319    1.081   .     S
C308   C811    1.389   1_554 S
C308   C786    1.412   1_554 S
H317   C808    1.080   .     S
H320   C811    1.080   1_554 S
N323   Zn333   2.016   .     S
N324   Zn334   2.016   .     S
O325   Zn333   2.001   .     S
O326   Zn334   1.998   .     S
O327   Zn333   1.954   .     S
O328   Zn334   1.925   .     S
O329   Zn333   1.998   .     S
O330   Zn334   2.001   .     S
O331   Zn333   1.925   .     S
O332   Zn334   1.954   .     S
C337   C353    1.420   .     S
C337   O381    1.287   .     A
C337   O382    1.285   .     A
C338   C339    1.410   .     A
C338   C844    1.411   .     S
C338   C868    1.412   .     S
C339   C346    1.425   .     A
C339   C343    1.420   .     A
C340   C344    1.384   .     A
C340   C842    1.411   1_554 S
C340   C845    1.411   1_554 S
C341   C342    1.390   .     A
C341   C844    1.411   .     S
C341   C864    1.401   .     S
C342   H372    1.084   .     S
C342   C343    1.391   .     A
C343   H377    1.080   .     S
C344   I392    2.132   .     S
C344   C361    1.395   .     A
C345   C360    1.399   .     A
C345   H365    1.082   .     S
C345   C361    1.404   .     A
C346   C348    1.470   .     S
C346   C362    1.402   .     A
C347   H378    1.084   .     S
C347   C353    1.398   .     A
C347   C13     1.370   1_565 S
C348   O384    1.289   .     A
C348   O383    1.304   .     A
C349   H366    1.084   .     S
C349   C350    1.397   .     A
C350   C358    1.420   .     S
C350   C351    1.398   .     A
C351   H367    1.084   .     S
C352   H368    1.084   .     S
C352   C353    1.397   .     A
C352   C15     1.369   1_565 S
C354   N380    1.376   .     A
C354   I391    2.115   .     S
C354   C411    1.411   .     S
C355   N379    1.358   .     A
C355   H369    1.072   .     S
C355   C466    1.411   1_455 S
C356   H370    1.082   .     S
C356   N379    1.368   .     A
C356   C469    1.420   1_455 S
C357   H371    1.082   .     S
C357   N380    1.367   .     A
C357   C412    1.420   .     S
C358   O386    1.287   .     A
C358   O385    1.285   .     A
C359   O388    1.291   .     A
C359   C361    1.455   .     S
C359   O387    1.296   .     A
C360   C845    1.401   1_554 S
C360   H877    1.080   1_554 S
C362   C363    1.390   .     A
C362   H374    1.083   .     S
C363   C868    1.389   .     S
C363   H880    1.080   .     S
C364   H375    1.081   .     S
C364   C867    1.389   1_554 S
C364   C842    1.412   1_554 S
H373   C864    1.080   .     S
H376   C867    1.080   1_554 S
N379   Zn389   2.016   .     S
N380   Zn390   2.016   .     S
O381   Zn389   2.001   .     S
O382   Zn390   1.998   .     S
O383   Zn389   1.954   .     S
O384   Zn390   1.925   .     S
O385   Zn389   1.998   .     S
O386   Zn390   2.001   .     S
O387   Zn389   1.925   .     S
O388   Zn390   1.954   .     S
C393   C409    1.420   .     S
C393   O437    1.287   .     A
C393   O438    1.285   .     A
C394   C395    1.410   .     A
C394   C900    1.411   .     S
C394   C924    1.412   .     S
C395   C402    1.425   .     A
C395   C399    1.420   .     A
C396   C400    1.384   .     A
C396   C898    1.411   1_554 S
C396   C901    1.411   1_554 S
C397   C398    1.390   .     A
C397   C900    1.411   .     S
C397   C920    1.401   .     S
C398   H428    1.084   .     S
C398   C399    1.391   .     A
C399   H433    1.080   .     S
C400   I448    2.132   .     S
C400   C417    1.395   .     A
C401   C416    1.399   .     A
C401   H421    1.082   .     S
C401   C417    1.404   .     A
C402   C404    1.470   .     S
C402   C418    1.402   .     A
C403   H434    1.084   .     S
C403   C409    1.398   .     A
C403   C69     1.370   1_565 S
C404   O440    1.289   .     A
C404   O439    1.304   .     A
C405   H422    1.084   .     S
C405   C406    1.397   .     A
C406   C414    1.420   .     S
C406   C407    1.398   .     A
C407   H423    1.084   .     S
C408   H424    1.084   .     S
C408   C409    1.397   .     A
C408   C71     1.369   1_565 S
C410   N436    1.376   .     A
C410   I447    2.115   .     S
C410   C467    1.411   .     S
C411   N435    1.358   .     A
C411   H425    1.072   .     S
C412   H426    1.082   .     S
C412   N435    1.368   .     A
C413   H427    1.082   .     S
C413   N436    1.367   .     A
C413   C468    1.420   .     S
C414   O442    1.287   .     A
C414   O441    1.285   .     A
C415   O444    1.291   .     A
C415   C417    1.455   .     S
C415   O443    1.296   .     A
C416   C901    1.401   1_554 S
C416   H933    1.080   1_554 S
C418   C419    1.390   .     A
C418   H430    1.083   .     S
C419   C924    1.389   .     S
C419   H936    1.080   .     S
C420   H431    1.081   .     S
C420   C923    1.389   1_554 S
C420   C898    1.412   1_554 S
H429   C920    1.080   .     S
H432   C923    1.080   1_554 S
N435   Zn445   2.016   .     S
N436   Zn446   2.016   .     S
O437   Zn445   2.001   .     S
O438   Zn446   1.998   .     S
O439   Zn445   1.954   .     S
O440   Zn446   1.925   .     S
O441   Zn445   1.998   .     S
O442   Zn446   2.001   .     S
O443   Zn445   1.925   .     S
O444   Zn446   1.954   .     S
C449   C465    1.420   .     S
C449   O493    1.287   .     A
C449   O494    1.285   .     A
C450   C451    1.410   .     A
C450   C956    1.411   .     S
C450   C980    1.412   .     S
C451   C458    1.425   .     A
C451   C455    1.420   .     A
C452   C456    1.384   .     A
C452   C954    1.411   1_554 S
C452   C957    1.411   1_554 S
C453   C454    1.390   .     A
C453   C956    1.411   .     S
C453   C976    1.401   .     S
C454   H484    1.084   .     S
C454   C455    1.391   .     A
C455   H489    1.080   .     S
C456   I504    2.132   .     S
C456   C473    1.395   .     A
C457   C472    1.399   .     A
C457   H477    1.082   .     S
C457   C473    1.404   .     A
C458   C460    1.470   .     S
C458   C474    1.402   .     A
C459   H490    1.084   .     S
C459   C465    1.398   .     A
C459   C125    1.370   1_565 S
C460   O496    1.289   .     A
C460   O495    1.304   .     A
C461   H478    1.084   .     S
C461   C462    1.397   .     A
C462   C470    1.420   .     S
C462   C463    1.398   .     A
C463   H479    1.084   .     S
C464   H480    1.084   .     S
C464   C465    1.397   .     A
C464   C127    1.369   1_565 S
C466   N492    1.376   .     A
C466   I503    2.115   .     S
C466   C355    1.411   1_655 S
C467   N491    1.358   .     A
C467   H481    1.072   .     S
C468   H482    1.082   .     S
C468   N491    1.368   .     A
C469   H483    1.082   .     S
C469   N492    1.367   .     A
C469   C356    1.420   1_655 S
C470   O498    1.287   .     A
C470   O497    1.285   .     A
C471   O500    1.291   .     A
C471   C473    1.455   .     S
C471   O499    1.296   .     A
C472   C957    1.401   1_554 S
C472   H989    1.080   1_554 S
C474   C475    1.390   .     A
C474   H486    1.083   .     S
C475   C980    1.389   .     S
C475   H992    1.080   .     S
C476   H487    1.081   .     S
C476   C979    1.389   1_554 S
C476   C954    1.412   1_554 S
H485   C976    1.080   .     S
H488   C979    1.080   1_554 S
N491   Zn501   2.016   .     S
N492   Zn502   2.016   .     S
O493   Zn501   2.001   .     S
O494   Zn502   1.998   .     S
O495   Zn501   1.954   .     S
O496   Zn502   1.925   .     S
O497   Zn501   1.998   .     S
O498   Zn502   2.001   .     S
O499   Zn501   1.925   .     S
O500   Zn502   1.954   .     S
C505   C521    1.420   .     S
C505   O549    1.287   .     A
C505   O550    1.285   .     A
C506   C507    1.410   .     A
C506   C4      1.411   1_556 S
C506   C28     1.412   1_556 S
C507   C514    1.425   .     A
C507   C511    1.420   .     A
C508   C512    1.384   .     A
C509   C510    1.390   .     A
C509   C4      1.411   1_556 S
C509   C24     1.401   1_556 S
C510   H540    1.084   .     S
C510   C511    1.391   .     A
C511   H545    1.080   .     S
C512   I560    2.132   .     S
C512   C529    1.395   .     A
C513   C528    1.399   .     A
C513   H533    1.082   .     S
C513   C529    1.404   .     A
C514   C516    1.470   .     S
C514   C530    1.402   .     A
C515   H546    1.084   .     S
C515   C521    1.398   .     A
C515   C685    1.370   .     S
C516   O552    1.289   .     A
C516   O551    1.304   .     A
C517   H534    1.084   .     S
C517   C518    1.397   .     A
C517   C851    1.370   1_545 S
C518   C526    1.420   .     S
C518   C519    1.398   .     A
C519   H535    1.084   .     S
C519   C856    1.369   1_545 S
C520   H536    1.084   .     S
C520   C521    1.397   .     A
C520   C687    1.369   .     S
C522   N548    1.376   .     A
C522   I559    2.115   .     S
C522   C579    1.411   .     S
C523   N547    1.358   .     A
C523   H537    1.072   .     S
C523   C634    1.411   1_455 S
C524   H538    1.082   .     S
C524   N547    1.368   .     A
C524   C637    1.420   1_455 S
C525   H539    1.082   .     S
C525   N548    1.367   .     A
C525   C580    1.420   .     S
C526   O554    1.287   .     A
C526   O553    1.285   .     A
C527   O556    1.291   .     A
C527   C529    1.455   .     S
C527   O555    1.296   .     A
C530   C531    1.390   .     A
C530   H542    1.083   .     S
C531   C28     1.389   1_556 S
C531   H40     1.080   1_556 S
C532   H543    1.081   .     S
H541   C24     1.080   1_556 S
N547   Zn557   2.016   .     S
N548   Zn558   2.016   .     S
O549   Zn557   2.001   .     S
O550   Zn558   1.998   .     S
O551   Zn557   1.954   .     S
O552   Zn558   1.925   .     S
O553   Zn557   1.998   .     S
O554   Zn558   2.001   .     S
O555   Zn557   1.925   .     S
O556   Zn558   1.954   .     S
C561   C577    1.420   .     S
C561   O605    1.287   .     A
C561   O606    1.285   .     A
C562   C563    1.410   .     A
C562   C60     1.411   1_556 S
C562   C84     1.412   1_556 S
C563   C570    1.425   .     A
C563   C567    1.420   .     A
C564   C568    1.384   .     A
C565   C566    1.390   .     A
C565   C60     1.411   1_556 S
C565   C80     1.401   1_556 S
C566   H596    1.084   .     S
C566   C567    1.391   .     A
C567   H601    1.080   .     S
C568   I616    2.132   .     S
C568   C585    1.395   .     A
C569   C584    1.399   .     A
C569   H589    1.082   .     S
C569   C585    1.404   .     A
C570   C572    1.470   .     S
C570   C586    1.402   .     A
C571   H602    1.084   .     S
C571   C577    1.398   .     A
C571   C741    1.370   .     S
C572   O608    1.289   .     A
C572   O607    1.304   .     A
C573   H590    1.084   .     S
C573   C574    1.397   .     A
C573   C907    1.370   1_545 S
C574   C582    1.420   .     S
C574   C575    1.398   .     A
C575   H591    1.084   .     S
C575   C912    1.369   1_545 S
C576   H592    1.084   .     S
C576   C577    1.397   .     A
C576   C743    1.369   .     S
C578   N604    1.376   .     A
C578   I615    2.115   .     S
C578   C635    1.411   .     S
C579   N603    1.358   .     A
C579   H593    1.072   .     S
C580   H594    1.082   .     S
C580   N603    1.368   .     A
C581   H595    1.082   .     S
C581   N604    1.367   .     A
C581   C636    1.420   .     S
C582   O610    1.287   .     A
C582   O609    1.285   .     A
C583   O612    1.291   .     A
C583   C585    1.455   .     S
C583   O611    1.296   .     A
C586   C587    1.390   .     A
C586   H598    1.083   .     S
C587   C84     1.389   1_556 S
C587   H96     1.080   1_556 S
C588   H599    1.081   .     S
H597   C80     1.080   1_556 S
N603   Zn613   2.016   .     S
N604   Zn614   2.016   .     S
O605   Zn613   2.001   .     S
O606   Zn614   1.998   .     S
O607   Zn613   1.954   .     S
O608   Zn614   1.925   .     S
O609   Zn613   1.998   .     S
O610   Zn614   2.001   .     S
O611   Zn613   1.925   .     S
O612   Zn614   1.954   .     S
C617   C633    1.420   .     S
C617   O661    1.287   .     A
C617   O662    1.285   .     A
C618   C619    1.410   .     A
C618   C116    1.411   1_556 S
C618   C140    1.412   1_556 S
C619   C626    1.425   .     A
C619   C623    1.420   .     A
C620   C624    1.384   .     A
C621   C622    1.390   .     A
C621   C116    1.411   1_556 S
C621   C136    1.401   1_556 S
C622   H652    1.084   .     S
C622   C623    1.391   .     A
C623   H657    1.080   .     S
C624   I672    2.132   .     S
C624   C641    1.395   .     A
C625   C640    1.399   .     A
C625   H645    1.082   .     S
C625   C641    1.404   .     A
C626   C628    1.470   .     S
C626   C642    1.402   .     A
C627   H658    1.084   .     S
C627   C633    1.398   .     A
C627   C797    1.370   .     S
C628   O664    1.289   .     A
C628   O663    1.304   .     A
C629   H646    1.084   .     S
C629   C630    1.397   .     A
C629   C963    1.370   1_545 S
C630   C638    1.420   .     S
C630   C631    1.398   .     A
C631   H647    1.084   .     S
C631   C968    1.369   1_545 S
C632   H648    1.084   .     S
C632   C633    1.397   .     A
C632   C799    1.369   .     S
C634   N660    1.376   .     A
C634   I671    2.115   .     S
C634   C523    1.411   1_655 S
C635   N659    1.358   .     A
C635   H649    1.072   .     S
C636   H650    1.082   .     S
C636   N659    1.368   .     A
C637   H651    1.082   .     S
C637   N660    1.367   .     A
C637   C524    1.420   1_655 S
C638   O666    1.287   .     A
C638   O665    1.285   .     A
C639   O668    1.291   .     A
C639   C641    1.455   .     S
C639   O667    1.296   .     A
C642   C643    1.390   .     A
C642   H654    1.083   .     S
C643   C140    1.389   1_556 S
C643   H152    1.080   1_556 S
C644   H655    1.081   .     S
H653   C136    1.080   1_556 S
N659   Zn669   2.016   .     S
N660   Zn670   2.016   .     S
O661   Zn669   2.001   .     S
O662   Zn670   1.998   .     S
O663   Zn669   1.954   .     S
O664   Zn670   1.925   .     S
O665   Zn669   1.998   .     S
O666   Zn670   2.001   .     S
O667   Zn669   1.925   .     S
O668   Zn670   1.954   .     S
C673   C689    1.420   .     S
C673   O717    1.287   .     A
C673   O718    1.285   .     A
C674   C675    1.410   .     A
C674   C172    1.411   1_556 S
C674   C196    1.412   1_556 S
C675   C682    1.425   .     A
C675   C679    1.420   .     A
C676   C680    1.384   .     A
C677   C678    1.390   .     A
C677   C172    1.411   1_556 S
C677   C192    1.401   1_556 S
C678   H708    1.084   .     S
C678   C679    1.391   .     A
C679   H713    1.080   .     S
C680   I728    2.132   .     S
C680   C697    1.395   .     A
C681   C696    1.399   .     A
C681   H701    1.082   .     S
C681   C697    1.404   .     A
C682   C684    1.470   .     S
C682   C698    1.402   .     A
C683   H714    1.084   .     S
C683   C689    1.398   .     A
C683   C853    1.370   .     S
C684   O720    1.289   .     A
C684   O719    1.304   .     A
C685   H702    1.084   .     S
C685   C686    1.397   .     A
C686   C694    1.420   .     S
C686   C687    1.398   .     A
C687   H703    1.084   .     S
C688   H704    1.084   .     S
C688   C689    1.397   .     A
C688   C855    1.369   .     S
C690   N716    1.376   .     A
C690   I727    2.115   .     S
C690   C747    1.411   .     S
C691   N715    1.358   .     A
C691   H705    1.072   .     S
C691   C802    1.411   1_455 S
C692   H706    1.082   .     S
C692   N715    1.368   .     A
C692   C805    1.420   1_455 S
C693   H707    1.082   .     S
C693   N716    1.367   .     A
C693   C748    1.420   .     S
C694   O722    1.287   .     A
C694   O721    1.285   .     A
C695   O724    1.291   .     A
C695   C697    1.455   .     S
C695   O723    1.296   .     A
C698   C699    1.390   .     A
C698   H710    1.083   .     S
C699   C196    1.389   1_556 S
C699   H208    1.080   1_556 S
C700   H711    1.081   .     S
H709   C192    1.080   1_556 S
N715   Zn725   2.016   .     S
N716   Zn726   2.016   .     S
O717   Zn725   2.001   .     S
O718   Zn726   1.998   .     S
O719   Zn725   1.954   .     S
O720   Zn726   1.925   .     S
O721   Zn725   1.998   .     S
O722   Zn726   2.001   .     S
O723   Zn725   1.925   .     S
O724   Zn726   1.954   .     S
C729   C745    1.420   .     S
C729   O773    1.287   .     A
C729   O774    1.285   .     A
C730   C731    1.410   .     A
C730   C228    1.411   1_556 S
C730   C252    1.412   1_556 S
C731   C738    1.425   .     A
C731   C735    1.420   .     A
C732   C736    1.384   .     A
C733   C734    1.390   .     A
C733   C228    1.411   1_556 S
C733   C248    1.401   1_556 S
C734   H764    1.084   .     S
C734   C735    1.391   .     A
C735   H769    1.080   .     S
C736   I784    2.132   .     S
C736   C753    1.395   .     A
C737   C752    1.399   .     A
C737   H757    1.082   .     S
C737   C753    1.404   .     A
C738   C740    1.470   .     S
C738   C754    1.402   .     A
C739   H770    1.084   .     S
C739   C745    1.398   .     A
C739   C909    1.370   .     S
C740   O776    1.289   .     A
C740   O775    1.304   .     A
C741   H758    1.084   .     S
C741   C742    1.397   .     A
C742   C750    1.420   .     S
C742   C743    1.398   .     A
C743   H759    1.084   .     S
C744   H760    1.084   .     S
C744   C745    1.397   .     A
C744   C911    1.369   .     S
C746   N772    1.376   .     A
C746   I783    2.115   .     S
C746   C803    1.411   .     S
C747   N771    1.358   .     A
C747   H761    1.072   .     S
C748   H762    1.082   .     S
C748   N771    1.368   .     A
C749   H763    1.082   .     S
C749   N772    1.367   .     A
C749   C804    1.420   .     S
C750   O778    1.287   .     A
C750   O777    1.285   .     A
C751   O780    1.291   .     A
C751   C753    1.455   .     S
C751   O779    1.296   .     A
C754   C755    1.390   .     A
C754   H766    1.083   .     S
C755   C252    1.389   1_556 S
C755   H264    1.080   1_556 S
C756   H767    1.081   .     S
H765   C248    1.080   1_556 S
N771   Zn781   2.016   .     S
N772   Zn782   2.016   .     S
O773   Zn781   2.001   .     S
O774   Zn782   1.998   .     S
O775   Zn781   1.954   .     S
O776   Zn782   1.925   .     S
O777   Zn781   1.998   .     S
O778   Zn782   2.001   .     S
O779   Zn781   1.925   .     S
O780   Zn782   1.954   .     S
C785   C801    1.420   .     S
C785   O829    1.287   .     A
C785   O830    1.285   .     A
C786   C787    1.410   .     A
C786   C284    1.411   1_556 S
C786   C308    1.412   1_556 S
C787   C794    1.425   .     A
C787   C791    1.420   .     A
C788   C792    1.384   .     A
C789   C790    1.390   .     A
C789   C284    1.411   1_556 S
C789   C304    1.401   1_556 S
C790   H820    1.084   .     S
C790   C791    1.391   .     A
C791   H825    1.080   .     S
C792   I840    2.132   .     S
C792   C809    1.395   .     A
C793   C808    1.399   .     A
C793   H813    1.082   .     S
C793   C809    1.404   .     A
C794   C796    1.470   .     S
C794   C810    1.402   .     A
C795   H826    1.084   .     S
C795   C801    1.398   .     A
C795   C965    1.370   .     S
C796   O832    1.289   .     A
C796   O831    1.304   .     A
C797   H814    1.084   .     S
C797   C798    1.397   .     A
C798   C806    1.420   .     S
C798   C799    1.398   .     A
C799   H815    1.084   .     S
C800   H816    1.084   .     S
C800   C801    1.397   .     A
C800   C967    1.369   .     S
C802   N828    1.376   .     A
C802   I839    2.115   .     S
C802   C691    1.411   1_655 S
C803   N827    1.358   .     A
C803   H817    1.072   .     S
C804   H818    1.082   .     S
C804   N827    1.368   .     A
C805   H819    1.082   .     S
C805   N828    1.367   .     A
C805   C692    1.420   1_655 S
C806   O834    1.287   .     A
C806   O833    1.285   .     A
C807   O836    1.291   .     A
C807   C809    1.455   .     S
C807   O835    1.296   .     A
C810   C811    1.390   .     A
C810   H822    1.083   .     S
C811   C308    1.389   1_556 S
C811   H320    1.080   1_556 S
C812   H823    1.081   .     S
H821   C304    1.080   1_556 S
N827   Zn837   2.016   .     S
N828   Zn838   2.016   .     S
O829   Zn837   2.001   .     S
O830   Zn838   1.998   .     S
O831   Zn837   1.954   .     S
O832   Zn838   1.925   .     S
O833   Zn837   1.998   .     S
O834   Zn838   2.001   .     S
O835   Zn837   1.925   .     S
O836   Zn838   1.954   .     S
C841   C857    1.420   .     S
C841   O885    1.287   .     A
C841   O886    1.285   .     A
C842   C843    1.410   .     A
C842   C340    1.411   1_556 S
C842   C364    1.412   1_556 S
C843   C850    1.425   .     A
C843   C847    1.420   .     A
C844   C848    1.384   .     A
C845   C846    1.390   .     A
C845   C340    1.411   1_556 S
C845   C360    1.401   1_556 S
C846   H876    1.084   .     S
C846   C847    1.391   .     A
C847   H881    1.080   .     S
C848   I896    2.132   .     S
C848   C865    1.395   .     A
C849   C864    1.399   .     A
C849   H869    1.082   .     S
C849   C865    1.404   .     A
C850   C852    1.470   .     S
C850   C866    1.402   .     A
C851   H882    1.084   .     S
C851   C857    1.398   .     A
C851   C517    1.370   1_565 S
C852   O888    1.289   .     A
C852   O887    1.304   .     A
C853   H870    1.084   .     S
C853   C854    1.397   .     A
C854   C862    1.420   .     S
C854   C855    1.398   .     A
C855   H871    1.084   .     S
C856   H872    1.084   .     S
C856   C857    1.397   .     A
C856   C519    1.369   1_565 S
C858   N884    1.376   .     A
C858   I895    2.115   .     S
C858   C915    1.411   .     S
C859   N883    1.358   .     A
C859   H873    1.072   .     S
C859   C970    1.411   1_455 S
C860   H874    1.082   .     S
C860   N883    1.368   .     A
C860   C973    1.420   1_455 S
C861   H875    1.082   .     S
C861   N884    1.367   .     A
C861   C916    1.420   .     S
C862   O890    1.287   .     A
C862   O889    1.285   .     A
C863   O892    1.291   .     A
C863   C865    1.455   .     S
C863   O891    1.296   .     A
C866   C867    1.390   .     A
C866   H878    1.083   .     S
C867   C364    1.389   1_556 S
C867   H376    1.080   1_556 S
C868   H879    1.081   .     S
H877   C360    1.080   1_556 S
N883   Zn893   2.016   .     S
N884   Zn894   2.016   .     S
O885   Zn893   2.001   .     S
O886   Zn894   1.998   .     S
O887   Zn893   1.954   .     S
O888   Zn894   1.925   .     S
O889   Zn893   1.998   .     S
O890   Zn894   2.001   .     S
O891   Zn893   1.925   .     S
O892   Zn894   1.954   .     S
C897   C913    1.420   .     S
C897   O941    1.287   .     A
C897   O942    1.285   .     A
C898   C899    1.410   .     A
C898   C396    1.411   1_556 S
C898   C420    1.412   1_556 S
C899   C906    1.425   .     A
C899   C903    1.420   .     A
C900   C904    1.384   .     A
C901   C902    1.390   .     A
C901   C396    1.411   1_556 S
C901   C416    1.401   1_556 S
C902   H932    1.084   .     S
C902   C903    1.391   .     A
C903   H937    1.080   .     S
C904   I952    2.132   .     S
C904   C921    1.395   .     A
C905   C920    1.399   .     A
C905   H925    1.082   .     S
C905   C921    1.404   .     A
C906   C908    1.470   .     S
C906   C922    1.402   .     A
C907   H938    1.084   .     S
C907   C913    1.398   .     A
C907   C573    1.370   1_565 S
C908   O944    1.289   .     A
C908   O943    1.304   .     A
C909   H926    1.084   .     S
C909   C910    1.397   .     A
C910   C918    1.420   .     S
C910   C911    1.398   .     A
C911   H927    1.084   .     S
C912   H928    1.084   .     S
C912   C913    1.397   .     A
C912   C575    1.369   1_565 S
C914   N940    1.376   .     A
C914   I951    2.115   .     S
C914   C971    1.411   .     S
C915   N939    1.358   .     A
C915   H929    1.072   .     S
C916   H930    1.082   .     S
C916   N939    1.368   .     A
C917   H931    1.082   .     S
C917   N940    1.367   .     A
C917   C972    1.420   .     S
C918   O946    1.287   .     A
C918   O945    1.285   .     A
C919   O948    1.291   .     A
C919   C921    1.455   .     S
C919   O947    1.296   .     A
C922   C923    1.390   .     A
C922   H934    1.083   .     S
C923   C420    1.389   1_556 S
C923   H432    1.080   1_556 S
C924   H935    1.081   .     S
H933   C416    1.080   1_556 S
N939   Zn949   2.016   .     S
N940   Zn950   2.016   .     S
O941   Zn949   2.001   .     S
O942   Zn950   1.998   .     S
O943   Zn949   1.954   .     S
O944   Zn950   1.925   .     S
O945   Zn949   1.998   .     S
O946   Zn950   2.001   .     S
O947   Zn949   1.925   .     S
O948   Zn950   1.954   .     S
C953   C969    1.420   .     S
C953   O997    1.287   .     A
C953   O998    1.285   .     A
C954   C955    1.410   .     A
C954   C452    1.411   1_556 S
C954   C476    1.412   1_556 S
C955   C962    1.425   .     A
C955   C959    1.420   .     A
C956   C960    1.384   .     A
C957   C958    1.390   .     A
C957   C452    1.411   1_556 S
C957   C472    1.401   1_556 S
C958   H988    1.084   .     S
C958   C959    1.391   .     A
C959   H993    1.080   .     S
C960   I1008   2.132   .     S
C960   C977    1.395   .     A
C961   C976    1.399   .     A
C961   H981    1.082   .     S
C961   C977    1.404   .     A
C962   C964    1.470   .     S
C962   C978    1.402   .     A
C963   H994    1.084   .     S
C963   C969    1.398   .     A
C963   C629    1.370   1_565 S
C964   O1000   1.289   .     A
C964   O999    1.304   .     A
C965   H982    1.084   .     S
C965   C966    1.397   .     A
C966   C974    1.420   .     S
C966   C967    1.398   .     A
C967   H983    1.084   .     S
C968   H984    1.084   .     S
C968   C969    1.397   .     A
C968   C631    1.369   1_565 S
C970   N996    1.376   .     A
C970   I1007   2.115   .     S
C970   C859    1.411   1_655 S
C971   N995    1.358   .     A
C971   H985    1.072   .     S
C972   H986    1.082   .     S
C972   N995    1.368   .     A
C973   H987    1.082   .     S
C973   N996    1.367   .     A
C973   C860    1.420   1_655 S
C974   O1002   1.287   .     A
C974   O1001   1.285   .     A
C975   O1004   1.291   .     A
C975   C977    1.455   .     S
C975   O1003   1.296   .     A
C978   C979    1.390   .     A
C978   H990    1.083   .     S
C979   C476    1.389   1_556 S
C979   H488    1.080   1_556 S
C980   H991    1.081   .     S
H989   C472    1.080   1_556 S
N995   Zn1005  2.016   .     S
N996   Zn1006  2.016   .     S
O997   Zn1005  2.001   .     S
O998   Zn1006  1.998   .     S
O999   Zn1005  1.954   .     S
O1000  Zn1006  1.925   .     S
O1001  Zn1005  1.998   .     S
O1002  Zn1006  2.001   .     S
O1003  Zn1005  1.925   .     S
O1004  Zn1006  1.954   .     S
