data_str_m3_o1_o17_pcu_sym.142
_audit_creation_date              2020-01-03
_audit_creation_method            'Materials Studio'
_symmetry_space_group_name_H-M    'P1'
_symmetry_Int_Tables_number       1
_symmetry_cell_setting            triclinic
loop_
_symmetry_equiv_pos_as_xyz
  x,y,z
_cell_length_a                    32.3410
_cell_length_b                    29.9344
_cell_length_c                    29.9396
_cell_angle_alpha                 90.3401
_cell_angle_beta                  91.6493
_cell_angle_gamma                 91.7278
loop_
_atom_site_label
_atom_site_type_symbol
_atom_site_fract_x
_atom_site_fract_y
_atom_site_fract_z
_atom_site_U_iso_or_equiv
_atom_site_adp_type
_atom_site_occupancy
C1     C     0.08682   0.16602   0.25130   0.00000  Uiso   1.00
C2     C     0.24652   0.16731   0.24870   0.00000  Uiso   1.00
C3     C     0.09076   0.15558   0.02030   0.00000  Uiso   1.00
C4     C     0.24255   0.17721   0.47970   0.00000  Uiso   1.00
C5     C     0.01970   0.13068   0.23038   0.00000  Uiso   1.00
C6     C     0.31363   0.20265   0.26963   0.00000  Uiso   1.00
C7     C     0.31078   0.13334   0.22530   0.00000  Uiso   1.00
C8     C     0.02255   0.19999   0.27471   0.00000  Uiso   1.00
C9     C     0.29077   0.16862   0.24646   0.00000  Uiso   1.00
C10    C     0.04256   0.16471   0.25354   0.00000  Uiso   1.00
C11    C     0.18709   0.02452   0.28310   0.00000  Uiso   1.00
C12    C     0.14624   0.30882   0.21690   0.00000  Uiso   1.00
C13    C     0.14642   0.02282   0.21685   0.00000  Uiso   1.00
C14    C     0.18691   0.31052   0.28315   0.00000  Uiso   1.00
C15    C     0.16635   0.16668   0.16382   0.00000  Uiso   1.00
C16    C     0.16697   0.16665   0.33618   0.00000  Uiso   1.00
C17    C     0.20441   0.17458   0.40748   0.00000  Uiso   1.00
C18    C     0.12888   0.15865   0.09255   0.00000  Uiso   1.00
C19    C     0.16718   0.16609   0.38383   0.00000  Uiso   1.00
C20    C     0.16611   0.16720   0.11617   0.00000  Uiso   1.00
C21    C     0.13059   0.15448   0.40496   0.00000  Uiso   1.00
C22    C     0.20272   0.17867   0.09501   0.00000  Uiso   1.00
C23    C     0.12928   0.15806   0.45158   0.00000  Uiso   1.00
C24    C     0.20403   0.17492   0.04841   0.00000  Uiso   1.00
C25    C     0.16690   0.16603   0.47652   0.00000  Uiso   1.00
C26    C     0.16641   0.16693   0.02348   0.00000  Uiso   1.00
C27    C     0.20502   0.17276   0.45442   0.00000  Uiso   1.00
C28    C     0.12828   0.16024   0.04559   0.00000  Uiso   1.00
C29    C     0.09130   0.15462   0.47358   0.00000  Uiso   1.00
C30    C     0.24202   0.17817   0.02643   0.00000  Uiso   1.00
N31    N     0.16667   0.28573   0.25000   0.00000  Uiso   1.00
N32    N     0.16667   0.04760   0.25000   0.00000  Uiso   1.00
O33    O     0.10559   0.20487   0.24999   0.00000  Uiso   1.00
O34    O     0.22774   0.12846   0.25000   0.00000  Uiso   1.00
O35    O     0.22774   0.20487   0.25000   0.00000  Uiso   1.00
O36    O     0.10559   0.12846   0.24999   0.00000  Uiso   1.00
O37    O     0.16666   0.20489   0.18392   0.00000  Uiso   1.00
O38    O     0.16667   0.12844   0.31607   0.00000  Uiso   1.00
O39    O     0.16667   0.20489   0.31607   0.00000  Uiso   1.00
O40    O     0.16666   0.12844   0.18392   0.00000  Uiso   1.00
Zn41   Zn    0.16667   0.21771   0.25000   0.00000  Uiso   1.00
Zn42   Zn    0.16667   0.11563   0.25000   0.00000  Uiso   1.00
N43    N     0.24155   0.18401   0.38350   0.00000  Uiso   1.00
H44    H     0.24666   0.15752   0.36159   0.00000  Uiso   1.00
H45    H     0.23790   0.21320   0.36515   0.00000  Uiso   1.00
N46    N     0.09172   0.14947   0.11657   0.00000  Uiso   1.00
H47    H     0.09530   0.12038   0.13510   0.00000  Uiso   1.00
H48    H     0.08667   0.17610   0.13832   0.00000  Uiso   1.00
N49    N     0.09532   0.13743   0.37907   0.00000  Uiso   1.00
H50    H     0.10322   0.10798   0.36290   0.00000  Uiso   1.00
H51    H     0.08694   0.16092   0.35515   0.00000  Uiso   1.00
N52    N     0.23799   0.19581   0.12084   0.00000  Uiso   1.00
H53    H     0.24637   0.17243   0.14485   0.00000  Uiso   1.00
H54    H     0.23008   0.22533   0.13689   0.00000  Uiso   1.00
N55    N     0.05282   0.15272   0.44836   0.00000  Uiso   1.00
H56    H     0.03608   0.18101   0.45566   0.00000  Uiso   1.00
H57    H     0.03593   0.12378   0.45662   0.00000  Uiso   1.00
N58    N     0.28050   0.17990   0.05166   0.00000  Uiso   1.00
H59    H     0.29749   0.20877   0.04341   0.00000  Uiso   1.00
H60    H     0.29713   0.15154   0.04435   0.00000  Uiso   1.00
N61    N     0.05169   0.15335   0.04189   0.00000  Uiso   1.00
H62    H     0.03435   0.18060   0.03193   0.00000  Uiso   1.00
H63    H     0.03589   0.12354   0.03286   0.00000  Uiso   1.00
N64    N     0.28163   0.17921   0.45811   0.00000  Uiso   1.00
H65    H     0.29758   0.20892   0.46714   0.00000  Uiso   1.00
H66    H     0.29884   0.15185   0.46807   0.00000  Uiso   1.00
O67    O     0.03834   0.09575   0.20988   0.00000  Uiso   1.00
H68    H     0.04731   0.07584   0.23446   0.00000  Uiso   1.00
O69    O     0.29498   0.23756   0.29014   0.00000  Uiso   1.00
H70    H     0.28605   0.25751   0.26557   0.00000  Uiso   1.00
O71    O     0.29034   0.10045   0.19980   0.00000  Uiso   1.00
H72    H     0.26533   0.11295   0.18556   0.00000  Uiso   1.00
O73    O     0.04299   0.23288   0.30020   0.00000  Uiso   1.00
H74    H     0.06800   0.22039   0.31443   0.00000  Uiso   1.00
N75    N     0.20832   0.04723   0.31955   0.00000  Uiso   1.00
H76    H     0.22624   0.07391   0.30788   0.00000  Uiso   1.00
H77    H     0.18653   0.05799   0.34194   0.00000  Uiso   1.00
N78    N     0.12501   0.28610   0.18045   0.00000  Uiso   1.00
H79    H     0.10710   0.25942   0.19212   0.00000  Uiso   1.00
H80    H     0.14680   0.27534   0.15806   0.00000  Uiso   1.00
N81    N     0.12586   0.04394   0.18025   0.00000  Uiso   1.00
H82    H     0.14821   0.05482   0.15797   0.00000  Uiso   1.00
H83    H     0.11004   0.07094   0.19230   0.00000  Uiso   1.00
N84    N     0.20748   0.28939   0.31975   0.00000  Uiso   1.00
H85    H     0.22329   0.26239   0.30769   0.00000  Uiso   1.00
H86    H     0.18513   0.27852   0.34203   0.00000  Uiso   1.00
C87    C     0.42015   0.16602   0.25130   0.00000  Uiso   1.00
C88    C     0.57985   0.16731   0.24870   0.00000  Uiso   1.00
C89    C     0.42410   0.15558   0.02030   0.00000  Uiso   1.00
C90    C     0.57589   0.17721   0.47970   0.00000  Uiso   1.00
C91    C     0.35304   0.13068   0.23038   0.00000  Uiso   1.00
C92    C     0.64696   0.20265   0.26963   0.00000  Uiso   1.00
C93    C     0.64411   0.13334   0.22530   0.00000  Uiso   1.00
C94    C     0.35589   0.19999   0.27471   0.00000  Uiso   1.00
C95    C     0.62411   0.16862   0.24646   0.00000  Uiso   1.00
C96    C     0.37589   0.16471   0.25354   0.00000  Uiso   1.00
C97    C     0.52043   0.02452   0.28310   0.00000  Uiso   1.00
C98    C     0.47957   0.30882   0.21690   0.00000  Uiso   1.00
C99    C     0.47975   0.02282   0.21685   0.00000  Uiso   1.00
C100   C     0.52025   0.31052   0.28315   0.00000  Uiso   1.00
C101   C     0.49968   0.16668   0.16382   0.00000  Uiso   1.00
C102   C     0.50031   0.16665   0.33618   0.00000  Uiso   1.00
C103   C     0.53774   0.17458   0.40748   0.00000  Uiso   1.00
C104   C     0.46222   0.15865   0.09255   0.00000  Uiso   1.00
C105   C     0.50051   0.16609   0.38383   0.00000  Uiso   1.00
C106   C     0.49945   0.16720   0.11617   0.00000  Uiso   1.00
C107   C     0.46392   0.15448   0.40496   0.00000  Uiso   1.00
C108   C     0.53606   0.17867   0.09501   0.00000  Uiso   1.00
C109   C     0.46261   0.15806   0.45158   0.00000  Uiso   1.00
C110   C     0.53736   0.17492   0.04841   0.00000  Uiso   1.00
C111   C     0.50023   0.16603   0.47652   0.00000  Uiso   1.00
C112   C     0.49974   0.16693   0.02348   0.00000  Uiso   1.00
C113   C     0.53836   0.17276   0.45442   0.00000  Uiso   1.00
C114   C     0.46161   0.16024   0.04559   0.00000  Uiso   1.00
C115   C     0.42463   0.15462   0.47358   0.00000  Uiso   1.00
C116   C     0.57535   0.17817   0.02643   0.00000  Uiso   1.00
N117   N     0.50000   0.28573   0.25000   0.00000  Uiso   1.00
N118   N     0.50000   0.04760   0.25000   0.00000  Uiso   1.00
O119   O     0.43892   0.20487   0.24999   0.00000  Uiso   1.00
O120   O     0.56108   0.12846   0.25000   0.00000  Uiso   1.00
O121   O     0.56108   0.20487   0.25000   0.00000  Uiso   1.00
O122   O     0.43892   0.12846   0.24999   0.00000  Uiso   1.00
O123   O     0.49999   0.20489   0.18392   0.00000  Uiso   1.00
O124   O     0.50001   0.12844   0.31607   0.00000  Uiso   1.00
O125   O     0.50001   0.20489   0.31607   0.00000  Uiso   1.00
O126   O     0.49999   0.12844   0.18392   0.00000  Uiso   1.00
Zn127  Zn    0.50000   0.21771   0.25000   0.00000  Uiso   1.00
Zn128  Zn    0.50000   0.11563   0.25000   0.00000  Uiso   1.00
N129   N     0.57489   0.18401   0.38350   0.00000  Uiso   1.00
H130   H     0.58000   0.15752   0.36159   0.00000  Uiso   1.00
H131   H     0.57123   0.21320   0.36515   0.00000  Uiso   1.00
N132   N     0.42505   0.14947   0.11657   0.00000  Uiso   1.00
H133   H     0.42863   0.12038   0.13510   0.00000  Uiso   1.00
H134   H     0.42000   0.17610   0.13832   0.00000  Uiso   1.00
N135   N     0.42865   0.13743   0.37907   0.00000  Uiso   1.00
H136   H     0.43655   0.10798   0.36290   0.00000  Uiso   1.00
H137   H     0.42027   0.16092   0.35515   0.00000  Uiso   1.00
N138   N     0.57133   0.19581   0.12084   0.00000  Uiso   1.00
H139   H     0.57970   0.17243   0.14485   0.00000  Uiso   1.00
H140   H     0.56342   0.22533   0.13689   0.00000  Uiso   1.00
N141   N     0.38615   0.15272   0.44836   0.00000  Uiso   1.00
H142   H     0.36941   0.18101   0.45566   0.00000  Uiso   1.00
H143   H     0.36926   0.12378   0.45662   0.00000  Uiso   1.00
N144   N     0.61383   0.17990   0.05166   0.00000  Uiso   1.00
H145   H     0.63082   0.20877   0.04341   0.00000  Uiso   1.00
H146   H     0.63047   0.15154   0.04435   0.00000  Uiso   1.00
N147   N     0.38503   0.15335   0.04189   0.00000  Uiso   1.00
H148   H     0.36768   0.18060   0.03193   0.00000  Uiso   1.00
H149   H     0.36922   0.12354   0.03286   0.00000  Uiso   1.00
N150   N     0.61496   0.17921   0.45811   0.00000  Uiso   1.00
H151   H     0.63091   0.20892   0.46714   0.00000  Uiso   1.00
H152   H     0.63217   0.15185   0.46807   0.00000  Uiso   1.00
O153   O     0.37168   0.09575   0.20988   0.00000  Uiso   1.00
H154   H     0.38064   0.07584   0.23446   0.00000  Uiso   1.00
O155   O     0.62832   0.23756   0.29014   0.00000  Uiso   1.00
H156   H     0.61938   0.25751   0.26557   0.00000  Uiso   1.00
O157   O     0.62367   0.10045   0.19980   0.00000  Uiso   1.00
H158   H     0.59867   0.11295   0.18556   0.00000  Uiso   1.00
O159   O     0.37633   0.23288   0.30020   0.00000  Uiso   1.00
H160   H     0.40133   0.22039   0.31443   0.00000  Uiso   1.00
N161   N     0.54165   0.04723   0.31955   0.00000  Uiso   1.00
H162   H     0.55957   0.07391   0.30788   0.00000  Uiso   1.00
H163   H     0.51986   0.05799   0.34194   0.00000  Uiso   1.00
N164   N     0.45834   0.28610   0.18045   0.00000  Uiso   1.00
H165   H     0.44043   0.25942   0.19212   0.00000  Uiso   1.00
H166   H     0.48013   0.27534   0.15806   0.00000  Uiso   1.00
N167   N     0.45919   0.04394   0.18025   0.00000  Uiso   1.00
H168   H     0.48154   0.05482   0.15797   0.00000  Uiso   1.00
H169   H     0.44338   0.07094   0.19230   0.00000  Uiso   1.00
N170   N     0.54081   0.28939   0.31975   0.00000  Uiso   1.00
H171   H     0.55662   0.26239   0.30769   0.00000  Uiso   1.00
H172   H     0.51846   0.27852   0.34203   0.00000  Uiso   1.00
C173   C     0.75348   0.16602   0.25130   0.00000  Uiso   1.00
C174   C     0.91318   0.16731   0.24870   0.00000  Uiso   1.00
C175   C     0.75743   0.15558   0.02030   0.00000  Uiso   1.00
C176   C     0.90922   0.17721   0.47970   0.00000  Uiso   1.00
C177   C     0.68637   0.13068   0.23038   0.00000  Uiso   1.00
C178   C     0.98029   0.20265   0.26963   0.00000  Uiso   1.00
C179   C     0.97745   0.13334   0.22530   0.00000  Uiso   1.00
C180   C     0.68922   0.19999   0.27471   0.00000  Uiso   1.00
C181   C     0.95744   0.16862   0.24646   0.00000  Uiso   1.00
C182   C     0.70923   0.16471   0.25354   0.00000  Uiso   1.00
C183   C     0.85376   0.02452   0.28310   0.00000  Uiso   1.00
C184   C     0.81290   0.30882   0.21690   0.00000  Uiso   1.00
C185   C     0.81309   0.02282   0.21685   0.00000  Uiso   1.00
C186   C     0.85358   0.31052   0.28315   0.00000  Uiso   1.00
C187   C     0.83302   0.16668   0.16382   0.00000  Uiso   1.00
C188   C     0.83364   0.16665   0.33618   0.00000  Uiso   1.00
C189   C     0.87108   0.17458   0.40748   0.00000  Uiso   1.00
C190   C     0.79555   0.15865   0.09255   0.00000  Uiso   1.00
C191   C     0.83385   0.16609   0.38383   0.00000  Uiso   1.00
C192   C     0.83278   0.16720   0.11617   0.00000  Uiso   1.00
C193   C     0.79725   0.15448   0.40496   0.00000  Uiso   1.00
C194   C     0.86939   0.17867   0.09501   0.00000  Uiso   1.00
C195   C     0.79595   0.15806   0.45158   0.00000  Uiso   1.00
C196   C     0.87070   0.17492   0.04841   0.00000  Uiso   1.00
C197   C     0.83356   0.16603   0.47652   0.00000  Uiso   1.00
C198   C     0.83307   0.16693   0.02348   0.00000  Uiso   1.00
C199   C     0.87169   0.17276   0.45442   0.00000  Uiso   1.00
C200   C     0.79495   0.16024   0.04559   0.00000  Uiso   1.00
C201   C     0.75796   0.15462   0.47358   0.00000  Uiso   1.00
C202   C     0.90869   0.17817   0.02643   0.00000  Uiso   1.00
N203   N     0.83333   0.28573   0.25000   0.00000  Uiso   1.00
N204   N     0.83333   0.04760   0.25000   0.00000  Uiso   1.00
O205   O     0.77226   0.20487   0.24999   0.00000  Uiso   1.00
O206   O     0.89441   0.12846   0.25000   0.00000  Uiso   1.00
O207   O     0.89441   0.20487   0.25000   0.00000  Uiso   1.00
O208   O     0.77226   0.12846   0.24999   0.00000  Uiso   1.00
O209   O     0.83333   0.20489   0.18392   0.00000  Uiso   1.00
O210   O     0.83334   0.12844   0.31607   0.00000  Uiso   1.00
O211   O     0.83334   0.20489   0.31607   0.00000  Uiso   1.00
O212   O     0.83333   0.12844   0.18392   0.00000  Uiso   1.00
Zn213  Zn    0.83333   0.21771   0.25000   0.00000  Uiso   1.00
Zn214  Zn    0.83333   0.11563   0.25000   0.00000  Uiso   1.00
N215   N     0.90822   0.18401   0.38350   0.00000  Uiso   1.00
H216   H     0.91333   0.15752   0.36159   0.00000  Uiso   1.00
H217   H     0.90456   0.21320   0.36515   0.00000  Uiso   1.00
N218   N     0.75838   0.14947   0.11657   0.00000  Uiso   1.00
H219   H     0.76197   0.12038   0.13510   0.00000  Uiso   1.00
H220   H     0.75333   0.17610   0.13832   0.00000  Uiso   1.00
N221   N     0.76199   0.13743   0.37907   0.00000  Uiso   1.00
H222   H     0.76989   0.10798   0.36290   0.00000  Uiso   1.00
H223   H     0.75360   0.16092   0.35515   0.00000  Uiso   1.00
N224   N     0.90466   0.19581   0.12084   0.00000  Uiso   1.00
H225   H     0.91304   0.17243   0.14485   0.00000  Uiso   1.00
H226   H     0.89675   0.22533   0.13689   0.00000  Uiso   1.00
N227   N     0.71948   0.15272   0.44836   0.00000  Uiso   1.00
H228   H     0.70275   0.18101   0.45566   0.00000  Uiso   1.00
H229   H     0.70260   0.12378   0.45662   0.00000  Uiso   1.00
N230   N     0.94716   0.17990   0.05166   0.00000  Uiso   1.00
H231   H     0.96415   0.20877   0.04341   0.00000  Uiso   1.00
H232   H     0.96380   0.15154   0.04435   0.00000  Uiso   1.00
N233   N     0.71836   0.15335   0.04189   0.00000  Uiso   1.00
H234   H     0.70101   0.18060   0.03193   0.00000  Uiso   1.00
H235   H     0.70256   0.12354   0.03286   0.00000  Uiso   1.00
N236   N     0.94829   0.17921   0.45811   0.00000  Uiso   1.00
H237   H     0.96424   0.20892   0.46714   0.00000  Uiso   1.00
H238   H     0.96550   0.15185   0.46807   0.00000  Uiso   1.00
O239   O     0.70501   0.09575   0.20988   0.00000  Uiso   1.00
H240   H     0.71398   0.07584   0.23446   0.00000  Uiso   1.00
O241   O     0.96165   0.23756   0.29014   0.00000  Uiso   1.00
H242   H     0.95272   0.25751   0.26557   0.00000  Uiso   1.00
O243   O     0.95700   0.10045   0.19980   0.00000  Uiso   1.00
H244   H     0.93200   0.11295   0.18556   0.00000  Uiso   1.00
O245   O     0.70966   0.23288   0.30020   0.00000  Uiso   1.00
H246   H     0.73467   0.22039   0.31443   0.00000  Uiso   1.00
N247   N     0.87499   0.04723   0.31955   0.00000  Uiso   1.00
H248   H     0.89290   0.07391   0.30788   0.00000  Uiso   1.00
H249   H     0.85320   0.05799   0.34194   0.00000  Uiso   1.00
N250   N     0.79168   0.28610   0.18045   0.00000  Uiso   1.00
H251   H     0.77376   0.25942   0.19212   0.00000  Uiso   1.00
H252   H     0.81347   0.27534   0.15806   0.00000  Uiso   1.00
N253   N     0.79253   0.04394   0.18025   0.00000  Uiso   1.00
H254   H     0.81487   0.05482   0.15797   0.00000  Uiso   1.00
H255   H     0.77671   0.07094   0.19230   0.00000  Uiso   1.00
N256   N     0.87414   0.28939   0.31975   0.00000  Uiso   1.00
H257   H     0.88996   0.26239   0.30769   0.00000  Uiso   1.00
H258   H     0.85180   0.27852   0.34203   0.00000  Uiso   1.00
C259   C     0.08682   0.49935   0.25130   0.00000  Uiso   1.00
C260   C     0.24652   0.50065   0.24870   0.00000  Uiso   1.00
C261   C     0.09076   0.48891   0.02030   0.00000  Uiso   1.00
C262   C     0.24255   0.51054   0.47970   0.00000  Uiso   1.00
C263   C     0.01970   0.46401   0.23038   0.00000  Uiso   1.00
C264   C     0.31363   0.53598   0.26963   0.00000  Uiso   1.00
C265   C     0.31078   0.46667   0.22530   0.00000  Uiso   1.00
C266   C     0.02255   0.53332   0.27471   0.00000  Uiso   1.00
C267   C     0.29077   0.50195   0.24646   0.00000  Uiso   1.00
C268   C     0.04256   0.49804   0.25354   0.00000  Uiso   1.00
C269   C     0.18709   0.35785   0.28310   0.00000  Uiso   1.00
C270   C     0.14624   0.64215   0.21690   0.00000  Uiso   1.00
C271   C     0.14642   0.35615   0.21685   0.00000  Uiso   1.00
C272   C     0.18691   0.64385   0.28315   0.00000  Uiso   1.00
C273   C     0.16635   0.50001   0.16382   0.00000  Uiso   1.00
C274   C     0.16697   0.49998   0.33618   0.00000  Uiso   1.00
C275   C     0.20441   0.50791   0.40748   0.00000  Uiso   1.00
C276   C     0.12888   0.49198   0.09255   0.00000  Uiso   1.00
C277   C     0.16718   0.49943   0.38383   0.00000  Uiso   1.00
C278   C     0.16611   0.50054   0.11617   0.00000  Uiso   1.00
C279   C     0.13059   0.48782   0.40496   0.00000  Uiso   1.00
C280   C     0.20272   0.51201   0.09501   0.00000  Uiso   1.00
C281   C     0.12928   0.49139   0.45158   0.00000  Uiso   1.00
C282   C     0.20403   0.50825   0.04841   0.00000  Uiso   1.00
C283   C     0.16690   0.49936   0.47652   0.00000  Uiso   1.00
C284   C     0.16641   0.50027   0.02348   0.00000  Uiso   1.00
C285   C     0.20502   0.50609   0.45442   0.00000  Uiso   1.00
C286   C     0.12828   0.49357   0.04559   0.00000  Uiso   1.00
C287   C     0.09130   0.48796   0.47358   0.00000  Uiso   1.00
C288   C     0.24202   0.51150   0.02643   0.00000  Uiso   1.00
N289   N     0.16667   0.61907   0.25000   0.00000  Uiso   1.00
N290   N     0.16667   0.38093   0.25000   0.00000  Uiso   1.00
O291   O     0.10559   0.53821   0.24999   0.00000  Uiso   1.00
O292   O     0.22774   0.46179   0.25000   0.00000  Uiso   1.00
O293   O     0.22774   0.53821   0.25000   0.00000  Uiso   1.00
O294   O     0.10559   0.46179   0.24999   0.00000  Uiso   1.00
O295   O     0.16666   0.53823   0.18392   0.00000  Uiso   1.00
O296   O     0.16667   0.46177   0.31607   0.00000  Uiso   1.00
O297   O     0.16667   0.53823   0.31607   0.00000  Uiso   1.00
O298   O     0.16666   0.46177   0.18392   0.00000  Uiso   1.00
Zn299  Zn    0.16667   0.55104   0.25000   0.00000  Uiso   1.00
Zn300  Zn    0.16667   0.44896   0.25000   0.00000  Uiso   1.00
N301   N     0.24155   0.51734   0.38350   0.00000  Uiso   1.00
H302   H     0.24666   0.49086   0.36159   0.00000  Uiso   1.00
H303   H     0.23790   0.54653   0.36515   0.00000  Uiso   1.00
N304   N     0.09172   0.48280   0.11657   0.00000  Uiso   1.00
H305   H     0.09530   0.45371   0.13510   0.00000  Uiso   1.00
H306   H     0.08667   0.50943   0.13832   0.00000  Uiso   1.00
N307   N     0.09532   0.47077   0.37907   0.00000  Uiso   1.00
H308   H     0.10322   0.44132   0.36290   0.00000  Uiso   1.00
H309   H     0.08694   0.49425   0.35515   0.00000  Uiso   1.00
N310   N     0.23799   0.52915   0.12084   0.00000  Uiso   1.00
H311   H     0.24637   0.50576   0.14485   0.00000  Uiso   1.00
H312   H     0.23008   0.55866   0.13689   0.00000  Uiso   1.00
N313   N     0.05282   0.48605   0.44836   0.00000  Uiso   1.00
H314   H     0.03608   0.51434   0.45566   0.00000  Uiso   1.00
H315   H     0.03593   0.45711   0.45662   0.00000  Uiso   1.00
N316   N     0.28050   0.51323   0.05166   0.00000  Uiso   1.00
H317   H     0.29749   0.54211   0.04341   0.00000  Uiso   1.00
H318   H     0.29713   0.48487   0.04435   0.00000  Uiso   1.00
N319   N     0.05169   0.48668   0.04189   0.00000  Uiso   1.00
H320   H     0.03435   0.51393   0.03193   0.00000  Uiso   1.00
H321   H     0.03589   0.45688   0.03286   0.00000  Uiso   1.00
N322   N     0.28163   0.51254   0.45811   0.00000  Uiso   1.00
H323   H     0.29758   0.54225   0.46714   0.00000  Uiso   1.00
H324   H     0.29884   0.48518   0.46807   0.00000  Uiso   1.00
O325   O     0.03834   0.42909   0.20988   0.00000  Uiso   1.00
H326   H     0.04731   0.40917   0.23446   0.00000  Uiso   1.00
O327   O     0.29498   0.57090   0.29014   0.00000  Uiso   1.00
H328   H     0.28605   0.59084   0.26557   0.00000  Uiso   1.00
O329   O     0.29034   0.43379   0.19980   0.00000  Uiso   1.00
H330   H     0.26533   0.44629   0.18556   0.00000  Uiso   1.00
O331   O     0.04299   0.56621   0.30020   0.00000  Uiso   1.00
H332   H     0.06800   0.55372   0.31443   0.00000  Uiso   1.00
N333   N     0.20832   0.38057   0.31955   0.00000  Uiso   1.00
H334   H     0.22624   0.40724   0.30788   0.00000  Uiso   1.00
H335   H     0.18653   0.39133   0.34194   0.00000  Uiso   1.00
N336   N     0.12501   0.61943   0.18045   0.00000  Uiso   1.00
H337   H     0.10710   0.59276   0.19212   0.00000  Uiso   1.00
H338   H     0.14680   0.60867   0.15806   0.00000  Uiso   1.00
N339   N     0.12586   0.37728   0.18025   0.00000  Uiso   1.00
H340   H     0.14821   0.38815   0.15797   0.00000  Uiso   1.00
H341   H     0.11004   0.40427   0.19230   0.00000  Uiso   1.00
N342   N     0.20748   0.62272   0.31975   0.00000  Uiso   1.00
H343   H     0.22329   0.59573   0.30769   0.00000  Uiso   1.00
H344   H     0.18513   0.61185   0.34203   0.00000  Uiso   1.00
C345   C     0.42015   0.49935   0.25130   0.00000  Uiso   1.00
C346   C     0.57985   0.50065   0.24870   0.00000  Uiso   1.00
C347   C     0.42410   0.48891   0.02030   0.00000  Uiso   1.00
C348   C     0.57589   0.51054   0.47970   0.00000  Uiso   1.00
C349   C     0.35304   0.46401   0.23038   0.00000  Uiso   1.00
C350   C     0.64696   0.53598   0.26963   0.00000  Uiso   1.00
C351   C     0.64411   0.46667   0.22530   0.00000  Uiso   1.00
C352   C     0.35589   0.53332   0.27471   0.00000  Uiso   1.00
C353   C     0.62411   0.50195   0.24646   0.00000  Uiso   1.00
C354   C     0.37589   0.49804   0.25354   0.00000  Uiso   1.00
C355   C     0.52043   0.35785   0.28310   0.00000  Uiso   1.00
C356   C     0.47957   0.64215   0.21690   0.00000  Uiso   1.00
C357   C     0.47975   0.35615   0.21685   0.00000  Uiso   1.00
C358   C     0.52025   0.64385   0.28315   0.00000  Uiso   1.00
C359   C     0.49968   0.50001   0.16382   0.00000  Uiso   1.00
C360   C     0.50031   0.49998   0.33618   0.00000  Uiso   1.00
C361   C     0.53774   0.50791   0.40748   0.00000  Uiso   1.00
C362   C     0.46222   0.49198   0.09255   0.00000  Uiso   1.00
C363   C     0.50051   0.49943   0.38383   0.00000  Uiso   1.00
C364   C     0.49945   0.50054   0.11617   0.00000  Uiso   1.00
C365   C     0.46392   0.48782   0.40496   0.00000  Uiso   1.00
C366   C     0.53606   0.51201   0.09501   0.00000  Uiso   1.00
C367   C     0.46261   0.49139   0.45158   0.00000  Uiso   1.00
C368   C     0.53736   0.50825   0.04841   0.00000  Uiso   1.00
C369   C     0.50023   0.49936   0.47652   0.00000  Uiso   1.00
C370   C     0.49974   0.50027   0.02348   0.00000  Uiso   1.00
C371   C     0.53836   0.50609   0.45442   0.00000  Uiso   1.00
C372   C     0.46161   0.49357   0.04559   0.00000  Uiso   1.00
C373   C     0.42463   0.48796   0.47358   0.00000  Uiso   1.00
C374   C     0.57535   0.51150   0.02643   0.00000  Uiso   1.00
N375   N     0.50000   0.61907   0.25000   0.00000  Uiso   1.00
N376   N     0.50000   0.38093   0.25000   0.00000  Uiso   1.00
O377   O     0.43892   0.53821   0.24999   0.00000  Uiso   1.00
O378   O     0.56108   0.46179   0.25000   0.00000  Uiso   1.00
O379   O     0.56108   0.53821   0.25000   0.00000  Uiso   1.00
O380   O     0.43892   0.46179   0.24999   0.00000  Uiso   1.00
O381   O     0.49999   0.53823   0.18392   0.00000  Uiso   1.00
O382   O     0.50001   0.46177   0.31607   0.00000  Uiso   1.00
O383   O     0.50001   0.53823   0.31607   0.00000  Uiso   1.00
O384   O     0.49999   0.46177   0.18392   0.00000  Uiso   1.00
Zn385  Zn    0.50000   0.55104   0.25000   0.00000  Uiso   1.00
Zn386  Zn    0.50000   0.44896   0.25000   0.00000  Uiso   1.00
N387   N     0.57489   0.51734   0.38350   0.00000  Uiso   1.00
H388   H     0.58000   0.49086   0.36159   0.00000  Uiso   1.00
H389   H     0.57123   0.54653   0.36515   0.00000  Uiso   1.00
N390   N     0.42505   0.48280   0.11657   0.00000  Uiso   1.00
H391   H     0.42863   0.45371   0.13510   0.00000  Uiso   1.00
H392   H     0.42000   0.50943   0.13832   0.00000  Uiso   1.00
N393   N     0.42865   0.47077   0.37907   0.00000  Uiso   1.00
H394   H     0.43655   0.44132   0.36290   0.00000  Uiso   1.00
H395   H     0.42027   0.49425   0.35515   0.00000  Uiso   1.00
N396   N     0.57133   0.52915   0.12084   0.00000  Uiso   1.00
H397   H     0.57970   0.50576   0.14485   0.00000  Uiso   1.00
H398   H     0.56342   0.55866   0.13689   0.00000  Uiso   1.00
N399   N     0.38615   0.48605   0.44836   0.00000  Uiso   1.00
H400   H     0.36941   0.51434   0.45566   0.00000  Uiso   1.00
H401   H     0.36926   0.45711   0.45662   0.00000  Uiso   1.00
N402   N     0.61383   0.51323   0.05166   0.00000  Uiso   1.00
H403   H     0.63082   0.54211   0.04341   0.00000  Uiso   1.00
H404   H     0.63047   0.48487   0.04435   0.00000  Uiso   1.00
N405   N     0.38503   0.48668   0.04189   0.00000  Uiso   1.00
H406   H     0.36768   0.51393   0.03193   0.00000  Uiso   1.00
H407   H     0.36922   0.45688   0.03286   0.00000  Uiso   1.00
N408   N     0.61496   0.51254   0.45811   0.00000  Uiso   1.00
H409   H     0.63091   0.54225   0.46714   0.00000  Uiso   1.00
H410   H     0.63217   0.48518   0.46807   0.00000  Uiso   1.00
O411   O     0.37168   0.42909   0.20988   0.00000  Uiso   1.00
H412   H     0.38064   0.40917   0.23446   0.00000  Uiso   1.00
O413   O     0.62832   0.57090   0.29014   0.00000  Uiso   1.00
H414   H     0.61938   0.59084   0.26557   0.00000  Uiso   1.00
O415   O     0.62367   0.43379   0.19980   0.00000  Uiso   1.00
H416   H     0.59867   0.44629   0.18556   0.00000  Uiso   1.00
O417   O     0.37633   0.56621   0.30020   0.00000  Uiso   1.00
H418   H     0.40133   0.55372   0.31443   0.00000  Uiso   1.00
N419   N     0.54165   0.38057   0.31955   0.00000  Uiso   1.00
H420   H     0.55957   0.40724   0.30788   0.00000  Uiso   1.00
H421   H     0.51986   0.39133   0.34194   0.00000  Uiso   1.00
N422   N     0.45834   0.61943   0.18045   0.00000  Uiso   1.00
H423   H     0.44043   0.59276   0.19212   0.00000  Uiso   1.00
H424   H     0.48013   0.60867   0.15806   0.00000  Uiso   1.00
N425   N     0.45919   0.37728   0.18025   0.00000  Uiso   1.00
H426   H     0.48154   0.38815   0.15797   0.00000  Uiso   1.00
H427   H     0.44338   0.40427   0.19230   0.00000  Uiso   1.00
N428   N     0.54081   0.62272   0.31975   0.00000  Uiso   1.00
H429   H     0.55662   0.59573   0.30769   0.00000  Uiso   1.00
H430   H     0.51846   0.61185   0.34203   0.00000  Uiso   1.00
C431   C     0.75348   0.49935   0.25130   0.00000  Uiso   1.00
C432   C     0.91318   0.50065   0.24870   0.00000  Uiso   1.00
C433   C     0.75743   0.48891   0.02030   0.00000  Uiso   1.00
C434   C     0.90922   0.51054   0.47970   0.00000  Uiso   1.00
C435   C     0.68637   0.46401   0.23038   0.00000  Uiso   1.00
C436   C     0.98029   0.53598   0.26963   0.00000  Uiso   1.00
C437   C     0.97745   0.46667   0.22530   0.00000  Uiso   1.00
C438   C     0.68922   0.53332   0.27471   0.00000  Uiso   1.00
C439   C     0.95744   0.50195   0.24646   0.00000  Uiso   1.00
C440   C     0.70923   0.49804   0.25354   0.00000  Uiso   1.00
C441   C     0.85376   0.35785   0.28310   0.00000  Uiso   1.00
C442   C     0.81290   0.64215   0.21690   0.00000  Uiso   1.00
C443   C     0.81309   0.35615   0.21685   0.00000  Uiso   1.00
C444   C     0.85358   0.64385   0.28315   0.00000  Uiso   1.00
C445   C     0.83302   0.50001   0.16382   0.00000  Uiso   1.00
C446   C     0.83364   0.49998   0.33618   0.00000  Uiso   1.00
C447   C     0.87108   0.50791   0.40748   0.00000  Uiso   1.00
C448   C     0.79555   0.49198   0.09255   0.00000  Uiso   1.00
C449   C     0.83385   0.49943   0.38383   0.00000  Uiso   1.00
C450   C     0.83278   0.50054   0.11617   0.00000  Uiso   1.00
C451   C     0.79725   0.48782   0.40496   0.00000  Uiso   1.00
C452   C     0.86939   0.51201   0.09501   0.00000  Uiso   1.00
C453   C     0.79595   0.49139   0.45158   0.00000  Uiso   1.00
C454   C     0.87070   0.50825   0.04841   0.00000  Uiso   1.00
C455   C     0.83356   0.49936   0.47652   0.00000  Uiso   1.00
C456   C     0.83307   0.50027   0.02348   0.00000  Uiso   1.00
C457   C     0.87169   0.50609   0.45442   0.00000  Uiso   1.00
C458   C     0.79495   0.49357   0.04559   0.00000  Uiso   1.00
C459   C     0.75796   0.48796   0.47358   0.00000  Uiso   1.00
C460   C     0.90869   0.51150   0.02643   0.00000  Uiso   1.00
N461   N     0.83333   0.61907   0.25000   0.00000  Uiso   1.00
N462   N     0.83333   0.38093   0.25000   0.00000  Uiso   1.00
O463   O     0.77226   0.53821   0.24999   0.00000  Uiso   1.00
O464   O     0.89441   0.46179   0.25000   0.00000  Uiso   1.00
O465   O     0.89441   0.53821   0.25000   0.00000  Uiso   1.00
O466   O     0.77226   0.46179   0.24999   0.00000  Uiso   1.00
O467   O     0.83333   0.53823   0.18392   0.00000  Uiso   1.00
O468   O     0.83334   0.46177   0.31607   0.00000  Uiso   1.00
O469   O     0.83334   0.53823   0.31607   0.00000  Uiso   1.00
O470   O     0.83333   0.46177   0.18392   0.00000  Uiso   1.00
Zn471  Zn    0.83333   0.55104   0.25000   0.00000  Uiso   1.00
Zn472  Zn    0.83333   0.44896   0.25000   0.00000  Uiso   1.00
N473   N     0.90822   0.51734   0.38350   0.00000  Uiso   1.00
H474   H     0.91333   0.49086   0.36159   0.00000  Uiso   1.00
H475   H     0.90456   0.54653   0.36515   0.00000  Uiso   1.00
N476   N     0.75838   0.48280   0.11657   0.00000  Uiso   1.00
H477   H     0.76197   0.45371   0.13510   0.00000  Uiso   1.00
H478   H     0.75333   0.50943   0.13832   0.00000  Uiso   1.00
N479   N     0.76199   0.47077   0.37907   0.00000  Uiso   1.00
H480   H     0.76989   0.44132   0.36290   0.00000  Uiso   1.00
H481   H     0.75360   0.49425   0.35515   0.00000  Uiso   1.00
N482   N     0.90466   0.52915   0.12084   0.00000  Uiso   1.00
H483   H     0.91304   0.50576   0.14485   0.00000  Uiso   1.00
H484   H     0.89675   0.55866   0.13689   0.00000  Uiso   1.00
N485   N     0.71948   0.48605   0.44836   0.00000  Uiso   1.00
H486   H     0.70275   0.51434   0.45566   0.00000  Uiso   1.00
H487   H     0.70260   0.45711   0.45662   0.00000  Uiso   1.00
N488   N     0.94716   0.51323   0.05166   0.00000  Uiso   1.00
H489   H     0.96415   0.54211   0.04341   0.00000  Uiso   1.00
H490   H     0.96380   0.48487   0.04435   0.00000  Uiso   1.00
N491   N     0.71836   0.48668   0.04189   0.00000  Uiso   1.00
H492   H     0.70101   0.51393   0.03193   0.00000  Uiso   1.00
H493   H     0.70256   0.45688   0.03286   0.00000  Uiso   1.00
N494   N     0.94829   0.51254   0.45811   0.00000  Uiso   1.00
H495   H     0.96424   0.54225   0.46714   0.00000  Uiso   1.00
H496   H     0.96550   0.48518   0.46807   0.00000  Uiso   1.00
O497   O     0.70501   0.42909   0.20988   0.00000  Uiso   1.00
H498   H     0.71398   0.40917   0.23446   0.00000  Uiso   1.00
O499   O     0.96165   0.57090   0.29014   0.00000  Uiso   1.00
H500   H     0.95272   0.59084   0.26557   0.00000  Uiso   1.00
O501   O     0.95700   0.43379   0.19980   0.00000  Uiso   1.00
H502   H     0.93200   0.44629   0.18556   0.00000  Uiso   1.00
O503   O     0.70966   0.56621   0.30020   0.00000  Uiso   1.00
H504   H     0.73467   0.55372   0.31443   0.00000  Uiso   1.00
N505   N     0.87499   0.38057   0.31955   0.00000  Uiso   1.00
H506   H     0.89290   0.40724   0.30788   0.00000  Uiso   1.00
H507   H     0.85320   0.39133   0.34194   0.00000  Uiso   1.00
N508   N     0.79168   0.61943   0.18045   0.00000  Uiso   1.00
H509   H     0.77376   0.59276   0.19212   0.00000  Uiso   1.00
H510   H     0.81347   0.60867   0.15806   0.00000  Uiso   1.00
N511   N     0.79253   0.37728   0.18025   0.00000  Uiso   1.00
H512   H     0.81487   0.38815   0.15797   0.00000  Uiso   1.00
H513   H     0.77671   0.40427   0.19230   0.00000  Uiso   1.00
N514   N     0.87414   0.62272   0.31975   0.00000  Uiso   1.00
H515   H     0.88996   0.59573   0.30769   0.00000  Uiso   1.00
H516   H     0.85180   0.61185   0.34203   0.00000  Uiso   1.00
C517   C     0.08682   0.83269   0.25130   0.00000  Uiso   1.00
C518   C     0.24652   0.83398   0.24870   0.00000  Uiso   1.00
C519   C     0.09076   0.82225   0.02030   0.00000  Uiso   1.00
C520   C     0.24255   0.84388   0.47970   0.00000  Uiso   1.00
C521   C     0.01970   0.79734   0.23038   0.00000  Uiso   1.00
C522   C     0.31363   0.86932   0.26963   0.00000  Uiso   1.00
C523   C     0.31078   0.80001   0.22530   0.00000  Uiso   1.00
C524   C     0.02255   0.86666   0.27471   0.00000  Uiso   1.00
C525   C     0.29077   0.83529   0.24646   0.00000  Uiso   1.00
C526   C     0.04256   0.83138   0.25354   0.00000  Uiso   1.00
C527   C     0.18709   0.69118   0.28310   0.00000  Uiso   1.00
C528   C     0.14624   0.97548   0.21690   0.00000  Uiso   1.00
C529   C     0.14642   0.68948   0.21685   0.00000  Uiso   1.00
C530   C     0.18691   0.97718   0.28315   0.00000  Uiso   1.00
C531   C     0.16635   0.83335   0.16382   0.00000  Uiso   1.00
C532   C     0.16697   0.83332   0.33618   0.00000  Uiso   1.00
C533   C     0.20441   0.84124   0.40748   0.00000  Uiso   1.00
C534   C     0.12888   0.82532   0.09255   0.00000  Uiso   1.00
C535   C     0.16718   0.83276   0.38383   0.00000  Uiso   1.00
C536   C     0.16611   0.83387   0.11617   0.00000  Uiso   1.00
C537   C     0.13059   0.82115   0.40496   0.00000  Uiso   1.00
C538   C     0.20272   0.84534   0.09501   0.00000  Uiso   1.00
C539   C     0.12928   0.82472   0.45158   0.00000  Uiso   1.00
C540   C     0.20403   0.84158   0.04841   0.00000  Uiso   1.00
C541   C     0.16690   0.83269   0.47652   0.00000  Uiso   1.00
C542   C     0.16641   0.83360   0.02348   0.00000  Uiso   1.00
C543   C     0.20502   0.83942   0.45442   0.00000  Uiso   1.00
C544   C     0.12828   0.82690   0.04559   0.00000  Uiso   1.00
C545   C     0.09130   0.82129   0.47358   0.00000  Uiso   1.00
C546   C     0.24202   0.84484   0.02643   0.00000  Uiso   1.00
N547   N     0.16667   0.95240   0.25000   0.00000  Uiso   1.00
N548   N     0.16667   0.71427   0.25000   0.00000  Uiso   1.00
O549   O     0.10559   0.87154   0.24999   0.00000  Uiso   1.00
O550   O     0.22774   0.79513   0.25000   0.00000  Uiso   1.00
O551   O     0.22774   0.87154   0.25000   0.00000  Uiso   1.00
O552   O     0.10559   0.79513   0.24999   0.00000  Uiso   1.00
O553   O     0.16666   0.87156   0.18392   0.00000  Uiso   1.00
O554   O     0.16667   0.79511   0.31607   0.00000  Uiso   1.00
O555   O     0.16667   0.87156   0.31607   0.00000  Uiso   1.00
O556   O     0.16666   0.79511   0.18392   0.00000  Uiso   1.00
Zn557  Zn    0.16667   0.88437   0.25000   0.00000  Uiso   1.00
Zn558  Zn    0.16667   0.78229   0.25000   0.00000  Uiso   1.00
N559   N     0.24155   0.85068   0.38350   0.00000  Uiso   1.00
H560   H     0.24666   0.82419   0.36159   0.00000  Uiso   1.00
H561   H     0.23790   0.87986   0.36515   0.00000  Uiso   1.00
N562   N     0.09172   0.81613   0.11657   0.00000  Uiso   1.00
H563   H     0.09530   0.78705   0.13510   0.00000  Uiso   1.00
H564   H     0.08667   0.84277   0.13832   0.00000  Uiso   1.00
N565   N     0.09532   0.80410   0.37907   0.00000  Uiso   1.00
H566   H     0.10322   0.77465   0.36290   0.00000  Uiso   1.00
H567   H     0.08694   0.82758   0.35515   0.00000  Uiso   1.00
N568   N     0.23799   0.86248   0.12084   0.00000  Uiso   1.00
H569   H     0.24637   0.83909   0.14485   0.00000  Uiso   1.00
H570   H     0.23008   0.89199   0.13689   0.00000  Uiso   1.00
N571   N     0.05282   0.81938   0.44836   0.00000  Uiso   1.00
H572   H     0.03608   0.84767   0.45566   0.00000  Uiso   1.00
H573   H     0.03593   0.79045   0.45662   0.00000  Uiso   1.00
N574   N     0.28050   0.84657   0.05166   0.00000  Uiso   1.00
H575   H     0.29749   0.87544   0.04341   0.00000  Uiso   1.00
H576   H     0.29713   0.81821   0.04435   0.00000  Uiso   1.00
N577   N     0.05169   0.82001   0.04189   0.00000  Uiso   1.00
H578   H     0.03435   0.84727   0.03193   0.00000  Uiso   1.00
H579   H     0.03589   0.79021   0.03286   0.00000  Uiso   1.00
N580   N     0.28163   0.84587   0.45811   0.00000  Uiso   1.00
H581   H     0.29758   0.87559   0.46714   0.00000  Uiso   1.00
H582   H     0.29884   0.81852   0.46807   0.00000  Uiso   1.00
O583   O     0.03834   0.76242   0.20988   0.00000  Uiso   1.00
H584   H     0.04731   0.74250   0.23446   0.00000  Uiso   1.00
O585   O     0.29498   0.90423   0.29014   0.00000  Uiso   1.00
H586   H     0.28605   0.92418   0.26557   0.00000  Uiso   1.00
O587   O     0.29034   0.76712   0.19980   0.00000  Uiso   1.00
H588   H     0.26533   0.77962   0.18556   0.00000  Uiso   1.00
O589   O     0.04299   0.89955   0.30020   0.00000  Uiso   1.00
H590   H     0.06800   0.88705   0.31443   0.00000  Uiso   1.00
N591   N     0.20832   0.71390   0.31955   0.00000  Uiso   1.00
H592   H     0.22624   0.74058   0.30788   0.00000  Uiso   1.00
H593   H     0.18653   0.72466   0.34194   0.00000  Uiso   1.00
N594   N     0.12501   0.95277   0.18045   0.00000  Uiso   1.00
H595   H     0.10710   0.92609   0.19212   0.00000  Uiso   1.00
H596   H     0.14680   0.94201   0.15806   0.00000  Uiso   1.00
N597   N     0.12586   0.71061   0.18025   0.00000  Uiso   1.00
H598   H     0.14821   0.72149   0.15797   0.00000  Uiso   1.00
H599   H     0.11004   0.73760   0.19230   0.00000  Uiso   1.00
N600   N     0.20748   0.95606   0.31975   0.00000  Uiso   1.00
H601   H     0.22329   0.92906   0.30769   0.00000  Uiso   1.00
H602   H     0.18513   0.94518   0.34203   0.00000  Uiso   1.00
C603   C     0.42015   0.83269   0.25130   0.00000  Uiso   1.00
C604   C     0.57985   0.83398   0.24870   0.00000  Uiso   1.00
C605   C     0.42410   0.82225   0.02030   0.00000  Uiso   1.00
C606   C     0.57589   0.84388   0.47970   0.00000  Uiso   1.00
C607   C     0.35304   0.79734   0.23038   0.00000  Uiso   1.00
C608   C     0.64696   0.86932   0.26963   0.00000  Uiso   1.00
C609   C     0.64411   0.80001   0.22530   0.00000  Uiso   1.00
C610   C     0.35589   0.86666   0.27471   0.00000  Uiso   1.00
C611   C     0.62411   0.83529   0.24646   0.00000  Uiso   1.00
C612   C     0.37589   0.83138   0.25354   0.00000  Uiso   1.00
C613   C     0.52043   0.69118   0.28310   0.00000  Uiso   1.00
C614   C     0.47957   0.97548   0.21690   0.00000  Uiso   1.00
C615   C     0.47975   0.68948   0.21685   0.00000  Uiso   1.00
C616   C     0.52025   0.97718   0.28315   0.00000  Uiso   1.00
C617   C     0.49968   0.83335   0.16382   0.00000  Uiso   1.00
C618   C     0.50031   0.83332   0.33618   0.00000  Uiso   1.00
C619   C     0.53774   0.84124   0.40748   0.00000  Uiso   1.00
C620   C     0.46222   0.82532   0.09255   0.00000  Uiso   1.00
C621   C     0.50051   0.83276   0.38383   0.00000  Uiso   1.00
C622   C     0.49945   0.83387   0.11617   0.00000  Uiso   1.00
C623   C     0.46392   0.82115   0.40496   0.00000  Uiso   1.00
C624   C     0.53606   0.84534   0.09501   0.00000  Uiso   1.00
C625   C     0.46261   0.82472   0.45158   0.00000  Uiso   1.00
C626   C     0.53736   0.84158   0.04841   0.00000  Uiso   1.00
C627   C     0.50023   0.83269   0.47652   0.00000  Uiso   1.00
C628   C     0.49974   0.83360   0.02348   0.00000  Uiso   1.00
C629   C     0.53836   0.83942   0.45442   0.00000  Uiso   1.00
C630   C     0.46161   0.82690   0.04559   0.00000  Uiso   1.00
C631   C     0.42463   0.82129   0.47358   0.00000  Uiso   1.00
C632   C     0.57535   0.84484   0.02643   0.00000  Uiso   1.00
N633   N     0.50000   0.95240   0.25000   0.00000  Uiso   1.00
N634   N     0.50000   0.71427   0.25000   0.00000  Uiso   1.00
O635   O     0.43892   0.87154   0.24999   0.00000  Uiso   1.00
O636   O     0.56108   0.79513   0.25000   0.00000  Uiso   1.00
O637   O     0.56108   0.87154   0.25000   0.00000  Uiso   1.00
O638   O     0.43892   0.79513   0.24999   0.00000  Uiso   1.00
O639   O     0.49999   0.87156   0.18392   0.00000  Uiso   1.00
O640   O     0.50001   0.79511   0.31607   0.00000  Uiso   1.00
O641   O     0.50001   0.87156   0.31607   0.00000  Uiso   1.00
O642   O     0.49999   0.79511   0.18392   0.00000  Uiso   1.00
Zn643  Zn    0.50000   0.88437   0.25000   0.00000  Uiso   1.00
Zn644  Zn    0.50000   0.78229   0.25000   0.00000  Uiso   1.00
N645   N     0.57489   0.85068   0.38350   0.00000  Uiso   1.00
H646   H     0.58000   0.82419   0.36159   0.00000  Uiso   1.00
H647   H     0.57123   0.87986   0.36515   0.00000  Uiso   1.00
N648   N     0.42505   0.81613   0.11657   0.00000  Uiso   1.00
H649   H     0.42863   0.78705   0.13510   0.00000  Uiso   1.00
H650   H     0.42000   0.84277   0.13832   0.00000  Uiso   1.00
N651   N     0.42865   0.80410   0.37907   0.00000  Uiso   1.00
H652   H     0.43655   0.77465   0.36290   0.00000  Uiso   1.00
H653   H     0.42027   0.82758   0.35515   0.00000  Uiso   1.00
N654   N     0.57133   0.86248   0.12084   0.00000  Uiso   1.00
H655   H     0.57970   0.83909   0.14485   0.00000  Uiso   1.00
H656   H     0.56342   0.89199   0.13689   0.00000  Uiso   1.00
N657   N     0.38615   0.81938   0.44836   0.00000  Uiso   1.00
H658   H     0.36941   0.84767   0.45566   0.00000  Uiso   1.00
H659   H     0.36926   0.79045   0.45662   0.00000  Uiso   1.00
N660   N     0.61383   0.84657   0.05166   0.00000  Uiso   1.00
H661   H     0.63082   0.87544   0.04341   0.00000  Uiso   1.00
H662   H     0.63047   0.81821   0.04435   0.00000  Uiso   1.00
N663   N     0.38503   0.82001   0.04189   0.00000  Uiso   1.00
H664   H     0.36768   0.84727   0.03193   0.00000  Uiso   1.00
H665   H     0.36922   0.79021   0.03286   0.00000  Uiso   1.00
N666   N     0.61496   0.84587   0.45811   0.00000  Uiso   1.00
H667   H     0.63091   0.87559   0.46714   0.00000  Uiso   1.00
H668   H     0.63217   0.81852   0.46807   0.00000  Uiso   1.00
O669   O     0.37168   0.76242   0.20988   0.00000  Uiso   1.00
H670   H     0.38064   0.74250   0.23446   0.00000  Uiso   1.00
O671   O     0.62832   0.90423   0.29014   0.00000  Uiso   1.00
H672   H     0.61938   0.92418   0.26557   0.00000  Uiso   1.00
O673   O     0.62367   0.76712   0.19980   0.00000  Uiso   1.00
H674   H     0.59867   0.77962   0.18556   0.00000  Uiso   1.00
O675   O     0.37633   0.89955   0.30020   0.00000  Uiso   1.00
H676   H     0.40133   0.88705   0.31443   0.00000  Uiso   1.00
N677   N     0.54165   0.71390   0.31955   0.00000  Uiso   1.00
H678   H     0.55957   0.74058   0.30788   0.00000  Uiso   1.00
H679   H     0.51986   0.72466   0.34194   0.00000  Uiso   1.00
N680   N     0.45834   0.95277   0.18045   0.00000  Uiso   1.00
H681   H     0.44043   0.92609   0.19212   0.00000  Uiso   1.00
H682   H     0.48013   0.94201   0.15806   0.00000  Uiso   1.00
N683   N     0.45919   0.71061   0.18025   0.00000  Uiso   1.00
H684   H     0.48154   0.72149   0.15797   0.00000  Uiso   1.00
H685   H     0.44338   0.73760   0.19230   0.00000  Uiso   1.00
N686   N     0.54081   0.95606   0.31975   0.00000  Uiso   1.00
H687   H     0.55662   0.92906   0.30769   0.00000  Uiso   1.00
H688   H     0.51846   0.94518   0.34203   0.00000  Uiso   1.00
C689   C     0.75348   0.83269   0.25130   0.00000  Uiso   1.00
C690   C     0.91318   0.83398   0.24870   0.00000  Uiso   1.00
C691   C     0.75743   0.82225   0.02030   0.00000  Uiso   1.00
C692   C     0.90922   0.84388   0.47970   0.00000  Uiso   1.00
C693   C     0.68637   0.79734   0.23038   0.00000  Uiso   1.00
C694   C     0.98029   0.86932   0.26963   0.00000  Uiso   1.00
C695   C     0.97745   0.80001   0.22530   0.00000  Uiso   1.00
C696   C     0.68922   0.86666   0.27471   0.00000  Uiso   1.00
C697   C     0.95744   0.83529   0.24646   0.00000  Uiso   1.00
C698   C     0.70923   0.83138   0.25354   0.00000  Uiso   1.00
C699   C     0.85376   0.69118   0.28310   0.00000  Uiso   1.00
C700   C     0.81290   0.97548   0.21690   0.00000  Uiso   1.00
C701   C     0.81309   0.68948   0.21685   0.00000  Uiso   1.00
C702   C     0.85358   0.97718   0.28315   0.00000  Uiso   1.00
C703   C     0.83302   0.83335   0.16382   0.00000  Uiso   1.00
C704   C     0.83364   0.83332   0.33618   0.00000  Uiso   1.00
C705   C     0.87108   0.84124   0.40748   0.00000  Uiso   1.00
C706   C     0.79555   0.82532   0.09255   0.00000  Uiso   1.00
C707   C     0.83385   0.83276   0.38383   0.00000  Uiso   1.00
C708   C     0.83278   0.83387   0.11617   0.00000  Uiso   1.00
C709   C     0.79725   0.82115   0.40496   0.00000  Uiso   1.00
C710   C     0.86939   0.84534   0.09501   0.00000  Uiso   1.00
C711   C     0.79595   0.82472   0.45158   0.00000  Uiso   1.00
C712   C     0.87070   0.84158   0.04841   0.00000  Uiso   1.00
C713   C     0.83356   0.83269   0.47652   0.00000  Uiso   1.00
C714   C     0.83307   0.83360   0.02348   0.00000  Uiso   1.00
C715   C     0.87169   0.83942   0.45442   0.00000  Uiso   1.00
C716   C     0.79495   0.82690   0.04559   0.00000  Uiso   1.00
C717   C     0.75796   0.82129   0.47358   0.00000  Uiso   1.00
C718   C     0.90869   0.84484   0.02643   0.00000  Uiso   1.00
N719   N     0.83333   0.95240   0.25000   0.00000  Uiso   1.00
N720   N     0.83333   0.71427   0.25000   0.00000  Uiso   1.00
O721   O     0.77226   0.87154   0.24999   0.00000  Uiso   1.00
O722   O     0.89441   0.79513   0.25000   0.00000  Uiso   1.00
O723   O     0.89441   0.87154   0.25000   0.00000  Uiso   1.00
O724   O     0.77226   0.79513   0.24999   0.00000  Uiso   1.00
O725   O     0.83333   0.87156   0.18392   0.00000  Uiso   1.00
O726   O     0.83334   0.79511   0.31607   0.00000  Uiso   1.00
O727   O     0.83334   0.87156   0.31607   0.00000  Uiso   1.00
O728   O     0.83333   0.79511   0.18392   0.00000  Uiso   1.00
Zn729  Zn    0.83333   0.88437   0.25000   0.00000  Uiso   1.00
Zn730  Zn    0.83333   0.78229   0.25000   0.00000  Uiso   1.00
N731   N     0.90822   0.85068   0.38350   0.00000  Uiso   1.00
H732   H     0.91333   0.82419   0.36159   0.00000  Uiso   1.00
H733   H     0.90456   0.87986   0.36515   0.00000  Uiso   1.00
N734   N     0.75838   0.81613   0.11657   0.00000  Uiso   1.00
H735   H     0.76197   0.78705   0.13510   0.00000  Uiso   1.00
H736   H     0.75333   0.84277   0.13832   0.00000  Uiso   1.00
N737   N     0.76199   0.80410   0.37907   0.00000  Uiso   1.00
H738   H     0.76989   0.77465   0.36290   0.00000  Uiso   1.00
H739   H     0.75360   0.82758   0.35515   0.00000  Uiso   1.00
N740   N     0.90466   0.86248   0.12084   0.00000  Uiso   1.00
H741   H     0.91304   0.83909   0.14485   0.00000  Uiso   1.00
H742   H     0.89675   0.89199   0.13689   0.00000  Uiso   1.00
N743   N     0.71948   0.81938   0.44836   0.00000  Uiso   1.00
H744   H     0.70275   0.84767   0.45566   0.00000  Uiso   1.00
H745   H     0.70260   0.79045   0.45662   0.00000  Uiso   1.00
N746   N     0.94716   0.84657   0.05166   0.00000  Uiso   1.00
H747   H     0.96415   0.87544   0.04341   0.00000  Uiso   1.00
H748   H     0.96380   0.81821   0.04435   0.00000  Uiso   1.00
N749   N     0.71836   0.82001   0.04189   0.00000  Uiso   1.00
H750   H     0.70101   0.84727   0.03193   0.00000  Uiso   1.00
H751   H     0.70256   0.79021   0.03286   0.00000  Uiso   1.00
N752   N     0.94829   0.84587   0.45811   0.00000  Uiso   1.00
H753   H     0.96424   0.87559   0.46714   0.00000  Uiso   1.00
H754   H     0.96550   0.81852   0.46807   0.00000  Uiso   1.00
O755   O     0.70501   0.76242   0.20988   0.00000  Uiso   1.00
H756   H     0.71398   0.74250   0.23446   0.00000  Uiso   1.00
O757   O     0.96165   0.90423   0.29014   0.00000  Uiso   1.00
H758   H     0.95272   0.92418   0.26557   0.00000  Uiso   1.00
O759   O     0.95700   0.76712   0.19980   0.00000  Uiso   1.00
H760   H     0.93200   0.77962   0.18556   0.00000  Uiso   1.00
O761   O     0.70966   0.89955   0.30020   0.00000  Uiso   1.00
H762   H     0.73467   0.88705   0.31443   0.00000  Uiso   1.00
N763   N     0.87499   0.71390   0.31955   0.00000  Uiso   1.00
H764   H     0.89290   0.74058   0.30788   0.00000  Uiso   1.00
H765   H     0.85320   0.72466   0.34194   0.00000  Uiso   1.00
N766   N     0.79168   0.95277   0.18045   0.00000  Uiso   1.00
H767   H     0.77376   0.92609   0.19212   0.00000  Uiso   1.00
H768   H     0.81347   0.94201   0.15806   0.00000  Uiso   1.00
N769   N     0.79253   0.71061   0.18025   0.00000  Uiso   1.00
H770   H     0.81487   0.72149   0.15797   0.00000  Uiso   1.00
H771   H     0.77671   0.73760   0.19230   0.00000  Uiso   1.00
N772   N     0.87414   0.95606   0.31975   0.00000  Uiso   1.00
H773   H     0.88996   0.92906   0.30769   0.00000  Uiso   1.00
H774   H     0.85180   0.94518   0.34203   0.00000  Uiso   1.00
C775   C     0.08682   0.16602   0.75130   0.00000  Uiso   1.00
C776   C     0.24652   0.16731   0.74870   0.00000  Uiso   1.00
C777   C     0.09076   0.15558   0.52030   0.00000  Uiso   1.00
C778   C     0.24255   0.17721   0.97970   0.00000  Uiso   1.00
C779   C     0.01970   0.13068   0.73038   0.00000  Uiso   1.00
C780   C     0.31363   0.20265   0.76963   0.00000  Uiso   1.00
C781   C     0.31078   0.13334   0.72530   0.00000  Uiso   1.00
C782   C     0.02255   0.19999   0.77471   0.00000  Uiso   1.00
C783   C     0.29077   0.16862   0.74646   0.00000  Uiso   1.00
C784   C     0.04256   0.16471   0.75354   0.00000  Uiso   1.00
C785   C     0.18709   0.02452   0.78310   0.00000  Uiso   1.00
C786   C     0.14624   0.30882   0.71690   0.00000  Uiso   1.00
C787   C     0.14642   0.02282   0.71685   0.00000  Uiso   1.00
C788   C     0.18691   0.31052   0.78315   0.00000  Uiso   1.00
C789   C     0.16635   0.16668   0.66382   0.00000  Uiso   1.00
C790   C     0.16697   0.16665   0.83618   0.00000  Uiso   1.00
C791   C     0.20441   0.17458   0.90748   0.00000  Uiso   1.00
C792   C     0.12888   0.15865   0.59255   0.00000  Uiso   1.00
C793   C     0.16718   0.16609   0.88383   0.00000  Uiso   1.00
C794   C     0.16611   0.16720   0.61617   0.00000  Uiso   1.00
C795   C     0.13059   0.15448   0.90496   0.00000  Uiso   1.00
C796   C     0.20272   0.17867   0.59501   0.00000  Uiso   1.00
C797   C     0.12928   0.15806   0.95158   0.00000  Uiso   1.00
C798   C     0.20403   0.17492   0.54841   0.00000  Uiso   1.00
C799   C     0.16690   0.16603   0.97652   0.00000  Uiso   1.00
C800   C     0.16641   0.16693   0.52348   0.00000  Uiso   1.00
C801   C     0.20502   0.17276   0.95442   0.00000  Uiso   1.00
C802   C     0.12828   0.16024   0.54559   0.00000  Uiso   1.00
C803   C     0.09130   0.15462   0.97358   0.00000  Uiso   1.00
C804   C     0.24202   0.17817   0.52643   0.00000  Uiso   1.00
N805   N     0.16667   0.28573   0.75000   0.00000  Uiso   1.00
N806   N     0.16667   0.04760   0.75000   0.00000  Uiso   1.00
O807   O     0.10559   0.20487   0.74999   0.00000  Uiso   1.00
O808   O     0.22774   0.12846   0.75000   0.00000  Uiso   1.00
O809   O     0.22774   0.20487   0.75000   0.00000  Uiso   1.00
O810   O     0.10559   0.12846   0.74999   0.00000  Uiso   1.00
O811   O     0.16666   0.20489   0.68392   0.00000  Uiso   1.00
O812   O     0.16667   0.12844   0.81607   0.00000  Uiso   1.00
O813   O     0.16667   0.20489   0.81607   0.00000  Uiso   1.00
O814   O     0.16666   0.12844   0.68392   0.00000  Uiso   1.00
Zn815  Zn    0.16667   0.21771   0.75000   0.00000  Uiso   1.00
Zn816  Zn    0.16667   0.11563   0.75000   0.00000  Uiso   1.00
N817   N     0.24155   0.18401   0.88350   0.00000  Uiso   1.00
H818   H     0.24666   0.15752   0.86159   0.00000  Uiso   1.00
H819   H     0.23790   0.21320   0.86515   0.00000  Uiso   1.00
N820   N     0.09172   0.14947   0.61657   0.00000  Uiso   1.00
H821   H     0.09530   0.12038   0.63510   0.00000  Uiso   1.00
H822   H     0.08667   0.17610   0.63832   0.00000  Uiso   1.00
N823   N     0.09532   0.13743   0.87907   0.00000  Uiso   1.00
H824   H     0.10322   0.10798   0.86290   0.00000  Uiso   1.00
H825   H     0.08694   0.16092   0.85515   0.00000  Uiso   1.00
N826   N     0.23799   0.19581   0.62084   0.00000  Uiso   1.00
H827   H     0.24637   0.17243   0.64485   0.00000  Uiso   1.00
H828   H     0.23008   0.22533   0.63689   0.00000  Uiso   1.00
N829   N     0.05282   0.15272   0.94836   0.00000  Uiso   1.00
H830   H     0.03608   0.18101   0.95566   0.00000  Uiso   1.00
H831   H     0.03593   0.12378   0.95662   0.00000  Uiso   1.00
N832   N     0.28050   0.17990   0.55166   0.00000  Uiso   1.00
H833   H     0.29749   0.20877   0.54341   0.00000  Uiso   1.00
H834   H     0.29713   0.15154   0.54435   0.00000  Uiso   1.00
N835   N     0.05169   0.15335   0.54189   0.00000  Uiso   1.00
H836   H     0.03435   0.18060   0.53193   0.00000  Uiso   1.00
H837   H     0.03589   0.12354   0.53286   0.00000  Uiso   1.00
N838   N     0.28163   0.17921   0.95811   0.00000  Uiso   1.00
H839   H     0.29758   0.20892   0.96714   0.00000  Uiso   1.00
H840   H     0.29884   0.15185   0.96807   0.00000  Uiso   1.00
O841   O     0.03834   0.09575   0.70988   0.00000  Uiso   1.00
H842   H     0.04731   0.07584   0.73446   0.00000  Uiso   1.00
O843   O     0.29498   0.23756   0.79014   0.00000  Uiso   1.00
H844   H     0.28605   0.25751   0.76557   0.00000  Uiso   1.00
O845   O     0.29034   0.10045   0.69980   0.00000  Uiso   1.00
H846   H     0.26533   0.11295   0.68556   0.00000  Uiso   1.00
O847   O     0.04299   0.23288   0.80020   0.00000  Uiso   1.00
H848   H     0.06800   0.22039   0.81443   0.00000  Uiso   1.00
N849   N     0.20832   0.04723   0.81955   0.00000  Uiso   1.00
H850   H     0.22624   0.07391   0.80788   0.00000  Uiso   1.00
H851   H     0.18653   0.05799   0.84194   0.00000  Uiso   1.00
N852   N     0.12501   0.28610   0.68045   0.00000  Uiso   1.00
H853   H     0.10710   0.25942   0.69212   0.00000  Uiso   1.00
H854   H     0.14680   0.27534   0.65806   0.00000  Uiso   1.00
N855   N     0.12586   0.04394   0.68025   0.00000  Uiso   1.00
H856   H     0.14821   0.05482   0.65797   0.00000  Uiso   1.00
H857   H     0.11004   0.07094   0.69230   0.00000  Uiso   1.00
N858   N     0.20748   0.28939   0.81975   0.00000  Uiso   1.00
H859   H     0.22329   0.26239   0.80769   0.00000  Uiso   1.00
H860   H     0.18513   0.27852   0.84203   0.00000  Uiso   1.00
C861   C     0.42015   0.16602   0.75130   0.00000  Uiso   1.00
C862   C     0.57985   0.16731   0.74870   0.00000  Uiso   1.00
C863   C     0.42410   0.15558   0.52030   0.00000  Uiso   1.00
C864   C     0.57589   0.17721   0.97970   0.00000  Uiso   1.00
C865   C     0.35304   0.13068   0.73038   0.00000  Uiso   1.00
C866   C     0.64696   0.20265   0.76963   0.00000  Uiso   1.00
C867   C     0.64411   0.13334   0.72530   0.00000  Uiso   1.00
C868   C     0.35589   0.19999   0.77471   0.00000  Uiso   1.00
C869   C     0.62411   0.16862   0.74646   0.00000  Uiso   1.00
C870   C     0.37589   0.16471   0.75354   0.00000  Uiso   1.00
C871   C     0.52043   0.02452   0.78310   0.00000  Uiso   1.00
C872   C     0.47957   0.30882   0.71690   0.00000  Uiso   1.00
C873   C     0.47975   0.02282   0.71685   0.00000  Uiso   1.00
C874   C     0.52025   0.31052   0.78315   0.00000  Uiso   1.00
C875   C     0.49968   0.16668   0.66382   0.00000  Uiso   1.00
C876   C     0.50031   0.16665   0.83618   0.00000  Uiso   1.00
C877   C     0.53774   0.17458   0.90748   0.00000  Uiso   1.00
C878   C     0.46222   0.15865   0.59255   0.00000  Uiso   1.00
C879   C     0.50051   0.16609   0.88383   0.00000  Uiso   1.00
C880   C     0.49945   0.16720   0.61617   0.00000  Uiso   1.00
C881   C     0.46392   0.15448   0.90496   0.00000  Uiso   1.00
C882   C     0.53606   0.17867   0.59501   0.00000  Uiso   1.00
C883   C     0.46261   0.15806   0.95158   0.00000  Uiso   1.00
C884   C     0.53736   0.17492   0.54841   0.00000  Uiso   1.00
C885   C     0.50023   0.16603   0.97652   0.00000  Uiso   1.00
C886   C     0.49974   0.16693   0.52348   0.00000  Uiso   1.00
C887   C     0.53836   0.17276   0.95442   0.00000  Uiso   1.00
C888   C     0.46161   0.16024   0.54559   0.00000  Uiso   1.00
C889   C     0.42463   0.15462   0.97358   0.00000  Uiso   1.00
C890   C     0.57535   0.17817   0.52643   0.00000  Uiso   1.00
N891   N     0.50000   0.28573   0.75000   0.00000  Uiso   1.00
N892   N     0.50000   0.04760   0.75000   0.00000  Uiso   1.00
O893   O     0.43892   0.20487   0.74999   0.00000  Uiso   1.00
O894   O     0.56108   0.12846   0.75000   0.00000  Uiso   1.00
O895   O     0.56108   0.20487   0.75000   0.00000  Uiso   1.00
O896   O     0.43892   0.12846   0.74999   0.00000  Uiso   1.00
O897   O     0.49999   0.20489   0.68392   0.00000  Uiso   1.00
O898   O     0.50001   0.12844   0.81607   0.00000  Uiso   1.00
O899   O     0.50001   0.20489   0.81607   0.00000  Uiso   1.00
O900   O     0.49999   0.12844   0.68392   0.00000  Uiso   1.00
Zn901  Zn    0.50000   0.21771   0.75000   0.00000  Uiso   1.00
Zn902  Zn    0.50000   0.11563   0.75000   0.00000  Uiso   1.00
N903   N     0.57489   0.18401   0.88350   0.00000  Uiso   1.00
H904   H     0.58000   0.15752   0.86159   0.00000  Uiso   1.00
H905   H     0.57123   0.21320   0.86515   0.00000  Uiso   1.00
N906   N     0.42505   0.14947   0.61657   0.00000  Uiso   1.00
H907   H     0.42863   0.12038   0.63510   0.00000  Uiso   1.00
H908   H     0.42000   0.17610   0.63832   0.00000  Uiso   1.00
N909   N     0.42865   0.13743   0.87907   0.00000  Uiso   1.00
H910   H     0.43655   0.10798   0.86290   0.00000  Uiso   1.00
H911   H     0.42027   0.16092   0.85515   0.00000  Uiso   1.00
N912   N     0.57133   0.19581   0.62084   0.00000  Uiso   1.00
H913   H     0.57970   0.17243   0.64485   0.00000  Uiso   1.00
H914   H     0.56342   0.22533   0.63689   0.00000  Uiso   1.00
N915   N     0.38615   0.15272   0.94836   0.00000  Uiso   1.00
H916   H     0.36941   0.18101   0.95566   0.00000  Uiso   1.00
H917   H     0.36926   0.12378   0.95662   0.00000  Uiso   1.00
N918   N     0.61383   0.17990   0.55166   0.00000  Uiso   1.00
H919   H     0.63082   0.20877   0.54341   0.00000  Uiso   1.00
H920   H     0.63047   0.15154   0.54435   0.00000  Uiso   1.00
N921   N     0.38503   0.15335   0.54189   0.00000  Uiso   1.00
H922   H     0.36768   0.18060   0.53193   0.00000  Uiso   1.00
H923   H     0.36922   0.12354   0.53286   0.00000  Uiso   1.00
N924   N     0.61496   0.17921   0.95811   0.00000  Uiso   1.00
H925   H     0.63091   0.20892   0.96714   0.00000  Uiso   1.00
H926   H     0.63217   0.15185   0.96807   0.00000  Uiso   1.00
O927   O     0.37168   0.09575   0.70988   0.00000  Uiso   1.00
H928   H     0.38064   0.07584   0.73446   0.00000  Uiso   1.00
O929   O     0.62832   0.23756   0.79014   0.00000  Uiso   1.00
H930   H     0.61938   0.25751   0.76557   0.00000  Uiso   1.00
O931   O     0.62367   0.10045   0.69980   0.00000  Uiso   1.00
H932   H     0.59867   0.11295   0.68556   0.00000  Uiso   1.00
O933   O     0.37633   0.23288   0.80020   0.00000  Uiso   1.00
H934   H     0.40133   0.22039   0.81443   0.00000  Uiso   1.00
N935   N     0.54165   0.04723   0.81955   0.00000  Uiso   1.00
H936   H     0.55957   0.07391   0.80788   0.00000  Uiso   1.00
H937   H     0.51986   0.05799   0.84194   0.00000  Uiso   1.00
N938   N     0.45834   0.28610   0.68045   0.00000  Uiso   1.00
H939   H     0.44043   0.25942   0.69212   0.00000  Uiso   1.00
H940   H     0.48013   0.27534   0.65806   0.00000  Uiso   1.00
N941   N     0.45919   0.04394   0.68025   0.00000  Uiso   1.00
H942   H     0.48154   0.05482   0.65797   0.00000  Uiso   1.00
H943   H     0.44338   0.07094   0.69230   0.00000  Uiso   1.00
N944   N     0.54081   0.28939   0.81975   0.00000  Uiso   1.00
H945   H     0.55662   0.26239   0.80769   0.00000  Uiso   1.00
H946   H     0.51846   0.27852   0.84203   0.00000  Uiso   1.00
C947   C     0.75348   0.16602   0.75130   0.00000  Uiso   1.00
C948   C     0.91318   0.16731   0.74870   0.00000  Uiso   1.00
C949   C     0.75743   0.15558   0.52030   0.00000  Uiso   1.00
C950   C     0.90922   0.17721   0.97970   0.00000  Uiso   1.00
C951   C     0.68637   0.13068   0.73038   0.00000  Uiso   1.00
C952   C     0.98029   0.20265   0.76963   0.00000  Uiso   1.00
C953   C     0.97745   0.13334   0.72530   0.00000  Uiso   1.00
C954   C     0.68922   0.19999   0.77471   0.00000  Uiso   1.00
C955   C     0.95744   0.16862   0.74646   0.00000  Uiso   1.00
C956   C     0.70923   0.16471   0.75354   0.00000  Uiso   1.00
C957   C     0.85376   0.02452   0.78310   0.00000  Uiso   1.00
C958   C     0.81290   0.30882   0.71690   0.00000  Uiso   1.00
C959   C     0.81309   0.02282   0.71685   0.00000  Uiso   1.00
C960   C     0.85358   0.31052   0.78315   0.00000  Uiso   1.00
C961   C     0.83302   0.16668   0.66382   0.00000  Uiso   1.00
C962   C     0.83364   0.16665   0.83618   0.00000  Uiso   1.00
C963   C     0.87108   0.17458   0.90748   0.00000  Uiso   1.00
C964   C     0.79555   0.15865   0.59255   0.00000  Uiso   1.00
C965   C     0.83385   0.16609   0.88383   0.00000  Uiso   1.00
C966   C     0.83278   0.16720   0.61617   0.00000  Uiso   1.00
C967   C     0.79725   0.15448   0.90496   0.00000  Uiso   1.00
C968   C     0.86939   0.17867   0.59501   0.00000  Uiso   1.00
C969   C     0.79595   0.15806   0.95158   0.00000  Uiso   1.00
C970   C     0.87070   0.17492   0.54841   0.00000  Uiso   1.00
C971   C     0.83356   0.16603   0.97652   0.00000  Uiso   1.00
C972   C     0.83307   0.16693   0.52348   0.00000  Uiso   1.00
C973   C     0.87169   0.17276   0.95442   0.00000  Uiso   1.00
C974   C     0.79495   0.16024   0.54559   0.00000  Uiso   1.00
C975   C     0.75796   0.15462   0.97358   0.00000  Uiso   1.00
C976   C     0.90869   0.17817   0.52643   0.00000  Uiso   1.00
N977   N     0.83333   0.28573   0.75000   0.00000  Uiso   1.00
N978   N     0.83333   0.04760   0.75000   0.00000  Uiso   1.00
O979   O     0.77226   0.20487   0.74999   0.00000  Uiso   1.00
O980   O     0.89441   0.12846   0.75000   0.00000  Uiso   1.00
O981   O     0.89441   0.20487   0.75000   0.00000  Uiso   1.00
O982   O     0.77226   0.12846   0.74999   0.00000  Uiso   1.00
O983   O     0.83333   0.20489   0.68392   0.00000  Uiso   1.00
O984   O     0.83334   0.12844   0.81607   0.00000  Uiso   1.00
O985   O     0.83334   0.20489   0.81607   0.00000  Uiso   1.00
O986   O     0.83333   0.12844   0.68392   0.00000  Uiso   1.00
Zn987  Zn    0.83333   0.21771   0.75000   0.00000  Uiso   1.00
Zn988  Zn    0.83333   0.11563   0.75000   0.00000  Uiso   1.00
N989   N     0.90822   0.18401   0.88350   0.00000  Uiso   1.00
H990   H     0.91333   0.15752   0.86159   0.00000  Uiso   1.00
H991   H     0.90456   0.21320   0.86515   0.00000  Uiso   1.00
N992   N     0.75838   0.14947   0.61657   0.00000  Uiso   1.00
H993   H     0.76197   0.12038   0.63510   0.00000  Uiso   1.00
H994   H     0.75333   0.17610   0.63832   0.00000  Uiso   1.00
N995   N     0.76199   0.13743   0.87907   0.00000  Uiso   1.00
H996   H     0.76989   0.10798   0.86290   0.00000  Uiso   1.00
H997   H     0.75360   0.16092   0.85515   0.00000  Uiso   1.00
N998   N     0.90466   0.19581   0.62084   0.00000  Uiso   1.00
H999   H     0.91304   0.17243   0.64485   0.00000  Uiso   1.00
H1000  H     0.89675   0.22533   0.63689   0.00000  Uiso   1.00
N1001  N     0.71948   0.15272   0.94836   0.00000  Uiso   1.00
H1002  H     0.70275   0.18101   0.95566   0.00000  Uiso   1.00
H1003  H     0.70260   0.12378   0.95662   0.00000  Uiso   1.00
N1004  N     0.94716   0.17990   0.55166   0.00000  Uiso   1.00
H1005  H     0.96415   0.20877   0.54341   0.00000  Uiso   1.00
H1006  H     0.96380   0.15154   0.54435   0.00000  Uiso   1.00
N1007  N     0.71836   0.15335   0.54189   0.00000  Uiso   1.00
H1008  H     0.70101   0.18060   0.53193   0.00000  Uiso   1.00
H1009  H     0.70256   0.12354   0.53286   0.00000  Uiso   1.00
N1010  N     0.94829   0.17921   0.95811   0.00000  Uiso   1.00
H1011  H     0.96424   0.20892   0.96714   0.00000  Uiso   1.00
H1012  H     0.96550   0.15185   0.96807   0.00000  Uiso   1.00
O1013  O     0.70501   0.09575   0.70988   0.00000  Uiso   1.00
H1014  H     0.71398   0.07584   0.73446   0.00000  Uiso   1.00
O1015  O     0.96165   0.23756   0.79014   0.00000  Uiso   1.00
H1016  H     0.95272   0.25751   0.76557   0.00000  Uiso   1.00
O1017  O     0.95700   0.10045   0.69980   0.00000  Uiso   1.00
H1018  H     0.93200   0.11295   0.68556   0.00000  Uiso   1.00
O1019  O     0.70966   0.23288   0.80020   0.00000  Uiso   1.00
H1020  H     0.73467   0.22039   0.81443   0.00000  Uiso   1.00
N1021  N     0.87499   0.04723   0.81955   0.00000  Uiso   1.00
H1022  H     0.89290   0.07391   0.80788   0.00000  Uiso   1.00
H1023  H     0.85320   0.05799   0.84194   0.00000  Uiso   1.00
N1024  N     0.79168   0.28610   0.68045   0.00000  Uiso   1.00
H1025  H     0.77376   0.25942   0.69212   0.00000  Uiso   1.00
H1026  H     0.81347   0.27534   0.65806   0.00000  Uiso   1.00
N1027  N     0.79253   0.04394   0.68025   0.00000  Uiso   1.00
H1028  H     0.81487   0.05482   0.65797   0.00000  Uiso   1.00
H1029  H     0.77671   0.07094   0.69230   0.00000  Uiso   1.00
N1030  N     0.87414   0.28939   0.81975   0.00000  Uiso   1.00
H1031  H     0.88996   0.26239   0.80769   0.00000  Uiso   1.00
H1032  H     0.85180   0.27852   0.84203   0.00000  Uiso   1.00
C1033  C     0.08682   0.49935   0.75130   0.00000  Uiso   1.00
C1034  C     0.24652   0.50065   0.74870   0.00000  Uiso   1.00
C1035  C     0.09076   0.48891   0.52030   0.00000  Uiso   1.00
C1036  C     0.24255   0.51054   0.97970   0.00000  Uiso   1.00
C1037  C     0.01970   0.46401   0.73038   0.00000  Uiso   1.00
C1038  C     0.31363   0.53598   0.76963   0.00000  Uiso   1.00
C1039  C     0.31078   0.46667   0.72530   0.00000  Uiso   1.00
C1040  C     0.02255   0.53332   0.77471   0.00000  Uiso   1.00
C1041  C     0.29077   0.50195   0.74646   0.00000  Uiso   1.00
C1042  C     0.04256   0.49804   0.75354   0.00000  Uiso   1.00
C1043  C     0.18709   0.35785   0.78310   0.00000  Uiso   1.00
C1044  C     0.14624   0.64215   0.71690   0.00000  Uiso   1.00
C1045  C     0.14642   0.35615   0.71685   0.00000  Uiso   1.00
C1046  C     0.18691   0.64385   0.78315   0.00000  Uiso   1.00
C1047  C     0.16635   0.50001   0.66382   0.00000  Uiso   1.00
C1048  C     0.16697   0.49998   0.83618   0.00000  Uiso   1.00
C1049  C     0.20441   0.50791   0.90748   0.00000  Uiso   1.00
C1050  C     0.12888   0.49198   0.59255   0.00000  Uiso   1.00
C1051  C     0.16718   0.49943   0.88383   0.00000  Uiso   1.00
C1052  C     0.16611   0.50054   0.61617   0.00000  Uiso   1.00
C1053  C     0.13059   0.48782   0.90496   0.00000  Uiso   1.00
C1054  C     0.20272   0.51201   0.59501   0.00000  Uiso   1.00
C1055  C     0.12928   0.49139   0.95158   0.00000  Uiso   1.00
C1056  C     0.20403   0.50825   0.54841   0.00000  Uiso   1.00
C1057  C     0.16690   0.49936   0.97652   0.00000  Uiso   1.00
C1058  C     0.16641   0.50027   0.52348   0.00000  Uiso   1.00
C1059  C     0.20502   0.50609   0.95442   0.00000  Uiso   1.00
C1060  C     0.12828   0.49357   0.54559   0.00000  Uiso   1.00
C1061  C     0.09130   0.48796   0.97358   0.00000  Uiso   1.00
C1062  C     0.24202   0.51150   0.52643   0.00000  Uiso   1.00
N1063  N     0.16667   0.61907   0.75000   0.00000  Uiso   1.00
N1064  N     0.16667   0.38093   0.75000   0.00000  Uiso   1.00
O1065  O     0.10559   0.53821   0.74999   0.00000  Uiso   1.00
O1066  O     0.22774   0.46179   0.75000   0.00000  Uiso   1.00
O1067  O     0.22774   0.53821   0.75000   0.00000  Uiso   1.00
O1068  O     0.10559   0.46179   0.74999   0.00000  Uiso   1.00
O1069  O     0.16666   0.53823   0.68392   0.00000  Uiso   1.00
O1070  O     0.16667   0.46177   0.81607   0.00000  Uiso   1.00
O1071  O     0.16667   0.53823   0.81607   0.00000  Uiso   1.00
O1072  O     0.16666   0.46177   0.68392   0.00000  Uiso   1.00
Zn1073 Zn    0.16667   0.55104   0.75000   0.00000  Uiso   1.00
Zn1074 Zn    0.16667   0.44896   0.75000   0.00000  Uiso   1.00
N1075  N     0.24155   0.51734   0.88350   0.00000  Uiso   1.00
H1076  H     0.24666   0.49086   0.86159   0.00000  Uiso   1.00
H1077  H     0.23790   0.54653   0.86515   0.00000  Uiso   1.00
N1078  N     0.09172   0.48280   0.61657   0.00000  Uiso   1.00
H1079  H     0.09530   0.45371   0.63510   0.00000  Uiso   1.00
H1080  H     0.08667   0.50943   0.63832   0.00000  Uiso   1.00
N1081  N     0.09532   0.47077   0.87907   0.00000  Uiso   1.00
H1082  H     0.10322   0.44132   0.86290   0.00000  Uiso   1.00
H1083  H     0.08694   0.49425   0.85515   0.00000  Uiso   1.00
N1084  N     0.23799   0.52915   0.62084   0.00000  Uiso   1.00
H1085  H     0.24637   0.50576   0.64485   0.00000  Uiso   1.00
H1086  H     0.23008   0.55866   0.63689   0.00000  Uiso   1.00
N1087  N     0.05282   0.48605   0.94836   0.00000  Uiso   1.00
H1088  H     0.03608   0.51434   0.95566   0.00000  Uiso   1.00
H1089  H     0.03593   0.45711   0.95662   0.00000  Uiso   1.00
N1090  N     0.28050   0.51323   0.55166   0.00000  Uiso   1.00
H1091  H     0.29749   0.54211   0.54341   0.00000  Uiso   1.00
H1092  H     0.29713   0.48487   0.54435   0.00000  Uiso   1.00
N1093  N     0.05169   0.48668   0.54189   0.00000  Uiso   1.00
H1094  H     0.03435   0.51393   0.53193   0.00000  Uiso   1.00
H1095  H     0.03589   0.45688   0.53286   0.00000  Uiso   1.00
N1096  N     0.28163   0.51254   0.95811   0.00000  Uiso   1.00
H1097  H     0.29758   0.54225   0.96714   0.00000  Uiso   1.00
H1098  H     0.29884   0.48518   0.96807   0.00000  Uiso   1.00
O1099  O     0.03834   0.42909   0.70988   0.00000  Uiso   1.00
H1100  H     0.04731   0.40917   0.73446   0.00000  Uiso   1.00
O1101  O     0.29498   0.57090   0.79014   0.00000  Uiso   1.00
H1102  H     0.28605   0.59084   0.76557   0.00000  Uiso   1.00
O1103  O     0.29034   0.43379   0.69980   0.00000  Uiso   1.00
H1104  H     0.26533   0.44629   0.68556   0.00000  Uiso   1.00
O1105  O     0.04299   0.56621   0.80020   0.00000  Uiso   1.00
H1106  H     0.06800   0.55372   0.81443   0.00000  Uiso   1.00
N1107  N     0.20832   0.38057   0.81955   0.00000  Uiso   1.00
H1108  H     0.22624   0.40724   0.80788   0.00000  Uiso   1.00
H1109  H     0.18653   0.39133   0.84194   0.00000  Uiso   1.00
N1110  N     0.12501   0.61943   0.68045   0.00000  Uiso   1.00
H1111  H     0.10710   0.59276   0.69212   0.00000  Uiso   1.00
H1112  H     0.14680   0.60867   0.65806   0.00000  Uiso   1.00
N1113  N     0.12586   0.37728   0.68025   0.00000  Uiso   1.00
H1114  H     0.14821   0.38815   0.65797   0.00000  Uiso   1.00
H1115  H     0.11004   0.40427   0.69230   0.00000  Uiso   1.00
N1116  N     0.20748   0.62272   0.81975   0.00000  Uiso   1.00
H1117  H     0.22329   0.59573   0.80769   0.00000  Uiso   1.00
H1118  H     0.18513   0.61185   0.84203   0.00000  Uiso   1.00
C1119  C     0.42015   0.49935   0.75130   0.00000  Uiso   1.00
C1120  C     0.57985   0.50065   0.74870   0.00000  Uiso   1.00
C1121  C     0.42410   0.48891   0.52030   0.00000  Uiso   1.00
C1122  C     0.57589   0.51054   0.97970   0.00000  Uiso   1.00
C1123  C     0.35304   0.46401   0.73038   0.00000  Uiso   1.00
C1124  C     0.64696   0.53598   0.76963   0.00000  Uiso   1.00
C1125  C     0.64411   0.46667   0.72530   0.00000  Uiso   1.00
C1126  C     0.35589   0.53332   0.77471   0.00000  Uiso   1.00
C1127  C     0.62411   0.50195   0.74646   0.00000  Uiso   1.00
C1128  C     0.37589   0.49804   0.75354   0.00000  Uiso   1.00
C1129  C     0.52043   0.35785   0.78310   0.00000  Uiso   1.00
C1130  C     0.47957   0.64215   0.71690   0.00000  Uiso   1.00
C1131  C     0.47975   0.35615   0.71685   0.00000  Uiso   1.00
C1132  C     0.52025   0.64385   0.78315   0.00000  Uiso   1.00
C1133  C     0.49968   0.50001   0.66382   0.00000  Uiso   1.00
C1134  C     0.50031   0.49998   0.83618   0.00000  Uiso   1.00
C1135  C     0.53774   0.50791   0.90748   0.00000  Uiso   1.00
C1136  C     0.46222   0.49198   0.59255   0.00000  Uiso   1.00
C1137  C     0.50051   0.49943   0.88383   0.00000  Uiso   1.00
C1138  C     0.49945   0.50054   0.61617   0.00000  Uiso   1.00
C1139  C     0.46392   0.48782   0.90496   0.00000  Uiso   1.00
C1140  C     0.53606   0.51201   0.59501   0.00000  Uiso   1.00
C1141  C     0.46261   0.49139   0.95158   0.00000  Uiso   1.00
C1142  C     0.53736   0.50825   0.54841   0.00000  Uiso   1.00
C1143  C     0.50023   0.49936   0.97652   0.00000  Uiso   1.00
C1144  C     0.49974   0.50027   0.52348   0.00000  Uiso   1.00
C1145  C     0.53836   0.50609   0.95442   0.00000  Uiso   1.00
C1146  C     0.46161   0.49357   0.54559   0.00000  Uiso   1.00
C1147  C     0.42463   0.48796   0.97358   0.00000  Uiso   1.00
C1148  C     0.57535   0.51150   0.52643   0.00000  Uiso   1.00
N1149  N     0.50000   0.61907   0.75000   0.00000  Uiso   1.00
N1150  N     0.50000   0.38093   0.75000   0.00000  Uiso   1.00
O1151  O     0.43892   0.53821   0.74999   0.00000  Uiso   1.00
O1152  O     0.56108   0.46179   0.75000   0.00000  Uiso   1.00
O1153  O     0.56108   0.53821   0.75000   0.00000  Uiso   1.00
O1154  O     0.43892   0.46179   0.74999   0.00000  Uiso   1.00
O1155  O     0.49999   0.53823   0.68392   0.00000  Uiso   1.00
O1156  O     0.50001   0.46177   0.81607   0.00000  Uiso   1.00
O1157  O     0.50001   0.53823   0.81607   0.00000  Uiso   1.00
O1158  O     0.49999   0.46177   0.68392   0.00000  Uiso   1.00
Zn1159 Zn    0.50000   0.55104   0.75000   0.00000  Uiso   1.00
Zn1160 Zn    0.50000   0.44896   0.75000   0.00000  Uiso   1.00
N1161  N     0.57489   0.51734   0.88350   0.00000  Uiso   1.00
H1162  H     0.58000   0.49086   0.86159   0.00000  Uiso   1.00
H1163  H     0.57123   0.54653   0.86515   0.00000  Uiso   1.00
N1164  N     0.42505   0.48280   0.61657   0.00000  Uiso   1.00
H1165  H     0.42863   0.45371   0.63510   0.00000  Uiso   1.00
H1166  H     0.42000   0.50943   0.63832   0.00000  Uiso   1.00
N1167  N     0.42865   0.47077   0.87907   0.00000  Uiso   1.00
H1168  H     0.43655   0.44132   0.86290   0.00000  Uiso   1.00
H1169  H     0.42027   0.49425   0.85515   0.00000  Uiso   1.00
N1170  N     0.57133   0.52915   0.62084   0.00000  Uiso   1.00
H1171  H     0.57970   0.50576   0.64485   0.00000  Uiso   1.00
H1172  H     0.56342   0.55866   0.63689   0.00000  Uiso   1.00
N1173  N     0.38615   0.48605   0.94836   0.00000  Uiso   1.00
H1174  H     0.36941   0.51434   0.95566   0.00000  Uiso   1.00
H1175  H     0.36926   0.45711   0.95662   0.00000  Uiso   1.00
N1176  N     0.61383   0.51323   0.55166   0.00000  Uiso   1.00
H1177  H     0.63082   0.54211   0.54341   0.00000  Uiso   1.00
H1178  H     0.63047   0.48487   0.54435   0.00000  Uiso   1.00
N1179  N     0.38503   0.48668   0.54189   0.00000  Uiso   1.00
H1180  H     0.36768   0.51393   0.53193   0.00000  Uiso   1.00
H1181  H     0.36922   0.45688   0.53286   0.00000  Uiso   1.00
N1182  N     0.61496   0.51254   0.95811   0.00000  Uiso   1.00
H1183  H     0.63091   0.54225   0.96714   0.00000  Uiso   1.00
H1184  H     0.63217   0.48518   0.96807   0.00000  Uiso   1.00
O1185  O     0.37168   0.42909   0.70988   0.00000  Uiso   1.00
H1186  H     0.38064   0.40917   0.73446   0.00000  Uiso   1.00
O1187  O     0.62832   0.57090   0.79014   0.00000  Uiso   1.00
H1188  H     0.61938   0.59084   0.76557   0.00000  Uiso   1.00
O1189  O     0.62367   0.43379   0.69980   0.00000  Uiso   1.00
H1190  H     0.59867   0.44629   0.68556   0.00000  Uiso   1.00
O1191  O     0.37633   0.56621   0.80020   0.00000  Uiso   1.00
H1192  H     0.40133   0.55372   0.81443   0.00000  Uiso   1.00
N1193  N     0.54165   0.38057   0.81955   0.00000  Uiso   1.00
H1194  H     0.55957   0.40724   0.80788   0.00000  Uiso   1.00
H1195  H     0.51986   0.39133   0.84194   0.00000  Uiso   1.00
N1196  N     0.45834   0.61943   0.68045   0.00000  Uiso   1.00
H1197  H     0.44043   0.59276   0.69212   0.00000  Uiso   1.00
H1198  H     0.48013   0.60867   0.65806   0.00000  Uiso   1.00
N1199  N     0.45919   0.37728   0.68025   0.00000  Uiso   1.00
H1200  H     0.48154   0.38815   0.65797   0.00000  Uiso   1.00
H1201  H     0.44338   0.40427   0.69230   0.00000  Uiso   1.00
N1202  N     0.54081   0.62272   0.81975   0.00000  Uiso   1.00
H1203  H     0.55662   0.59573   0.80769   0.00000  Uiso   1.00
H1204  H     0.51846   0.61185   0.84203   0.00000  Uiso   1.00
C1205  C     0.75348   0.49935   0.75130   0.00000  Uiso   1.00
C1206  C     0.91318   0.50065   0.74870   0.00000  Uiso   1.00
C1207  C     0.75743   0.48891   0.52030   0.00000  Uiso   1.00
C1208  C     0.90922   0.51054   0.97970   0.00000  Uiso   1.00
C1209  C     0.68637   0.46401   0.73038   0.00000  Uiso   1.00
C1210  C     0.98029   0.53598   0.76963   0.00000  Uiso   1.00
C1211  C     0.97745   0.46667   0.72530   0.00000  Uiso   1.00
C1212  C     0.68922   0.53332   0.77471   0.00000  Uiso   1.00
C1213  C     0.95744   0.50195   0.74646   0.00000  Uiso   1.00
C1214  C     0.70923   0.49804   0.75354   0.00000  Uiso   1.00
C1215  C     0.85376   0.35785   0.78310   0.00000  Uiso   1.00
C1216  C     0.81290   0.64215   0.71690   0.00000  Uiso   1.00
C1217  C     0.81309   0.35615   0.71685   0.00000  Uiso   1.00
C1218  C     0.85358   0.64385   0.78315   0.00000  Uiso   1.00
C1219  C     0.83302   0.50001   0.66382   0.00000  Uiso   1.00
C1220  C     0.83364   0.49998   0.83618   0.00000  Uiso   1.00
C1221  C     0.87108   0.50791   0.90748   0.00000  Uiso   1.00
C1222  C     0.79555   0.49198   0.59255   0.00000  Uiso   1.00
C1223  C     0.83385   0.49943   0.88383   0.00000  Uiso   1.00
C1224  C     0.83278   0.50054   0.61617   0.00000  Uiso   1.00
C1225  C     0.79725   0.48782   0.90496   0.00000  Uiso   1.00
C1226  C     0.86939   0.51201   0.59501   0.00000  Uiso   1.00
C1227  C     0.79595   0.49139   0.95158   0.00000  Uiso   1.00
C1228  C     0.87070   0.50825   0.54841   0.00000  Uiso   1.00
C1229  C     0.83356   0.49936   0.97652   0.00000  Uiso   1.00
C1230  C     0.83307   0.50027   0.52348   0.00000  Uiso   1.00
C1231  C     0.87169   0.50609   0.95442   0.00000  Uiso   1.00
C1232  C     0.79495   0.49357   0.54559   0.00000  Uiso   1.00
C1233  C     0.75796   0.48796   0.97358   0.00000  Uiso   1.00
C1234  C     0.90869   0.51150   0.52643   0.00000  Uiso   1.00
N1235  N     0.83333   0.61907   0.75000   0.00000  Uiso   1.00
N1236  N     0.83333   0.38093   0.75000   0.00000  Uiso   1.00
O1237  O     0.77226   0.53821   0.74999   0.00000  Uiso   1.00
O1238  O     0.89441   0.46179   0.75000   0.00000  Uiso   1.00
O1239  O     0.89441   0.53821   0.75000   0.00000  Uiso   1.00
O1240  O     0.77226   0.46179   0.74999   0.00000  Uiso   1.00
O1241  O     0.83333   0.53823   0.68392   0.00000  Uiso   1.00
O1242  O     0.83334   0.46177   0.81607   0.00000  Uiso   1.00
O1243  O     0.83334   0.53823   0.81607   0.00000  Uiso   1.00
O1244  O     0.83333   0.46177   0.68392   0.00000  Uiso   1.00
Zn1245 Zn    0.83333   0.55104   0.75000   0.00000  Uiso   1.00
Zn1246 Zn    0.83333   0.44896   0.75000   0.00000  Uiso   1.00
N1247  N     0.90822   0.51734   0.88350   0.00000  Uiso   1.00
H1248  H     0.91333   0.49086   0.86159   0.00000  Uiso   1.00
H1249  H     0.90456   0.54653   0.86515   0.00000  Uiso   1.00
N1250  N     0.75838   0.48280   0.61657   0.00000  Uiso   1.00
H1251  H     0.76197   0.45371   0.63510   0.00000  Uiso   1.00
H1252  H     0.75333   0.50943   0.63832   0.00000  Uiso   1.00
N1253  N     0.76199   0.47077   0.87907   0.00000  Uiso   1.00
H1254  H     0.76989   0.44132   0.86290   0.00000  Uiso   1.00
H1255  H     0.75360   0.49425   0.85515   0.00000  Uiso   1.00
N1256  N     0.90466   0.52915   0.62084   0.00000  Uiso   1.00
H1257  H     0.91304   0.50576   0.64485   0.00000  Uiso   1.00
H1258  H     0.89675   0.55866   0.63689   0.00000  Uiso   1.00
N1259  N     0.71948   0.48605   0.94836   0.00000  Uiso   1.00
H1260  H     0.70275   0.51434   0.95566   0.00000  Uiso   1.00
H1261  H     0.70260   0.45711   0.95662   0.00000  Uiso   1.00
N1262  N     0.94716   0.51323   0.55166   0.00000  Uiso   1.00
H1263  H     0.96415   0.54211   0.54341   0.00000  Uiso   1.00
H1264  H     0.96380   0.48487   0.54435   0.00000  Uiso   1.00
N1265  N     0.71836   0.48668   0.54189   0.00000  Uiso   1.00
H1266  H     0.70101   0.51393   0.53193   0.00000  Uiso   1.00
H1267  H     0.70256   0.45688   0.53286   0.00000  Uiso   1.00
N1268  N     0.94829   0.51254   0.95811   0.00000  Uiso   1.00
H1269  H     0.96424   0.54225   0.96714   0.00000  Uiso   1.00
H1270  H     0.96550   0.48518   0.96807   0.00000  Uiso   1.00
O1271  O     0.70501   0.42909   0.70988   0.00000  Uiso   1.00
H1272  H     0.71398   0.40917   0.73446   0.00000  Uiso   1.00
O1273  O     0.96165   0.57090   0.79014   0.00000  Uiso   1.00
H1274  H     0.95272   0.59084   0.76557   0.00000  Uiso   1.00
O1275  O     0.95700   0.43379   0.69980   0.00000  Uiso   1.00
H1276  H     0.93200   0.44629   0.68556   0.00000  Uiso   1.00
O1277  O     0.70966   0.56621   0.80020   0.00000  Uiso   1.00
H1278  H     0.73467   0.55372   0.81443   0.00000  Uiso   1.00
N1279  N     0.87499   0.38057   0.81955   0.00000  Uiso   1.00
H1280  H     0.89290   0.40724   0.80788   0.00000  Uiso   1.00
H1281  H     0.85320   0.39133   0.84194   0.00000  Uiso   1.00
N1282  N     0.79168   0.61943   0.68045   0.00000  Uiso   1.00
H1283  H     0.77376   0.59276   0.69212   0.00000  Uiso   1.00
H1284  H     0.81347   0.60867   0.65806   0.00000  Uiso   1.00
N1285  N     0.79253   0.37728   0.68025   0.00000  Uiso   1.00
H1286  H     0.81487   0.38815   0.65797   0.00000  Uiso   1.00
H1287  H     0.77671   0.40427   0.69230   0.00000  Uiso   1.00
N1288  N     0.87414   0.62272   0.81975   0.00000  Uiso   1.00
H1289  H     0.88996   0.59573   0.80769   0.00000  Uiso   1.00
H1290  H     0.85180   0.61185   0.84203   0.00000  Uiso   1.00
C1291  C     0.08682   0.83269   0.75130   0.00000  Uiso   1.00
C1292  C     0.24652   0.83398   0.74870   0.00000  Uiso   1.00
C1293  C     0.09076   0.82225   0.52030   0.00000  Uiso   1.00
C1294  C     0.24255   0.84388   0.97970   0.00000  Uiso   1.00
C1295  C     0.01970   0.79734   0.73038   0.00000  Uiso   1.00
C1296  C     0.31363   0.86932   0.76963   0.00000  Uiso   1.00
C1297  C     0.31078   0.80001   0.72530   0.00000  Uiso   1.00
C1298  C     0.02255   0.86666   0.77471   0.00000  Uiso   1.00
C1299  C     0.29077   0.83529   0.74646   0.00000  Uiso   1.00
C1300  C     0.04256   0.83138   0.75354   0.00000  Uiso   1.00
C1301  C     0.18709   0.69118   0.78310   0.00000  Uiso   1.00
C1302  C     0.14624   0.97548   0.71690   0.00000  Uiso   1.00
C1303  C     0.14642   0.68948   0.71685   0.00000  Uiso   1.00
C1304  C     0.18691   0.97718   0.78315   0.00000  Uiso   1.00
C1305  C     0.16635   0.83335   0.66382   0.00000  Uiso   1.00
C1306  C     0.16697   0.83332   0.83618   0.00000  Uiso   1.00
C1307  C     0.20441   0.84124   0.90748   0.00000  Uiso   1.00
C1308  C     0.12888   0.82532   0.59255   0.00000  Uiso   1.00
C1309  C     0.16718   0.83276   0.88383   0.00000  Uiso   1.00
C1310  C     0.16611   0.83387   0.61617   0.00000  Uiso   1.00
C1311  C     0.13059   0.82115   0.90496   0.00000  Uiso   1.00
C1312  C     0.20272   0.84534   0.59501   0.00000  Uiso   1.00
C1313  C     0.12928   0.82472   0.95158   0.00000  Uiso   1.00
C1314  C     0.20403   0.84158   0.54841   0.00000  Uiso   1.00
C1315  C     0.16690   0.83269   0.97652   0.00000  Uiso   1.00
C1316  C     0.16641   0.83360   0.52348   0.00000  Uiso   1.00
C1317  C     0.20502   0.83942   0.95442   0.00000  Uiso   1.00
C1318  C     0.12828   0.82690   0.54559   0.00000  Uiso   1.00
C1319  C     0.09130   0.82129   0.97358   0.00000  Uiso   1.00
C1320  C     0.24202   0.84484   0.52643   0.00000  Uiso   1.00
N1321  N     0.16667   0.95240   0.75000   0.00000  Uiso   1.00
N1322  N     0.16667   0.71427   0.75000   0.00000  Uiso   1.00
O1323  O     0.10559   0.87154   0.74999   0.00000  Uiso   1.00
O1324  O     0.22774   0.79513   0.75000   0.00000  Uiso   1.00
O1325  O     0.22774   0.87154   0.75000   0.00000  Uiso   1.00
O1326  O     0.10559   0.79513   0.74999   0.00000  Uiso   1.00
O1327  O     0.16666   0.87156   0.68392   0.00000  Uiso   1.00
O1328  O     0.16667   0.79511   0.81607   0.00000  Uiso   1.00
O1329  O     0.16667   0.87156   0.81607   0.00000  Uiso   1.00
O1330  O     0.16666   0.79511   0.68392   0.00000  Uiso   1.00
Zn1331 Zn    0.16667   0.88437   0.75000   0.00000  Uiso   1.00
Zn1332 Zn    0.16667   0.78229   0.75000   0.00000  Uiso   1.00
N1333  N     0.24155   0.85068   0.88350   0.00000  Uiso   1.00
H1334  H     0.24666   0.82419   0.86159   0.00000  Uiso   1.00
H1335  H     0.23790   0.87986   0.86515   0.00000  Uiso   1.00
N1336  N     0.09172   0.81613   0.61657   0.00000  Uiso   1.00
H1337  H     0.09530   0.78705   0.63510   0.00000  Uiso   1.00
H1338  H     0.08667   0.84277   0.63832   0.00000  Uiso   1.00
N1339  N     0.09532   0.80410   0.87907   0.00000  Uiso   1.00
H1340  H     0.10322   0.77465   0.86290   0.00000  Uiso   1.00
H1341  H     0.08694   0.82758   0.85515   0.00000  Uiso   1.00
N1342  N     0.23799   0.86248   0.62084   0.00000  Uiso   1.00
H1343  H     0.24637   0.83909   0.64485   0.00000  Uiso   1.00
H1344  H     0.23008   0.89199   0.63689   0.00000  Uiso   1.00
N1345  N     0.05282   0.81938   0.94836   0.00000  Uiso   1.00
H1346  H     0.03608   0.84767   0.95566   0.00000  Uiso   1.00
H1347  H     0.03593   0.79045   0.95662   0.00000  Uiso   1.00
N1348  N     0.28050   0.84657   0.55166   0.00000  Uiso   1.00
H1349  H     0.29749   0.87544   0.54341   0.00000  Uiso   1.00
H1350  H     0.29713   0.81821   0.54435   0.00000  Uiso   1.00
N1351  N     0.05169   0.82001   0.54189   0.00000  Uiso   1.00
H1352  H     0.03435   0.84727   0.53193   0.00000  Uiso   1.00
H1353  H     0.03589   0.79021   0.53286   0.00000  Uiso   1.00
N1354  N     0.28163   0.84587   0.95811   0.00000  Uiso   1.00
H1355  H     0.29758   0.87559   0.96714   0.00000  Uiso   1.00
H1356  H     0.29884   0.81852   0.96807   0.00000  Uiso   1.00
O1357  O     0.03834   0.76242   0.70988   0.00000  Uiso   1.00
H1358  H     0.04731   0.74250   0.73446   0.00000  Uiso   1.00
O1359  O     0.29498   0.90423   0.79014   0.00000  Uiso   1.00
H1360  H     0.28605   0.92418   0.76557   0.00000  Uiso   1.00
O1361  O     0.29034   0.76712   0.69980   0.00000  Uiso   1.00
H1362  H     0.26533   0.77962   0.68556   0.00000  Uiso   1.00
O1363  O     0.04299   0.89955   0.80020   0.00000  Uiso   1.00
H1364  H     0.06800   0.88705   0.81443   0.00000  Uiso   1.00
N1365  N     0.20832   0.71390   0.81955   0.00000  Uiso   1.00
H1366  H     0.22624   0.74058   0.80788   0.00000  Uiso   1.00
H1367  H     0.18653   0.72466   0.84194   0.00000  Uiso   1.00
N1368  N     0.12501   0.95277   0.68045   0.00000  Uiso   1.00
H1369  H     0.10710   0.92609   0.69212   0.00000  Uiso   1.00
H1370  H     0.14680   0.94201   0.65806   0.00000  Uiso   1.00
N1371  N     0.12586   0.71061   0.68025   0.00000  Uiso   1.00
H1372  H     0.14821   0.72149   0.65797   0.00000  Uiso   1.00
H1373  H     0.11004   0.73760   0.69230   0.00000  Uiso   1.00
N1374  N     0.20748   0.95606   0.81975   0.00000  Uiso   1.00
H1375  H     0.22329   0.92906   0.80769   0.00000  Uiso   1.00
H1376  H     0.18513   0.94518   0.84203   0.00000  Uiso   1.00
C1377  C     0.42015   0.83269   0.75130   0.00000  Uiso   1.00
C1378  C     0.57985   0.83398   0.74870   0.00000  Uiso   1.00
C1379  C     0.42410   0.82225   0.52030   0.00000  Uiso   1.00
C1380  C     0.57589   0.84388   0.97970   0.00000  Uiso   1.00
C1381  C     0.35304   0.79734   0.73038   0.00000  Uiso   1.00
C1382  C     0.64696   0.86932   0.76963   0.00000  Uiso   1.00
C1383  C     0.64411   0.80001   0.72530   0.00000  Uiso   1.00
C1384  C     0.35589   0.86666   0.77471   0.00000  Uiso   1.00
C1385  C     0.62411   0.83529   0.74646   0.00000  Uiso   1.00
C1386  C     0.37589   0.83138   0.75354   0.00000  Uiso   1.00
C1387  C     0.52043   0.69118   0.78310   0.00000  Uiso   1.00
C1388  C     0.47957   0.97548   0.71690   0.00000  Uiso   1.00
C1389  C     0.47975   0.68948   0.71685   0.00000  Uiso   1.00
C1390  C     0.52025   0.97718   0.78315   0.00000  Uiso   1.00
C1391  C     0.49968   0.83335   0.66382   0.00000  Uiso   1.00
C1392  C     0.50031   0.83332   0.83618   0.00000  Uiso   1.00
C1393  C     0.53774   0.84124   0.90748   0.00000  Uiso   1.00
C1394  C     0.46222   0.82532   0.59255   0.00000  Uiso   1.00
C1395  C     0.50051   0.83276   0.88383   0.00000  Uiso   1.00
C1396  C     0.49945   0.83387   0.61617   0.00000  Uiso   1.00
C1397  C     0.46392   0.82115   0.90496   0.00000  Uiso   1.00
C1398  C     0.53606   0.84534   0.59501   0.00000  Uiso   1.00
C1399  C     0.46261   0.82472   0.95158   0.00000  Uiso   1.00
C1400  C     0.53736   0.84158   0.54841   0.00000  Uiso   1.00
C1401  C     0.50023   0.83269   0.97652   0.00000  Uiso   1.00
C1402  C     0.49974   0.83360   0.52348   0.00000  Uiso   1.00
C1403  C     0.53836   0.83942   0.95442   0.00000  Uiso   1.00
C1404  C     0.46161   0.82690   0.54559   0.00000  Uiso   1.00
C1405  C     0.42463   0.82129   0.97358   0.00000  Uiso   1.00
C1406  C     0.57535   0.84484   0.52643   0.00000  Uiso   1.00
N1407  N     0.50000   0.95240   0.75000   0.00000  Uiso   1.00
N1408  N     0.50000   0.71427   0.75000   0.00000  Uiso   1.00
O1409  O     0.43892   0.87154   0.74999   0.00000  Uiso   1.00
O1410  O     0.56108   0.79513   0.75000   0.00000  Uiso   1.00
O1411  O     0.56108   0.87154   0.75000   0.00000  Uiso   1.00
O1412  O     0.43892   0.79513   0.74999   0.00000  Uiso   1.00
O1413  O     0.49999   0.87156   0.68392   0.00000  Uiso   1.00
O1414  O     0.50001   0.79511   0.81607   0.00000  Uiso   1.00
O1415  O     0.50001   0.87156   0.81607   0.00000  Uiso   1.00
O1416  O     0.49999   0.79511   0.68392   0.00000  Uiso   1.00
Zn1417 Zn    0.50000   0.88437   0.75000   0.00000  Uiso   1.00
Zn1418 Zn    0.50000   0.78229   0.75000   0.00000  Uiso   1.00
N1419  N     0.57489   0.85068   0.88350   0.00000  Uiso   1.00
H1420  H     0.58000   0.82419   0.86159   0.00000  Uiso   1.00
H1421  H     0.57123   0.87986   0.86515   0.00000  Uiso   1.00
N1422  N     0.42505   0.81613   0.61657   0.00000  Uiso   1.00
H1423  H     0.42863   0.78705   0.63510   0.00000  Uiso   1.00
H1424  H     0.42000   0.84277   0.63832   0.00000  Uiso   1.00
N1425  N     0.42865   0.80410   0.87907   0.00000  Uiso   1.00
H1426  H     0.43655   0.77465   0.86290   0.00000  Uiso   1.00
H1427  H     0.42027   0.82758   0.85515   0.00000  Uiso   1.00
N1428  N     0.57133   0.86248   0.62084   0.00000  Uiso   1.00
H1429  H     0.57970   0.83909   0.64485   0.00000  Uiso   1.00
H1430  H     0.56342   0.89199   0.63689   0.00000  Uiso   1.00
N1431  N     0.38615   0.81938   0.94836   0.00000  Uiso   1.00
H1432  H     0.36941   0.84767   0.95566   0.00000  Uiso   1.00
H1433  H     0.36926   0.79045   0.95662   0.00000  Uiso   1.00
N1434  N     0.61383   0.84657   0.55166   0.00000  Uiso   1.00
H1435  H     0.63082   0.87544   0.54341   0.00000  Uiso   1.00
H1436  H     0.63047   0.81821   0.54435   0.00000  Uiso   1.00
N1437  N     0.38503   0.82001   0.54189   0.00000  Uiso   1.00
H1438  H     0.36768   0.84727   0.53193   0.00000  Uiso   1.00
H1439  H     0.36922   0.79021   0.53286   0.00000  Uiso   1.00
N1440  N     0.61496   0.84587   0.95811   0.00000  Uiso   1.00
H1441  H     0.63091   0.87559   0.96714   0.00000  Uiso   1.00
H1442  H     0.63217   0.81852   0.96807   0.00000  Uiso   1.00
O1443  O     0.37168   0.76242   0.70988   0.00000  Uiso   1.00
H1444  H     0.38064   0.74250   0.73446   0.00000  Uiso   1.00
O1445  O     0.62832   0.90423   0.79014   0.00000  Uiso   1.00
H1446  H     0.61938   0.92418   0.76557   0.00000  Uiso   1.00
O1447  O     0.62367   0.76712   0.69980   0.00000  Uiso   1.00
H1448  H     0.59867   0.77962   0.68556   0.00000  Uiso   1.00
O1449  O     0.37633   0.89955   0.80020   0.00000  Uiso   1.00
H1450  H     0.40133   0.88705   0.81443   0.00000  Uiso   1.00
N1451  N     0.54165   0.71390   0.81955   0.00000  Uiso   1.00
H1452  H     0.55957   0.74058   0.80788   0.00000  Uiso   1.00
H1453  H     0.51986   0.72466   0.84194   0.00000  Uiso   1.00
N1454  N     0.45834   0.95277   0.68045   0.00000  Uiso   1.00
H1455  H     0.44043   0.92609   0.69212   0.00000  Uiso   1.00
H1456  H     0.48013   0.94201   0.65806   0.00000  Uiso   1.00
N1457  N     0.45919   0.71061   0.68025   0.00000  Uiso   1.00
H1458  H     0.48154   0.72149   0.65797   0.00000  Uiso   1.00
H1459  H     0.44338   0.73760   0.69230   0.00000  Uiso   1.00
N1460  N     0.54081   0.95606   0.81975   0.00000  Uiso   1.00
H1461  H     0.55662   0.92906   0.80769   0.00000  Uiso   1.00
H1462  H     0.51846   0.94518   0.84203   0.00000  Uiso   1.00
C1463  C     0.75348   0.83269   0.75130   0.00000  Uiso   1.00
C1464  C     0.91318   0.83398   0.74870   0.00000  Uiso   1.00
C1465  C     0.75743   0.82225   0.52030   0.00000  Uiso   1.00
C1466  C     0.90922   0.84388   0.97970   0.00000  Uiso   1.00
C1467  C     0.68637   0.79734   0.73038   0.00000  Uiso   1.00
C1468  C     0.98029   0.86932   0.76963   0.00000  Uiso   1.00
C1469  C     0.97745   0.80001   0.72530   0.00000  Uiso   1.00
C1470  C     0.68922   0.86666   0.77471   0.00000  Uiso   1.00
C1471  C     0.95744   0.83529   0.74646   0.00000  Uiso   1.00
C1472  C     0.70923   0.83138   0.75354   0.00000  Uiso   1.00
C1473  C     0.85376   0.69118   0.78310   0.00000  Uiso   1.00
C1474  C     0.81290   0.97548   0.71690   0.00000  Uiso   1.00
C1475  C     0.81309   0.68948   0.71685   0.00000  Uiso   1.00
C1476  C     0.85358   0.97718   0.78315   0.00000  Uiso   1.00
C1477  C     0.83302   0.83335   0.66382   0.00000  Uiso   1.00
C1478  C     0.83364   0.83332   0.83618   0.00000  Uiso   1.00
C1479  C     0.87108   0.84124   0.90748   0.00000  Uiso   1.00
C1480  C     0.79555   0.82532   0.59255   0.00000  Uiso   1.00
C1481  C     0.83385   0.83276   0.88383   0.00000  Uiso   1.00
C1482  C     0.83278   0.83387   0.61617   0.00000  Uiso   1.00
C1483  C     0.79725   0.82115   0.90496   0.00000  Uiso   1.00
C1484  C     0.86939   0.84534   0.59501   0.00000  Uiso   1.00
C1485  C     0.79595   0.82472   0.95158   0.00000  Uiso   1.00
C1486  C     0.87070   0.84158   0.54841   0.00000  Uiso   1.00
C1487  C     0.83356   0.83269   0.97652   0.00000  Uiso   1.00
C1488  C     0.83307   0.83360   0.52348   0.00000  Uiso   1.00
C1489  C     0.87169   0.83942   0.95442   0.00000  Uiso   1.00
C1490  C     0.79495   0.82690   0.54559   0.00000  Uiso   1.00
C1491  C     0.75796   0.82129   0.97358   0.00000  Uiso   1.00
C1492  C     0.90869   0.84484   0.52643   0.00000  Uiso   1.00
N1493  N     0.83333   0.95240   0.75000   0.00000  Uiso   1.00
N1494  N     0.83333   0.71427   0.75000   0.00000  Uiso   1.00
O1495  O     0.77226   0.87154   0.74999   0.00000  Uiso   1.00
O1496  O     0.89441   0.79513   0.75000   0.00000  Uiso   1.00
O1497  O     0.89441   0.87154   0.75000   0.00000  Uiso   1.00
O1498  O     0.77226   0.79513   0.74999   0.00000  Uiso   1.00
O1499  O     0.83333   0.87156   0.68392   0.00000  Uiso   1.00
O1500  O     0.83334   0.79511   0.81607   0.00000  Uiso   1.00
O1501  O     0.83334   0.87156   0.81607   0.00000  Uiso   1.00
O1502  O     0.83333   0.79511   0.68392   0.00000  Uiso   1.00
Zn1503 Zn    0.83333   0.88437   0.75000   0.00000  Uiso   1.00
Zn1504 Zn    0.83333   0.78229   0.75000   0.00000  Uiso   1.00
N1505  N     0.90822   0.85068   0.88350   0.00000  Uiso   1.00
H1506  H     0.91333   0.82419   0.86159   0.00000  Uiso   1.00
H1507  H     0.90456   0.87986   0.86515   0.00000  Uiso   1.00
N1508  N     0.75838   0.81613   0.61657   0.00000  Uiso   1.00
H1509  H     0.76197   0.78705   0.63510   0.00000  Uiso   1.00
H1510  H     0.75333   0.84277   0.63832   0.00000  Uiso   1.00
N1511  N     0.76199   0.80410   0.87907   0.00000  Uiso   1.00
H1512  H     0.76989   0.77465   0.86290   0.00000  Uiso   1.00
H1513  H     0.75360   0.82758   0.85515   0.00000  Uiso   1.00
N1514  N     0.90466   0.86248   0.62084   0.00000  Uiso   1.00
H1515  H     0.91304   0.83909   0.64485   0.00000  Uiso   1.00
H1516  H     0.89675   0.89199   0.63689   0.00000  Uiso   1.00
N1517  N     0.71948   0.81938   0.94836   0.00000  Uiso   1.00
H1518  H     0.70275   0.84767   0.95566   0.00000  Uiso   1.00
H1519  H     0.70260   0.79045   0.95662   0.00000  Uiso   1.00
N1520  N     0.94716   0.84657   0.55166   0.00000  Uiso   1.00
H1521  H     0.96415   0.87544   0.54341   0.00000  Uiso   1.00
H1522  H     0.96380   0.81821   0.54435   0.00000  Uiso   1.00
N1523  N     0.71836   0.82001   0.54189   0.00000  Uiso   1.00
H1524  H     0.70101   0.84727   0.53193   0.00000  Uiso   1.00
H1525  H     0.70256   0.79021   0.53286   0.00000  Uiso   1.00
N1526  N     0.94829   0.84587   0.95811   0.00000  Uiso   1.00
H1527  H     0.96424   0.87559   0.96714   0.00000  Uiso   1.00
H1528  H     0.96550   0.81852   0.96807   0.00000  Uiso   1.00
O1529  O     0.70501   0.76242   0.70988   0.00000  Uiso   1.00
H1530  H     0.71398   0.74250   0.73446   0.00000  Uiso   1.00
O1531  O     0.96165   0.90423   0.79014   0.00000  Uiso   1.00
H1532  H     0.95272   0.92418   0.76557   0.00000  Uiso   1.00
O1533  O     0.95700   0.76712   0.69980   0.00000  Uiso   1.00
H1534  H     0.93200   0.77962   0.68556   0.00000  Uiso   1.00
O1535  O     0.70966   0.89955   0.80020   0.00000  Uiso   1.00
H1536  H     0.73467   0.88705   0.81443   0.00000  Uiso   1.00
N1537  N     0.87499   0.71390   0.81955   0.00000  Uiso   1.00
H1538  H     0.89290   0.74058   0.80788   0.00000  Uiso   1.00
H1539  H     0.85320   0.72466   0.84194   0.00000  Uiso   1.00
N1540  N     0.79168   0.95277   0.68045   0.00000  Uiso   1.00
H1541  H     0.77376   0.92609   0.69212   0.00000  Uiso   1.00
H1542  H     0.81347   0.94201   0.65806   0.00000  Uiso   1.00
N1543  N     0.79253   0.71061   0.68025   0.00000  Uiso   1.00
H1544  H     0.81487   0.72149   0.65797   0.00000  Uiso   1.00
H1545  H     0.77671   0.73760   0.69230   0.00000  Uiso   1.00
N1546  N     0.87414   0.95606   0.81975   0.00000  Uiso   1.00
H1547  H     0.88996   0.92906   0.80769   0.00000  Uiso   1.00
H1548  H     0.85180   0.94518   0.84203   0.00000  Uiso   1.00
loop_
_geom_bond_atom_site_label_1
_geom_bond_atom_site_label_2
_geom_bond_distance
_geom_bond_site_symmetry_2
_ccdc_geom_bond_type
C1     O33     1.297   .     A
C1     C10     1.434   .     S
C1     O36     1.295   .     A
C2     O35     1.295   .     A
C2     O34     1.297   .     A
C2     C9      1.434   .     S
C3     C28     1.414   .     A
C3     N61     1.436   .     S
C3     C803    1.400   1_554 S
C4     C27     1.414   .     A
C4     N64     1.436   .     S
C4     C804    1.400   .     S
C5     O67     1.373   .     S
C5     C10     1.408   .     A
C5     C179    1.375   1_455 S
C6     O69     1.373   .     S
C6     C9      1.408   .     A
C6     C94     1.375   .     S
C7     O71     1.383   .     S
C7     C9      1.412   .     A
C7     C91     1.375   .     S
C8     O73     1.383   .     S
C8     C10     1.412   .     A
C8     C178    1.375   1_455 S
C11    N32     1.376   .     A
C11    N75     1.430   .     S
C11    C530    1.417   1_545 S
C12    N78     1.430   .     S
C12    N31     1.376   .     A
C12    C271    1.417   .     S
C13    N32     1.374   .     A
C13    N81     1.426   .     S
C13    C528    1.417   1_545 S
C14    N84     1.426   .     S
C14    N31     1.374   .     A
C14    C269    1.417   .     S
C15    O37     1.289   .     A
C15    C20     1.427   .     S
C15    O40     1.297   .     A
C16    C19     1.427   .     S
C16    O39     1.297   .     A
C16    O38     1.289   .     A
C17    C27     1.406   .     A
C17    N43     1.439   .     S
C17    C19     1.395   .     A
C18    N46     1.439   .     S
C18    C28     1.407   .     A
C18    C20     1.395   .     A
C19    C21     1.394   .     A
C20    C22     1.394   .     A
C21    N49     1.439   .     S
C21    C23     1.401   .     A
C22    C24     1.401   .     A
C22    N52     1.439   .     S
C23    C29     1.412   .     A
C23    C25     1.422   .     A
C24    C26     1.422   .     A
C24    C30     1.412   .     A
C25    C27     1.426   .     A
C25    C800    1.407   .     S
C26    C28     1.426   .     A
C26    C799    1.407   1_554 S
C29    N55     1.436   .     S
C29    C777    1.400   .     S
C30    N58     1.436   .     S
C30    C778    1.400   1_554 S
N31    Zn41    2.036   .     S
N32    Zn42    2.036   .     S
O33    Zn41    2.001   .     S
O34    Zn42    2.001   .     S
O35    Zn41    2.024   .     S
O36    Zn42    2.024   .     S
O37    Zn41    2.013   .     S
O38    Zn42    2.013   .     S
O39    Zn41    2.017   .     S
O40    Zn42    2.017   .     S
N43    H44     1.046   .     S
N43    H45     1.043   .     S
N46    H48     1.046   .     S
N46    H47     1.043   .     S
N49    H51     1.042   .     S
N49    H50     1.045   .     S
N52    H54     1.045   .     S
N52    H53     1.042   .     S
N55    H56     1.044   .     S
N55    H57     1.045   .     S
N58    H60     1.044   .     S
N58    H59     1.045   .     S
N61    H63     1.045   .     S
N61    H62     1.044   .     S
N64    H66     1.044   .     S
N64    H65     1.045   .     S
O67    H68     0.992   .     S
O69    H70     0.992   .     S
O71    H72     0.988   .     S
O73    H74     0.988   .     S
N75    H76     1.040   .     S
N75    H77     1.043   .     S
N78    H80     1.043   .     S
N78    H79     1.040   .     S
N81    H82     1.044   .     S
N81    H83     1.038   .     S
N84    H85     1.038   .     S
N84    H86     1.044   .     S
C87    O119    1.297   .     A
C87    C96     1.434   .     S
C87    O122    1.295   .     A
C88    O121    1.295   .     A
C88    O120    1.297   .     A
C88    C95     1.434   .     S
C89    C114    1.414   .     A
C89    N147    1.436   .     S
C89    C889    1.400   1_554 S
C90    C113    1.414   .     A
C90    N150    1.436   .     S
C90    C890    1.400   .     S
C91    O153    1.373   .     S
C91    C96     1.408   .     A
C92    O155    1.373   .     S
C92    C95     1.408   .     A
C92    C180    1.375   .     S
C93    O157    1.383   .     S
C93    C95     1.412   .     A
C93    C177    1.375   .     S
C94    O159    1.383   .     S
C94    C96     1.412   .     A
C97    N118    1.376   .     A
C97    N161    1.430   .     S
C97    C616    1.417   1_545 S
C98    N164    1.430   .     S
C98    N117    1.376   .     A
C98    C357    1.417   .     S
C99    N118    1.374   .     A
C99    N167    1.426   .     S
C99    C614    1.417   1_545 S
C100   N170    1.426   .     S
C100   N117    1.374   .     A
C100   C355    1.417   .     S
C101   O123    1.289   .     A
C101   C106    1.427   .     S
C101   O126    1.297   .     A
C102   C105    1.427   .     S
C102   O125    1.297   .     A
C102   O124    1.289   .     A
C103   C113    1.406   .     A
C103   N129    1.439   .     S
C103   C105    1.395   .     A
C104   N132    1.439   .     S
C104   C114    1.407   .     A
C104   C106    1.395   .     A
C105   C107    1.394   .     A
C106   C108    1.394   .     A
C107   N135    1.439   .     S
C107   C109    1.401   .     A
C108   C110    1.401   .     A
C108   N138    1.439   .     S
C109   C115    1.412   .     A
C109   C111    1.422   .     A
C110   C112    1.422   .     A
C110   C116    1.412   .     A
C111   C113    1.426   .     A
C111   C886    1.407   .     S
C112   C114    1.426   .     A
C112   C885    1.407   1_554 S
C115   N141    1.436   .     S
C115   C863    1.400   .     S
C116   N144    1.436   .     S
C116   C864    1.400   1_554 S
N117   Zn127   2.036   .     S
N118   Zn128   2.036   .     S
O119   Zn127   2.001   .     S
O120   Zn128   2.001   .     S
O121   Zn127   2.024   .     S
O122   Zn128   2.024   .     S
O123   Zn127   2.013   .     S
O124   Zn128   2.013   .     S
O125   Zn127   2.017   .     S
O126   Zn128   2.017   .     S
N129   H130    1.046   .     S
N129   H131    1.043   .     S
N132   H134    1.046   .     S
N132   H133    1.043   .     S
N135   H137    1.042   .     S
N135   H136    1.045   .     S
N138   H140    1.045   .     S
N138   H139    1.042   .     S
N141   H142    1.044   .     S
N141   H143    1.045   .     S
N144   H146    1.044   .     S
N144   H145    1.045   .     S
N147   H149    1.045   .     S
N147   H148    1.044   .     S
N150   H152    1.044   .     S
N150   H151    1.045   .     S
O153   H154    0.992   .     S
O155   H156    0.992   .     S
O157   H158    0.988   .     S
O159   H160    0.988   .     S
N161   H162    1.040   .     S
N161   H163    1.043   .     S
N164   H166    1.043   .     S
N164   H165    1.040   .     S
N167   H168    1.044   .     S
N167   H169    1.038   .     S
N170   H171    1.038   .     S
N170   H172    1.044   .     S
C173   O205    1.297   .     A
C173   C182    1.434   .     S
C173   O208    1.295   .     A
C174   O207    1.295   .     A
C174   O206    1.297   .     A
C174   C181    1.434   .     S
C175   C200    1.414   .     A
C175   N233    1.436   .     S
C175   C975    1.400   1_554 S
C176   C199    1.414   .     A
C176   N236    1.436   .     S
C176   C976    1.400   .     S
C177   O239    1.373   .     S
C177   C182    1.408   .     A
C178   O241    1.373   .     S
C178   C181    1.408   .     A
C178   C8      1.375   1_655 S
C179   O243    1.383   .     S
C179   C181    1.412   .     A
C179   C5      1.375   1_655 S
C180   O245    1.383   .     S
C180   C182    1.412   .     A
C183   N204    1.376   .     A
C183   N247    1.430   .     S
C183   C702    1.417   1_545 S
C184   N250    1.430   .     S
C184   N203    1.376   .     A
C184   C443    1.417   .     S
C185   N204    1.374   .     A
C185   N253    1.426   .     S
C185   C700    1.417   1_545 S
C186   N256    1.426   .     S
C186   N203    1.374   .     A
C186   C441    1.417   .     S
C187   O209    1.289   .     A
C187   C192    1.427   .     S
C187   O212    1.297   .     A
C188   C191    1.427   .     S
C188   O211    1.297   .     A
C188   O210    1.289   .     A
C189   C199    1.406   .     A
C189   N215    1.439   .     S
C189   C191    1.395   .     A
C190   N218    1.439   .     S
C190   C200    1.407   .     A
C190   C192    1.395   .     A
C191   C193    1.394   .     A
C192   C194    1.394   .     A
C193   N221    1.439   .     S
C193   C195    1.401   .     A
C194   C196    1.401   .     A
C194   N224    1.439   .     S
C195   C201    1.412   .     A
C195   C197    1.422   .     A
C196   C198    1.422   .     A
C196   C202    1.412   .     A
C197   C199    1.426   .     A
C197   C972    1.407   .     S
C198   C200    1.426   .     A
C198   C971    1.407   1_554 S
C201   N227    1.436   .     S
C201   C949    1.400   .     S
C202   N230    1.436   .     S
C202   C950    1.400   1_554 S
N203   Zn213   2.036   .     S
N204   Zn214   2.036   .     S
O205   Zn213   2.001   .     S
O206   Zn214   2.001   .     S
O207   Zn213   2.024   .     S
O208   Zn214   2.024   .     S
O209   Zn213   2.013   .     S
O210   Zn214   2.013   .     S
O211   Zn213   2.017   .     S
O212   Zn214   2.017   .     S
N215   H216    1.046   .     S
N215   H217    1.043   .     S
N218   H220    1.046   .     S
N218   H219    1.043   .     S
N221   H223    1.042   .     S
N221   H222    1.045   .     S
N224   H226    1.045   .     S
N224   H225    1.042   .     S
N227   H228    1.044   .     S
N227   H229    1.045   .     S
N230   H232    1.044   .     S
N230   H231    1.045   .     S
N233   H235    1.045   .     S
N233   H234    1.044   .     S
N236   H238    1.044   .     S
N236   H237    1.045   .     S
O239   H240    0.992   .     S
O241   H242    0.992   .     S
O243   H244    0.988   .     S
O245   H246    0.988   .     S
N247   H248    1.040   .     S
N247   H249    1.043   .     S
N250   H252    1.043   .     S
N250   H251    1.040   .     S
N253   H254    1.044   .     S
N253   H255    1.038   .     S
N256   H257    1.038   .     S
N256   H258    1.044   .     S
C259   O291    1.297   .     A
C259   C268    1.434   .     S
C259   O294    1.295   .     A
C260   O293    1.295   .     A
C260   O292    1.297   .     A
C260   C267    1.434   .     S
C261   C286    1.414   .     A
C261   N319    1.436   .     S
C261   C1061   1.400   1_554 S
C262   C285    1.414   .     A
C262   N322    1.436   .     S
C262   C1062   1.400   .     S
C263   O325    1.373   .     S
C263   C268    1.408   .     A
C263   C437    1.375   1_455 S
C264   O327    1.373   .     S
C264   C267    1.408   .     A
C264   C352    1.375   .     S
C265   O329    1.383   .     S
C265   C267    1.412   .     A
C265   C349    1.375   .     S
C266   O331    1.383   .     S
C266   C268    1.412   .     A
C266   C436    1.375   1_455 S
C269   N290    1.376   .     A
C269   N333    1.430   .     S
C270   N336    1.430   .     S
C270   N289    1.376   .     A
C270   C529    1.417   .     S
C271   N290    1.374   .     A
C271   N339    1.426   .     S
C272   N342    1.426   .     S
C272   N289    1.374   .     A
C272   C527    1.417   .     S
C273   O295    1.289   .     A
C273   C278    1.427   .     S
C273   O298    1.297   .     A
C274   C277    1.427   .     S
C274   O297    1.297   .     A
C274   O296    1.289   .     A
C275   C285    1.406   .     A
C275   N301    1.439   .     S
C275   C277    1.395   .     A
C276   N304    1.439   .     S
C276   C286    1.407   .     A
C276   C278    1.395   .     A
C277   C279    1.394   .     A
C278   C280    1.394   .     A
C279   N307    1.439   .     S
C279   C281    1.401   .     A
C280   C282    1.401   .     A
C280   N310    1.439   .     S
C281   C287    1.412   .     A
C281   C283    1.422   .     A
C282   C284    1.422   .     A
C282   C288    1.412   .     A
C283   C285    1.426   .     A
C283   C1058   1.407   .     S
C284   C286    1.426   .     A
C284   C1057   1.407   1_554 S
C287   N313    1.436   .     S
C287   C1035   1.400   .     S
C288   N316    1.436   .     S
C288   C1036   1.400   1_554 S
N289   Zn299   2.036   .     S
N290   Zn300   2.036   .     S
O291   Zn299   2.001   .     S
O292   Zn300   2.001   .     S
O293   Zn299   2.024   .     S
O294   Zn300   2.024   .     S
O295   Zn299   2.013   .     S
O296   Zn300   2.013   .     S
O297   Zn299   2.017   .     S
O298   Zn300   2.017   .     S
N301   H302    1.046   .     S
N301   H303    1.043   .     S
N304   H306    1.046   .     S
N304   H305    1.043   .     S
N307   H309    1.042   .     S
N307   H308    1.045   .     S
N310   H312    1.045   .     S
N310   H311    1.042   .     S
N313   H314    1.044   .     S
N313   H315    1.045   .     S
N316   H318    1.044   .     S
N316   H317    1.045   .     S
N319   H321    1.045   .     S
N319   H320    1.044   .     S
N322   H324    1.044   .     S
N322   H323    1.045   .     S
O325   H326    0.992   .     S
O327   H328    0.992   .     S
O329   H330    0.988   .     S
O331   H332    0.988   .     S
N333   H334    1.040   .     S
N333   H335    1.043   .     S
N336   H338    1.043   .     S
N336   H337    1.040   .     S
N339   H340    1.044   .     S
N339   H341    1.038   .     S
N342   H343    1.038   .     S
N342   H344    1.044   .     S
C345   O377    1.297   .     A
C345   C354    1.434   .     S
C345   O380    1.295   .     A
C346   O379    1.295   .     A
C346   O378    1.297   .     A
C346   C353    1.434   .     S
C347   C372    1.414   .     A
C347   N405    1.436   .     S
C347   C1147   1.400   1_554 S
C348   C371    1.414   .     A
C348   N408    1.436   .     S
C348   C1148   1.400   .     S
C349   O411    1.373   .     S
C349   C354    1.408   .     A
C350   O413    1.373   .     S
C350   C353    1.408   .     A
C350   C438    1.375   .     S
C351   O415    1.383   .     S
C351   C353    1.412   .     A
C351   C435    1.375   .     S
C352   O417    1.383   .     S
C352   C354    1.412   .     A
C355   N376    1.376   .     A
C355   N419    1.430   .     S
C356   N422    1.430   .     S
C356   N375    1.376   .     A
C356   C615    1.417   .     S
C357   N376    1.374   .     A
C357   N425    1.426   .     S
C358   N428    1.426   .     S
C358   N375    1.374   .     A
C358   C613    1.417   .     S
C359   O381    1.289   .     A
C359   C364    1.427   .     S
C359   O384    1.297   .     A
C360   C363    1.427   .     S
C360   O383    1.297   .     A
C360   O382    1.289   .     A
C361   C371    1.406   .     A
C361   N387    1.439   .     S
C361   C363    1.395   .     A
C362   N390    1.439   .     S
C362   C372    1.407   .     A
C362   C364    1.395   .     A
C363   C365    1.394   .     A
C364   C366    1.394   .     A
C365   N393    1.439   .     S
C365   C367    1.401   .     A
C366   C368    1.401   .     A
C366   N396    1.439   .     S
C367   C373    1.412   .     A
C367   C369    1.422   .     A
C368   C370    1.422   .     A
C368   C374    1.412   .     A
C369   C371    1.426   .     A
C369   C1144   1.407   .     S
C370   C372    1.426   .     A
C370   C1143   1.407   1_554 S
C373   N399    1.436   .     S
C373   C1121   1.400   .     S
C374   N402    1.436   .     S
C374   C1122   1.400   1_554 S
N375   Zn385   2.036   .     S
N376   Zn386   2.036   .     S
O377   Zn385   2.001   .     S
O378   Zn386   2.001   .     S
O379   Zn385   2.024   .     S
O380   Zn386   2.024   .     S
O381   Zn385   2.013   .     S
O382   Zn386   2.013   .     S
O383   Zn385   2.017   .     S
O384   Zn386   2.017   .     S
N387   H388    1.046   .     S
N387   H389    1.043   .     S
N390   H392    1.046   .     S
N390   H391    1.043   .     S
N393   H395    1.042   .     S
N393   H394    1.045   .     S
N396   H398    1.045   .     S
N396   H397    1.042   .     S
N399   H400    1.044   .     S
N399   H401    1.045   .     S
N402   H404    1.044   .     S
N402   H403    1.045   .     S
N405   H407    1.045   .     S
N405   H406    1.044   .     S
N408   H410    1.044   .     S
N408   H409    1.045   .     S
O411   H412    0.992   .     S
O413   H414    0.992   .     S
O415   H416    0.988   .     S
O417   H418    0.988   .     S
N419   H420    1.040   .     S
N419   H421    1.043   .     S
N422   H424    1.043   .     S
N422   H423    1.040   .     S
N425   H426    1.044   .     S
N425   H427    1.038   .     S
N428   H429    1.038   .     S
N428   H430    1.044   .     S
C431   O463    1.297   .     A
C431   C440    1.434   .     S
C431   O466    1.295   .     A
C432   O465    1.295   .     A
C432   O464    1.297   .     A
C432   C439    1.434   .     S
C433   C458    1.414   .     A
C433   N491    1.436   .     S
C433   C1233   1.400   1_554 S
C434   C457    1.414   .     A
C434   N494    1.436   .     S
C434   C1234   1.400   .     S
C435   O497    1.373   .     S
C435   C440    1.408   .     A
C436   O499    1.373   .     S
C436   C439    1.408   .     A
C436   C266    1.375   1_655 S
C437   O501    1.383   .     S
C437   C439    1.412   .     A
C437   C263    1.375   1_655 S
C438   O503    1.383   .     S
C438   C440    1.412   .     A
C441   N462    1.376   .     A
C441   N505    1.430   .     S
C442   N508    1.430   .     S
C442   N461    1.376   .     A
C442   C701    1.417   .     S
C443   N462    1.374   .     A
C443   N511    1.426   .     S
C444   N514    1.426   .     S
C444   N461    1.374   .     A
C444   C699    1.417   .     S
C445   O467    1.289   .     A
C445   C450    1.427   .     S
C445   O470    1.297   .     A
C446   C449    1.427   .     S
C446   O469    1.297   .     A
C446   O468    1.289   .     A
C447   C457    1.406   .     A
C447   N473    1.439   .     S
C447   C449    1.395   .     A
C448   N476    1.439   .     S
C448   C458    1.407   .     A
C448   C450    1.395   .     A
C449   C451    1.394   .     A
C450   C452    1.394   .     A
C451   N479    1.439   .     S
C451   C453    1.401   .     A
C452   C454    1.401   .     A
C452   N482    1.439   .     S
C453   C459    1.412   .     A
C453   C455    1.422   .     A
C454   C456    1.422   .     A
C454   C460    1.412   .     A
C455   C457    1.426   .     A
C455   C1230   1.407   .     S
C456   C458    1.426   .     A
C456   C1229   1.407   1_554 S
C459   N485    1.436   .     S
C459   C1207   1.400   .     S
C460   N488    1.436   .     S
C460   C1208   1.400   1_554 S
N461   Zn471   2.036   .     S
N462   Zn472   2.036   .     S
O463   Zn471   2.001   .     S
O464   Zn472   2.001   .     S
O465   Zn471   2.024   .     S
O466   Zn472   2.024   .     S
O467   Zn471   2.013   .     S
O468   Zn472   2.013   .     S
O469   Zn471   2.017   .     S
O470   Zn472   2.017   .     S
N473   H474    1.046   .     S
N473   H475    1.043   .     S
N476   H478    1.046   .     S
N476   H477    1.043   .     S
N479   H481    1.042   .     S
N479   H480    1.045   .     S
N482   H484    1.045   .     S
N482   H483    1.042   .     S
N485   H486    1.044   .     S
N485   H487    1.045   .     S
N488   H490    1.044   .     S
N488   H489    1.045   .     S
N491   H493    1.045   .     S
N491   H492    1.044   .     S
N494   H496    1.044   .     S
N494   H495    1.045   .     S
O497   H498    0.992   .     S
O499   H500    0.992   .     S
O501   H502    0.988   .     S
O503   H504    0.988   .     S
N505   H506    1.040   .     S
N505   H507    1.043   .     S
N508   H510    1.043   .     S
N508   H509    1.040   .     S
N511   H512    1.044   .     S
N511   H513    1.038   .     S
N514   H515    1.038   .     S
N514   H516    1.044   .     S
C517   O549    1.297   .     A
C517   C526    1.434   .     S
C517   O552    1.295   .     A
C518   O551    1.295   .     A
C518   O550    1.297   .     A
C518   C525    1.434   .     S
C519   C544    1.414   .     A
C519   N577    1.436   .     S
C519   C1319   1.400   1_554 S
C520   C543    1.414   .     A
C520   N580    1.436   .     S
C520   C1320   1.400   .     S
C521   O583    1.373   .     S
C521   C526    1.408   .     A
C521   C695    1.375   1_455 S
C522   O585    1.373   .     S
C522   C525    1.408   .     A
C522   C610    1.375   .     S
C523   O587    1.383   .     S
C523   C525    1.412   .     A
C523   C607    1.375   .     S
C524   O589    1.383   .     S
C524   C526    1.412   .     A
C524   C694    1.375   1_455 S
C527   N548    1.376   .     A
C527   N591    1.430   .     S
C528   N594    1.430   .     S
C528   N547    1.376   .     A
C528   C13     1.417   1_565 S
C529   N548    1.374   .     A
C529   N597    1.426   .     S
C530   N600    1.426   .     S
C530   N547    1.374   .     A
C530   C11     1.417   1_565 S
C531   O553    1.289   .     A
C531   C536    1.427   .     S
C531   O556    1.297   .     A
C532   C535    1.427   .     S
C532   O555    1.297   .     A
C532   O554    1.289   .     A
C533   C543    1.406   .     A
C533   N559    1.439   .     S
C533   C535    1.395   .     A
C534   N562    1.439   .     S
C534   C544    1.407   .     A
C534   C536    1.395   .     A
C535   C537    1.394   .     A
C536   C538    1.394   .     A
C537   N565    1.439   .     S
C537   C539    1.401   .     A
C538   C540    1.401   .     A
C538   N568    1.439   .     S
C539   C545    1.412   .     A
C539   C541    1.422   .     A
C540   C542    1.422   .     A
C540   C546    1.412   .     A
C541   C543    1.426   .     A
C541   C1316   1.407   .     S
C542   C544    1.426   .     A
C542   C1315   1.407   1_554 S
C545   N571    1.436   .     S
C545   C1293   1.400   .     S
C546   N574    1.436   .     S
C546   C1294   1.400   1_554 S
N547   Zn557   2.036   .     S
N548   Zn558   2.036   .     S
O549   Zn557   2.001   .     S
O550   Zn558   2.001   .     S
O551   Zn557   2.024   .     S
O552   Zn558   2.024   .     S
O553   Zn557   2.013   .     S
O554   Zn558   2.013   .     S
O555   Zn557   2.017   .     S
O556   Zn558   2.017   .     S
N559   H560    1.046   .     S
N559   H561    1.043   .     S
N562   H564    1.046   .     S
N562   H563    1.043   .     S
N565   H567    1.042   .     S
N565   H566    1.045   .     S
N568   H570    1.045   .     S
N568   H569    1.042   .     S
N571   H572    1.044   .     S
N571   H573    1.045   .     S
N574   H576    1.044   .     S
N574   H575    1.045   .     S
N577   H579    1.045   .     S
N577   H578    1.044   .     S
N580   H582    1.044   .     S
N580   H581    1.045   .     S
O583   H584    0.992   .     S
O585   H586    0.992   .     S
O587   H588    0.988   .     S
O589   H590    0.988   .     S
N591   H592    1.040   .     S
N591   H593    1.043   .     S
N594   H596    1.043   .     S
N594   H595    1.040   .     S
N597   H598    1.044   .     S
N597   H599    1.038   .     S
N600   H601    1.038   .     S
N600   H602    1.044   .     S
C603   O635    1.297   .     A
C603   C612    1.434   .     S
C603   O638    1.295   .     A
C604   O637    1.295   .     A
C604   O636    1.297   .     A
C604   C611    1.434   .     S
C605   C630    1.414   .     A
C605   N663    1.436   .     S
C605   C1405   1.400   1_554 S
C606   C629    1.414   .     A
C606   N666    1.436   .     S
C606   C1406   1.400   .     S
C607   O669    1.373   .     S
C607   C612    1.408   .     A
C608   O671    1.373   .     S
C608   C611    1.408   .     A
C608   C696    1.375   .     S
C609   O673    1.383   .     S
C609   C611    1.412   .     A
C609   C693    1.375   .     S
C610   O675    1.383   .     S
C610   C612    1.412   .     A
C613   N634    1.376   .     A
C613   N677    1.430   .     S
C614   N680    1.430   .     S
C614   N633    1.376   .     A
C614   C99     1.417   1_565 S
C615   N634    1.374   .     A
C615   N683    1.426   .     S
C616   N686    1.426   .     S
C616   N633    1.374   .     A
C616   C97     1.417   1_565 S
C617   O639    1.289   .     A
C617   C622    1.427   .     S
C617   O642    1.297   .     A
C618   C621    1.427   .     S
C618   O641    1.297   .     A
C618   O640    1.289   .     A
C619   C629    1.406   .     A
C619   N645    1.439   .     S
C619   C621    1.395   .     A
C620   N648    1.439   .     S
C620   C630    1.407   .     A
C620   C622    1.395   .     A
C621   C623    1.394   .     A
C622   C624    1.394   .     A
C623   N651    1.439   .     S
C623   C625    1.401   .     A
C624   C626    1.401   .     A
C624   N654    1.439   .     S
C625   C631    1.412   .     A
C625   C627    1.422   .     A
C626   C628    1.422   .     A
C626   C632    1.412   .     A
C627   C629    1.426   .     A
C627   C1402   1.407   .     S
C628   C630    1.426   .     A
C628   C1401   1.407   1_554 S
C631   N657    1.436   .     S
C631   C1379   1.400   .     S
C632   N660    1.436   .     S
C632   C1380   1.400   1_554 S
N633   Zn643   2.036   .     S
N634   Zn644   2.036   .     S
O635   Zn643   2.001   .     S
O636   Zn644   2.001   .     S
O637   Zn643   2.024   .     S
O638   Zn644   2.024   .     S
O639   Zn643   2.013   .     S
O640   Zn644   2.013   .     S
O641   Zn643   2.017   .     S
O642   Zn644   2.017   .     S
N645   H646    1.046   .     S
N645   H647    1.043   .     S
N648   H650    1.046   .     S
N648   H649    1.043   .     S
N651   H653    1.042   .     S
N651   H652    1.045   .     S
N654   H656    1.045   .     S
N654   H655    1.042   .     S
N657   H658    1.044   .     S
N657   H659    1.045   .     S
N660   H662    1.044   .     S
N660   H661    1.045   .     S
N663   H665    1.045   .     S
N663   H664    1.044   .     S
N666   H668    1.044   .     S
N666   H667    1.045   .     S
O669   H670    0.992   .     S
O671   H672    0.992   .     S
O673   H674    0.988   .     S
O675   H676    0.988   .     S
N677   H678    1.040   .     S
N677   H679    1.043   .     S
N680   H682    1.043   .     S
N680   H681    1.040   .     S
N683   H684    1.044   .     S
N683   H685    1.038   .     S
N686   H687    1.038   .     S
N686   H688    1.044   .     S
C689   O721    1.297   .     A
C689   C698    1.434   .     S
C689   O724    1.295   .     A
C690   O723    1.295   .     A
C690   O722    1.297   .     A
C690   C697    1.434   .     S
C691   C716    1.414   .     A
C691   N749    1.436   .     S
C691   C1491   1.400   1_554 S
C692   C715    1.414   .     A
C692   N752    1.436   .     S
C692   C1492   1.400   .     S
C693   O755    1.373   .     S
C693   C698    1.408   .     A
C694   O757    1.373   .     S
C694   C697    1.408   .     A
C694   C524    1.375   1_655 S
C695   O759    1.383   .     S
C695   C697    1.412   .     A
C695   C521    1.375   1_655 S
C696   O761    1.383   .     S
C696   C698    1.412   .     A
C699   N720    1.376   .     A
C699   N763    1.430   .     S
C700   N766    1.430   .     S
C700   N719    1.376   .     A
C700   C185    1.417   1_565 S
C701   N720    1.374   .     A
C701   N769    1.426   .     S
C702   N772    1.426   .     S
C702   N719    1.374   .     A
C702   C183    1.417   1_565 S
C703   O725    1.289   .     A
C703   C708    1.427   .     S
C703   O728    1.297   .     A
C704   C707    1.427   .     S
C704   O727    1.297   .     A
C704   O726    1.289   .     A
C705   C715    1.406   .     A
C705   N731    1.439   .     S
C705   C707    1.395   .     A
C706   N734    1.439   .     S
C706   C716    1.407   .     A
C706   C708    1.395   .     A
C707   C709    1.394   .     A
C708   C710    1.394   .     A
C709   N737    1.439   .     S
C709   C711    1.401   .     A
C710   C712    1.401   .     A
C710   N740    1.439   .     S
C711   C717    1.412   .     A
C711   C713    1.422   .     A
C712   C714    1.422   .     A
C712   C718    1.412   .     A
C713   C715    1.426   .     A
C713   C1488   1.407   .     S
C714   C716    1.426   .     A
C714   C1487   1.407   1_554 S
C717   N743    1.436   .     S
C717   C1465   1.400   .     S
C718   N746    1.436   .     S
C718   C1466   1.400   1_554 S
N719   Zn729   2.036   .     S
N720   Zn730   2.036   .     S
O721   Zn729   2.001   .     S
O722   Zn730   2.001   .     S
O723   Zn729   2.024   .     S
O724   Zn730   2.024   .     S
O725   Zn729   2.013   .     S
O726   Zn730   2.013   .     S
O727   Zn729   2.017   .     S
O728   Zn730   2.017   .     S
N731   H732    1.046   .     S
N731   H733    1.043   .     S
N734   H736    1.046   .     S
N734   H735    1.043   .     S
N737   H739    1.042   .     S
N737   H738    1.045   .     S
N740   H742    1.045   .     S
N740   H741    1.042   .     S
N743   H744    1.044   .     S
N743   H745    1.045   .     S
N746   H748    1.044   .     S
N746   H747    1.045   .     S
N749   H751    1.045   .     S
N749   H750    1.044   .     S
N752   H754    1.044   .     S
N752   H753    1.045   .     S
O755   H756    0.992   .     S
O757   H758    0.992   .     S
O759   H760    0.988   .     S
O761   H762    0.988   .     S
N763   H764    1.040   .     S
N763   H765    1.043   .     S
N766   H768    1.043   .     S
N766   H767    1.040   .     S
N769   H770    1.044   .     S
N769   H771    1.038   .     S
N772   H773    1.038   .     S
N772   H774    1.044   .     S
C775   O807    1.297   .     A
C775   C784    1.434   .     S
C775   O810    1.295   .     A
C776   O809    1.295   .     A
C776   O808    1.297   .     A
C776   C783    1.434   .     S
C777   C802    1.414   .     A
C777   N835    1.436   .     S
C778   C801    1.414   .     A
C778   N838    1.436   .     S
C778   C30     1.400   1_556 S
C779   O841    1.373   .     S
C779   C784    1.408   .     A
C779   C953    1.375   1_455 S
C780   O843    1.373   .     S
C780   C783    1.408   .     A
C780   C868    1.375   .     S
C781   O845    1.383   .     S
C781   C783    1.412   .     A
C781   C865    1.375   .     S
C782   O847    1.383   .     S
C782   C784    1.412   .     A
C782   C952    1.375   1_455 S
C785   N806    1.376   .     A
C785   N849    1.430   .     S
C785   C1304   1.417   1_545 S
C786   N852    1.430   .     S
C786   N805    1.376   .     A
C786   C1045   1.417   .     S
C787   N806    1.374   .     A
C787   N855    1.426   .     S
C787   C1302   1.417   1_545 S
C788   N858    1.426   .     S
C788   N805    1.374   .     A
C788   C1043   1.417   .     S
C789   O811    1.289   .     A
C789   C794    1.427   .     S
C789   O814    1.297   .     A
C790   C793    1.427   .     S
C790   O813    1.297   .     A
C790   O812    1.289   .     A
C791   C801    1.406   .     A
C791   N817    1.439   .     S
C791   C793    1.395   .     A
C792   N820    1.439   .     S
C792   C802    1.407   .     A
C792   C794    1.395   .     A
C793   C795    1.394   .     A
C794   C796    1.394   .     A
C795   N823    1.439   .     S
C795   C797    1.401   .     A
C796   C798    1.401   .     A
C796   N826    1.439   .     S
C797   C803    1.412   .     A
C797   C799    1.422   .     A
C798   C800    1.422   .     A
C798   C804    1.412   .     A
C799   C801    1.426   .     A
C799   C26     1.407   1_556 S
C800   C802    1.426   .     A
C803   N829    1.436   .     S
C803   C3      1.400   1_556 S
C804   N832    1.436   .     S
N805   Zn815   2.036   .     S
N806   Zn816   2.036   .     S
O807   Zn815   2.001   .     S
O808   Zn816   2.001   .     S
O809   Zn815   2.024   .     S
O810   Zn816   2.024   .     S
O811   Zn815   2.013   .     S
O812   Zn816   2.013   .     S
O813   Zn815   2.017   .     S
O814   Zn816   2.017   .     S
N817   H818    1.046   .     S
N817   H819    1.043   .     S
N820   H822    1.046   .     S
N820   H821    1.043   .     S
N823   H825    1.042   .     S
N823   H824    1.045   .     S
N826   H828    1.045   .     S
N826   H827    1.042   .     S
N829   H830    1.044   .     S
N829   H831    1.045   .     S
N832   H834    1.044   .     S
N832   H833    1.045   .     S
N835   H837    1.045   .     S
N835   H836    1.044   .     S
N838   H840    1.044   .     S
N838   H839    1.045   .     S
O841   H842    0.992   .     S
O843   H844    0.992   .     S
O845   H846    0.988   .     S
O847   H848    0.988   .     S
N849   H850    1.040   .     S
N849   H851    1.043   .     S
N852   H854    1.043   .     S
N852   H853    1.040   .     S
N855   H856    1.044   .     S
N855   H857    1.038   .     S
N858   H859    1.038   .     S
N858   H860    1.044   .     S
C861   O893    1.297   .     A
C861   C870    1.434   .     S
C861   O896    1.295   .     A
C862   O895    1.295   .     A
C862   O894    1.297   .     A
C862   C869    1.434   .     S
C863   C888    1.414   .     A
C863   N921    1.436   .     S
C864   C887    1.414   .     A
C864   N924    1.436   .     S
C864   C116    1.400   1_556 S
C865   O927    1.373   .     S
C865   C870    1.408   .     A
C866   O929    1.373   .     S
C866   C869    1.408   .     A
C866   C954    1.375   .     S
C867   O931    1.383   .     S
C867   C869    1.412   .     A
C867   C951    1.375   .     S
C868   O933    1.383   .     S
C868   C870    1.412   .     A
C871   N892    1.376   .     A
C871   N935    1.430   .     S
C871   C1390   1.417   1_545 S
C872   N938    1.430   .     S
C872   N891    1.376   .     A
C872   C1131   1.417   .     S
C873   N892    1.374   .     A
C873   N941    1.426   .     S
C873   C1388   1.417   1_545 S
C874   N944    1.426   .     S
C874   N891    1.374   .     A
C874   C1129   1.417   .     S
C875   O897    1.289   .     A
C875   C880    1.427   .     S
C875   O900    1.297   .     A
C876   C879    1.427   .     S
C876   O899    1.297   .     A
C876   O898    1.289   .     A
C877   C887    1.406   .     A
C877   N903    1.439   .     S
C877   C879    1.395   .     A
C878   N906    1.439   .     S
C878   C888    1.407   .     A
C878   C880    1.395   .     A
C879   C881    1.394   .     A
C880   C882    1.394   .     A
C881   N909    1.439   .     S
C881   C883    1.401   .     A
C882   C884    1.401   .     A
C882   N912    1.439   .     S
C883   C889    1.412   .     A
C883   C885    1.422   .     A
C884   C886    1.422   .     A
C884   C890    1.412   .     A
C885   C887    1.426   .     A
C885   C112    1.407   1_556 S
C886   C888    1.426   .     A
C889   N915    1.436   .     S
C889   C89     1.400   1_556 S
C890   N918    1.436   .     S
N891   Zn901   2.036   .     S
N892   Zn902   2.036   .     S
O893   Zn901   2.001   .     S
O894   Zn902   2.001   .     S
O895   Zn901   2.024   .     S
O896   Zn902   2.024   .     S
O897   Zn901   2.013   .     S
O898   Zn902   2.013   .     S
O899   Zn901   2.017   .     S
O900   Zn902   2.017   .     S
N903   H904    1.046   .     S
N903   H905    1.043   .     S
N906   H908    1.046   .     S
N906   H907    1.043   .     S
N909   H911    1.042   .     S
N909   H910    1.045   .     S
N912   H914    1.045   .     S
N912   H913    1.042   .     S
N915   H916    1.044   .     S
N915   H917    1.045   .     S
N918   H920    1.044   .     S
N918   H919    1.045   .     S
N921   H923    1.045   .     S
N921   H922    1.044   .     S
N924   H926    1.044   .     S
N924   H925    1.045   .     S
O927   H928    0.992   .     S
O929   H930    0.992   .     S
O931   H932    0.988   .     S
O933   H934    0.988   .     S
N935   H936    1.040   .     S
N935   H937    1.043   .     S
N938   H940    1.043   .     S
N938   H939    1.040   .     S
N941   H942    1.044   .     S
N941   H943    1.038   .     S
N944   H945    1.038   .     S
N944   H946    1.044   .     S
C947   O979    1.297   .     A
C947   C956    1.434   .     S
C947   O982    1.295   .     A
C948   O981    1.295   .     A
C948   O980    1.297   .     A
C948   C955    1.434   .     S
C949   C974    1.414   .     A
C949   N1007   1.436   .     S
C950   C973    1.414   .     A
C950   N1010   1.436   .     S
C950   C202    1.400   1_556 S
C951   O1013   1.373   .     S
C951   C956    1.408   .     A
C952   O1015   1.373   .     S
C952   C955    1.408   .     A
C952   C782    1.375   1_655 S
C953   O1017   1.383   .     S
C953   C955    1.412   .     A
C953   C779    1.375   1_655 S
C954   O1019   1.383   .     S
C954   C956    1.412   .     A
C957   N978    1.376   .     A
C957   N1021   1.430   .     S
C957   C1476   1.417   1_545 S
C958   N1024   1.430   .     S
C958   N977    1.376   .     A
C958   C1217   1.417   .     S
C959   N978    1.374   .     A
C959   N1027   1.426   .     S
C959   C1474   1.417   1_545 S
C960   N1030   1.426   .     S
C960   N977    1.374   .     A
C960   C1215   1.417   .     S
C961   O983    1.289   .     A
C961   C966    1.427   .     S
C961   O986    1.297   .     A
C962   C965    1.427   .     S
C962   O985    1.297   .     A
C962   O984    1.289   .     A
C963   C973    1.406   .     A
C963   N989    1.439   .     S
C963   C965    1.395   .     A
C964   N992    1.439   .     S
C964   C974    1.407   .     A
C964   C966    1.395   .     A
C965   C967    1.394   .     A
C966   C968    1.394   .     A
C967   N995    1.439   .     S
C967   C969    1.401   .     A
C968   C970    1.401   .     A
C968   N998    1.439   .     S
C969   C975    1.412   .     A
C969   C971    1.422   .     A
C970   C972    1.422   .     A
C970   C976    1.412   .     A
C971   C973    1.426   .     A
C971   C198    1.407   1_556 S
C972   C974    1.426   .     A
C975   N1001   1.436   .     S
C975   C175    1.400   1_556 S
C976   N1004   1.436   .     S
N977   Zn987   2.036   .     S
N978   Zn988   2.036   .     S
O979   Zn987   2.001   .     S
O980   Zn988   2.001   .     S
O981   Zn987   2.024   .     S
O982   Zn988   2.024   .     S
O983   Zn987   2.013   .     S
O984   Zn988   2.013   .     S
O985   Zn987   2.017   .     S
O986   Zn988   2.017   .     S
N989   H990    1.046   .     S
N989   H991    1.043   .     S
N992   H994    1.046   .     S
N992   H993    1.043   .     S
N995   H997    1.042   .     S
N995   H996    1.045   .     S
N998   H1000   1.045   .     S
N998   H999    1.042   .     S
N1001  H1002   1.044   .     S
N1001  H1003   1.045   .     S
N1004  H1006   1.044   .     S
N1004  H1005   1.045   .     S
N1007  H1009   1.045   .     S
N1007  H1008   1.044   .     S
N1010  H1012   1.044   .     S
N1010  H1011   1.045   .     S
O1013  H1014   0.992   .     S
O1015  H1016   0.992   .     S
O1017  H1018   0.988   .     S
O1019  H1020   0.988   .     S
N1021  H1022   1.040   .     S
N1021  H1023   1.043   .     S
N1024  H1026   1.043   .     S
N1024  H1025   1.040   .     S
N1027  H1028   1.044   .     S
N1027  H1029   1.038   .     S
N1030  H1031   1.038   .     S
N1030  H1032   1.044   .     S
C1033  O1065   1.297   .     A
C1033  C1042   1.434   .     S
C1033  O1068   1.295   .     A
C1034  O1067   1.295   .     A
C1034  O1066   1.297   .     A
C1034  C1041   1.434   .     S
C1035  C1060   1.414   .     A
C1035  N1093   1.436   .     S
C1036  C1059   1.414   .     A
C1036  N1096   1.436   .     S
C1036  C288    1.400   1_556 S
C1037  O1099   1.373   .     S
C1037  C1042   1.408   .     A
C1037  C1211   1.375   1_455 S
C1038  O1101   1.373   .     S
C1038  C1041   1.408   .     A
C1038  C1126   1.375   .     S
C1039  O1103   1.383   .     S
C1039  C1041   1.412   .     A
C1039  C1123   1.375   .     S
C1040  O1105   1.383   .     S
C1040  C1042   1.412   .     A
C1040  C1210   1.375   1_455 S
C1043  N1064   1.376   .     A
C1043  N1107   1.430   .     S
C1044  N1110   1.430   .     S
C1044  N1063   1.376   .     A
C1044  C1303   1.417   .     S
C1045  N1064   1.374   .     A
C1045  N1113   1.426   .     S
C1046  N1116   1.426   .     S
C1046  N1063   1.374   .     A
C1046  C1301   1.417   .     S
C1047  O1069   1.289   .     A
C1047  C1052   1.427   .     S
C1047  O1072   1.297   .     A
C1048  C1051   1.427   .     S
C1048  O1071   1.297   .     A
C1048  O1070   1.289   .     A
C1049  C1059   1.406   .     A
C1049  N1075   1.439   .     S
C1049  C1051   1.395   .     A
C1050  N1078   1.439   .     S
C1050  C1060   1.407   .     A
C1050  C1052   1.395   .     A
C1051  C1053   1.394   .     A
C1052  C1054   1.394   .     A
C1053  N1081   1.439   .     S
C1053  C1055   1.401   .     A
C1054  C1056   1.401   .     A
C1054  N1084   1.439   .     S
C1055  C1061   1.412   .     A
C1055  C1057   1.422   .     A
C1056  C1058   1.422   .     A
C1056  C1062   1.412   .     A
C1057  C1059   1.426   .     A
C1057  C284    1.407   1_556 S
C1058  C1060   1.426   .     A
C1061  N1087   1.436   .     S
C1061  C261    1.400   1_556 S
C1062  N1090   1.436   .     S
N1063  Zn1073  2.036   .     S
N1064  Zn1074  2.036   .     S
O1065  Zn1073  2.001   .     S
O1066  Zn1074  2.001   .     S
O1067  Zn1073  2.024   .     S
O1068  Zn1074  2.024   .     S
O1069  Zn1073  2.013   .     S
O1070  Zn1074  2.013   .     S
O1071  Zn1073  2.017   .     S
O1072  Zn1074  2.017   .     S
N1075  H1076   1.046   .     S
N1075  H1077   1.043   .     S
N1078  H1080   1.046   .     S
N1078  H1079   1.043   .     S
N1081  H1083   1.042   .     S
N1081  H1082   1.045   .     S
N1084  H1086   1.045   .     S
N1084  H1085   1.042   .     S
N1087  H1088   1.044   .     S
N1087  H1089   1.045   .     S
N1090  H1092   1.044   .     S
N1090  H1091   1.045   .     S
N1093  H1095   1.045   .     S
N1093  H1094   1.044   .     S
N1096  H1098   1.044   .     S
N1096  H1097   1.045   .     S
O1099  H1100   0.992   .     S
O1101  H1102   0.992   .     S
O1103  H1104   0.988   .     S
O1105  H1106   0.988   .     S
N1107  H1108   1.040   .     S
N1107  H1109   1.043   .     S
N1110  H1112   1.043   .     S
N1110  H1111   1.040   .     S
N1113  H1114   1.044   .     S
N1113  H1115   1.038   .     S
N1116  H1117   1.038   .     S
N1116  H1118   1.044   .     S
C1119  O1151   1.297   .     A
C1119  C1128   1.434   .     S
C1119  O1154   1.295   .     A
C1120  O1153   1.295   .     A
C1120  O1152   1.297   .     A
C1120  C1127   1.434   .     S
C1121  C1146   1.414   .     A
C1121  N1179   1.436   .     S
C1122  C1145   1.414   .     A
C1122  N1182   1.436   .     S
C1122  C374    1.400   1_556 S
C1123  O1185   1.373   .     S
C1123  C1128   1.408   .     A
C1124  O1187   1.373   .     S
C1124  C1127   1.408   .     A
C1124  C1212   1.375   .     S
C1125  O1189   1.383   .     S
C1125  C1127   1.412   .     A
C1125  C1209   1.375   .     S
C1126  O1191   1.383   .     S
C1126  C1128   1.412   .     A
C1129  N1150   1.376   .     A
C1129  N1193   1.430   .     S
C1130  N1196   1.430   .     S
C1130  N1149   1.376   .     A
C1130  C1389   1.417   .     S
C1131  N1150   1.374   .     A
C1131  N1199   1.426   .     S
C1132  N1202   1.426   .     S
C1132  N1149   1.374   .     A
C1132  C1387   1.417   .     S
C1133  O1155   1.289   .     A
C1133  C1138   1.427   .     S
C1133  O1158   1.297   .     A
C1134  C1137   1.427   .     S
C1134  O1157   1.297   .     A
C1134  O1156   1.289   .     A
C1135  C1145   1.406   .     A
C1135  N1161   1.439   .     S
C1135  C1137   1.395   .     A
C1136  N1164   1.439   .     S
C1136  C1146   1.407   .     A
C1136  C1138   1.395   .     A
C1137  C1139   1.394   .     A
C1138  C1140   1.394   .     A
C1139  N1167   1.439   .     S
C1139  C1141   1.401   .     A
C1140  C1142   1.401   .     A
C1140  N1170   1.439   .     S
C1141  C1147   1.412   .     A
C1141  C1143   1.422   .     A
C1142  C1144   1.422   .     A
C1142  C1148   1.412   .     A
C1143  C1145   1.426   .     A
C1143  C370    1.407   1_556 S
C1144  C1146   1.426   .     A
C1147  N1173   1.436   .     S
C1147  C347    1.400   1_556 S
C1148  N1176   1.436   .     S
N1149  Zn1159  2.036   .     S
N1150  Zn1160  2.036   .     S
O1151  Zn1159  2.001   .     S
O1152  Zn1160  2.001   .     S
O1153  Zn1159  2.024   .     S
O1154  Zn1160  2.024   .     S
O1155  Zn1159  2.013   .     S
O1156  Zn1160  2.013   .     S
O1157  Zn1159  2.017   .     S
O1158  Zn1160  2.017   .     S
N1161  H1162   1.046   .     S
N1161  H1163   1.043   .     S
N1164  H1166   1.046   .     S
N1164  H1165   1.043   .     S
N1167  H1169   1.042   .     S
N1167  H1168   1.045   .     S
N1170  H1172   1.045   .     S
N1170  H1171   1.042   .     S
N1173  H1174   1.044   .     S
N1173  H1175   1.045   .     S
N1176  H1178   1.044   .     S
N1176  H1177   1.045   .     S
N1179  H1181   1.045   .     S
N1179  H1180   1.044   .     S
N1182  H1184   1.044   .     S
N1182  H1183   1.045   .     S
O1185  H1186   0.992   .     S
O1187  H1188   0.992   .     S
O1189  H1190   0.988   .     S
O1191  H1192   0.988   .     S
N1193  H1194   1.040   .     S
N1193  H1195   1.043   .     S
N1196  H1198   1.043   .     S
N1196  H1197   1.040   .     S
N1199  H1200   1.044   .     S
N1199  H1201   1.038   .     S
N1202  H1203   1.038   .     S
N1202  H1204   1.044   .     S
C1205  O1237   1.297   .     A
C1205  C1214   1.434   .     S
C1205  O1240   1.295   .     A
C1206  O1239   1.295   .     A
C1206  O1238   1.297   .     A
C1206  C1213   1.434   .     S
C1207  C1232   1.414   .     A
C1207  N1265   1.436   .     S
C1208  C1231   1.414   .     A
C1208  N1268   1.436   .     S
C1208  C460    1.400   1_556 S
C1209  O1271   1.373   .     S
C1209  C1214   1.408   .     A
C1210  O1273   1.373   .     S
C1210  C1213   1.408   .     A
C1210  C1040   1.375   1_655 S
C1211  O1275   1.383   .     S
C1211  C1213   1.412   .     A
C1211  C1037   1.375   1_655 S
C1212  O1277   1.383   .     S
C1212  C1214   1.412   .     A
C1215  N1236   1.376   .     A
C1215  N1279   1.430   .     S
C1216  N1282   1.430   .     S
C1216  N1235   1.376   .     A
C1216  C1475   1.417   .     S
C1217  N1236   1.374   .     A
C1217  N1285   1.426   .     S
C1218  N1288   1.426   .     S
C1218  N1235   1.374   .     A
C1218  C1473   1.417   .     S
C1219  O1241   1.289   .     A
C1219  C1224   1.427   .     S
C1219  O1244   1.297   .     A
C1220  C1223   1.427   .     S
C1220  O1243   1.297   .     A
C1220  O1242   1.289   .     A
C1221  C1231   1.406   .     A
C1221  N1247   1.439   .     S
C1221  C1223   1.395   .     A
C1222  N1250   1.439   .     S
C1222  C1232   1.407   .     A
C1222  C1224   1.395   .     A
C1223  C1225   1.394   .     A
C1224  C1226   1.394   .     A
C1225  N1253   1.439   .     S
C1225  C1227   1.401   .     A
C1226  C1228   1.401   .     A
C1226  N1256   1.439   .     S
C1227  C1233   1.412   .     A
C1227  C1229   1.422   .     A
C1228  C1230   1.422   .     A
C1228  C1234   1.412   .     A
C1229  C1231   1.426   .     A
C1229  C456    1.407   1_556 S
C1230  C1232   1.426   .     A
C1233  N1259   1.436   .     S
C1233  C433    1.400   1_556 S
C1234  N1262   1.436   .     S
N1235  Zn1245  2.036   .     S
N1236  Zn1246  2.036   .     S
O1237  Zn1245  2.001   .     S
O1238  Zn1246  2.001   .     S
O1239  Zn1245  2.024   .     S
O1240  Zn1246  2.024   .     S
O1241  Zn1245  2.013   .     S
O1242  Zn1246  2.013   .     S
O1243  Zn1245  2.017   .     S
O1244  Zn1246  2.017   .     S
N1247  H1248   1.046   .     S
N1247  H1249   1.043   .     S
N1250  H1252   1.046   .     S
N1250  H1251   1.043   .     S
N1253  H1255   1.042   .     S
N1253  H1254   1.045   .     S
N1256  H1258   1.045   .     S
N1256  H1257   1.042   .     S
N1259  H1260   1.044   .     S
N1259  H1261   1.045   .     S
N1262  H1264   1.044   .     S
N1262  H1263   1.045   .     S
N1265  H1267   1.045   .     S
N1265  H1266   1.044   .     S
N1268  H1270   1.044   .     S
N1268  H1269   1.045   .     S
O1271  H1272   0.992   .     S
O1273  H1274   0.992   .     S
O1275  H1276   0.988   .     S
O1277  H1278   0.988   .     S
N1279  H1280   1.040   .     S
N1279  H1281   1.043   .     S
N1282  H1284   1.043   .     S
N1282  H1283   1.040   .     S
N1285  H1286   1.044   .     S
N1285  H1287   1.038   .     S
N1288  H1289   1.038   .     S
N1288  H1290   1.044   .     S
C1291  O1323   1.297   .     A
C1291  C1300   1.434   .     S
C1291  O1326   1.295   .     A
C1292  O1325   1.295   .     A
C1292  O1324   1.297   .     A
C1292  C1299   1.434   .     S
C1293  C1318   1.414   .     A
C1293  N1351   1.436   .     S
C1294  C1317   1.414   .     A
C1294  N1354   1.436   .     S
C1294  C546    1.400   1_556 S
C1295  O1357   1.373   .     S
C1295  C1300   1.408   .     A
C1295  C1469   1.375   1_455 S
C1296  O1359   1.373   .     S
C1296  C1299   1.408   .     A
C1296  C1384   1.375   .     S
C1297  O1361   1.383   .     S
C1297  C1299   1.412   .     A
C1297  C1381   1.375   .     S
C1298  O1363   1.383   .     S
C1298  C1300   1.412   .     A
C1298  C1468   1.375   1_455 S
C1301  N1322   1.376   .     A
C1301  N1365   1.430   .     S
C1302  N1368   1.430   .     S
C1302  N1321   1.376   .     A
C1302  C787    1.417   1_565 S
C1303  N1322   1.374   .     A
C1303  N1371   1.426   .     S
C1304  N1374   1.426   .     S
C1304  N1321   1.374   .     A
C1304  C785    1.417   1_565 S
C1305  O1327   1.289   .     A
C1305  C1310   1.427   .     S
C1305  O1330   1.297   .     A
C1306  C1309   1.427   .     S
C1306  O1329   1.297   .     A
C1306  O1328   1.289   .     A
C1307  C1317   1.406   .     A
C1307  N1333   1.439   .     S
C1307  C1309   1.395   .     A
C1308  N1336   1.439   .     S
C1308  C1318   1.407   .     A
C1308  C1310   1.395   .     A
C1309  C1311   1.394   .     A
C1310  C1312   1.394   .     A
C1311  N1339   1.439   .     S
C1311  C1313   1.401   .     A
C1312  C1314   1.401   .     A
C1312  N1342   1.439   .     S
C1313  C1319   1.412   .     A
C1313  C1315   1.422   .     A
C1314  C1316   1.422   .     A
C1314  C1320   1.412   .     A
C1315  C1317   1.426   .     A
C1315  C542    1.407   1_556 S
C1316  C1318   1.426   .     A
C1319  N1345   1.436   .     S
C1319  C519    1.400   1_556 S
C1320  N1348   1.436   .     S
N1321  Zn1331  2.036   .     S
N1322  Zn1332  2.036   .     S
O1323  Zn1331  2.001   .     S
O1324  Zn1332  2.001   .     S
O1325  Zn1331  2.024   .     S
O1326  Zn1332  2.024   .     S
O1327  Zn1331  2.013   .     S
O1328  Zn1332  2.013   .     S
O1329  Zn1331  2.017   .     S
O1330  Zn1332  2.017   .     S
N1333  H1334   1.046   .     S
N1333  H1335   1.043   .     S
N1336  H1338   1.046   .     S
N1336  H1337   1.043   .     S
N1339  H1341   1.042   .     S
N1339  H1340   1.045   .     S
N1342  H1344   1.045   .     S
N1342  H1343   1.042   .     S
N1345  H1346   1.044   .     S
N1345  H1347   1.045   .     S
N1348  H1350   1.044   .     S
N1348  H1349   1.045   .     S
N1351  H1353   1.045   .     S
N1351  H1352   1.044   .     S
N1354  H1356   1.044   .     S
N1354  H1355   1.045   .     S
O1357  H1358   0.992   .     S
O1359  H1360   0.992   .     S
O1361  H1362   0.988   .     S
O1363  H1364   0.988   .     S
N1365  H1366   1.040   .     S
N1365  H1367   1.043   .     S
N1368  H1370   1.043   .     S
N1368  H1369   1.040   .     S
N1371  H1372   1.044   .     S
N1371  H1373   1.038   .     S
N1374  H1375   1.038   .     S
N1374  H1376   1.044   .     S
C1377  O1409   1.297   .     A
C1377  C1386   1.434   .     S
C1377  O1412   1.295   .     A
C1378  O1411   1.295   .     A
C1378  O1410   1.297   .     A
C1378  C1385   1.434   .     S
C1379  C1404   1.414   .     A
C1379  N1437   1.436   .     S
C1380  C1403   1.414   .     A
C1380  N1440   1.436   .     S
C1380  C632    1.400   1_556 S
C1381  O1443   1.373   .     S
C1381  C1386   1.408   .     A
C1382  O1445   1.373   .     S
C1382  C1385   1.408   .     A
C1382  C1470   1.375   .     S
C1383  O1447   1.383   .     S
C1383  C1385   1.412   .     A
C1383  C1467   1.375   .     S
C1384  O1449   1.383   .     S
C1384  C1386   1.412   .     A
C1387  N1408   1.376   .     A
C1387  N1451   1.430   .     S
C1388  N1454   1.430   .     S
C1388  N1407   1.376   .     A
C1388  C873    1.417   1_565 S
C1389  N1408   1.374   .     A
C1389  N1457   1.426   .     S
C1390  N1460   1.426   .     S
C1390  N1407   1.374   .     A
C1390  C871    1.417   1_565 S
C1391  O1413   1.289   .     A
C1391  C1396   1.427   .     S
C1391  O1416   1.297   .     A
C1392  C1395   1.427   .     S
C1392  O1415   1.297   .     A
C1392  O1414   1.289   .     A
C1393  C1403   1.406   .     A
C1393  N1419   1.439   .     S
C1393  C1395   1.395   .     A
C1394  N1422   1.439   .     S
C1394  C1404   1.407   .     A
C1394  C1396   1.395   .     A
C1395  C1397   1.394   .     A
C1396  C1398   1.394   .     A
C1397  N1425   1.439   .     S
C1397  C1399   1.401   .     A
C1398  C1400   1.401   .     A
C1398  N1428   1.439   .     S
C1399  C1405   1.412   .     A
C1399  C1401   1.422   .     A
C1400  C1402   1.422   .     A
C1400  C1406   1.412   .     A
C1401  C1403   1.426   .     A
C1401  C628    1.407   1_556 S
C1402  C1404   1.426   .     A
C1405  N1431   1.436   .     S
C1405  C605    1.400   1_556 S
C1406  N1434   1.436   .     S
N1407  Zn1417  2.036   .     S
N1408  Zn1418  2.036   .     S
O1409  Zn1417  2.001   .     S
O1410  Zn1418  2.001   .     S
O1411  Zn1417  2.024   .     S
O1412  Zn1418  2.024   .     S
O1413  Zn1417  2.013   .     S
O1414  Zn1418  2.013   .     S
O1415  Zn1417  2.017   .     S
O1416  Zn1418  2.017   .     S
N1419  H1420   1.046   .     S
N1419  H1421   1.043   .     S
N1422  H1424   1.046   .     S
N1422  H1423   1.043   .     S
N1425  H1427   1.042   .     S
N1425  H1426   1.045   .     S
N1428  H1430   1.045   .     S
N1428  H1429   1.042   .     S
N1431  H1432   1.044   .     S
N1431  H1433   1.045   .     S
N1434  H1436   1.044   .     S
N1434  H1435   1.045   .     S
N1437  H1439   1.045   .     S
N1437  H1438   1.044   .     S
N1440  H1442   1.044   .     S
N1440  H1441   1.045   .     S
O1443  H1444   0.992   .     S
O1445  H1446   0.992   .     S
O1447  H1448   0.988   .     S
O1449  H1450   0.988   .     S
N1451  H1452   1.040   .     S
N1451  H1453   1.043   .     S
N1454  H1456   1.043   .     S
N1454  H1455   1.040   .     S
N1457  H1458   1.044   .     S
N1457  H1459   1.038   .     S
N1460  H1461   1.038   .     S
N1460  H1462   1.044   .     S
C1463  O1495   1.297   .     A
C1463  C1472   1.434   .     S
C1463  O1498   1.295   .     A
C1464  O1497   1.295   .     A
C1464  O1496   1.297   .     A
C1464  C1471   1.434   .     S
C1465  C1490   1.414   .     A
C1465  N1523   1.436   .     S
C1466  C1489   1.414   .     A
C1466  N1526   1.436   .     S
C1466  C718    1.400   1_556 S
C1467  O1529   1.373   .     S
C1467  C1472   1.408   .     A
C1468  O1531   1.373   .     S
C1468  C1471   1.408   .     A
C1468  C1298   1.375   1_655 S
C1469  O1533   1.383   .     S
C1469  C1471   1.412   .     A
C1469  C1295   1.375   1_655 S
C1470  O1535   1.383   .     S
C1470  C1472   1.412   .     A
C1473  N1494   1.376   .     A
C1473  N1537   1.430   .     S
C1474  N1540   1.430   .     S
C1474  N1493   1.376   .     A
C1474  C959    1.417   1_565 S
C1475  N1494   1.374   .     A
C1475  N1543   1.426   .     S
C1476  N1546   1.426   .     S
C1476  N1493   1.374   .     A
C1476  C957    1.417   1_565 S
C1477  O1499   1.289   .     A
C1477  C1482   1.427   .     S
C1477  O1502   1.297   .     A
C1478  C1481   1.427   .     S
C1478  O1501   1.297   .     A
C1478  O1500   1.289   .     A
C1479  C1489   1.406   .     A
C1479  N1505   1.439   .     S
C1479  C1481   1.395   .     A
C1480  N1508   1.439   .     S
C1480  C1490   1.407   .     A
C1480  C1482   1.395   .     A
C1481  C1483   1.394   .     A
C1482  C1484   1.394   .     A
C1483  N1511   1.439   .     S
C1483  C1485   1.401   .     A
C1484  C1486   1.401   .     A
C1484  N1514   1.439   .     S
C1485  C1491   1.412   .     A
C1485  C1487   1.422   .     A
C1486  C1488   1.422   .     A
C1486  C1492   1.412   .     A
C1487  C1489   1.426   .     A
C1487  C714    1.407   1_556 S
C1488  C1490   1.426   .     A
C1491  N1517   1.436   .     S
C1491  C691    1.400   1_556 S
C1492  N1520   1.436   .     S
N1493  Zn1503  2.036   .     S
N1494  Zn1504  2.036   .     S
O1495  Zn1503  2.001   .     S
O1496  Zn1504  2.001   .     S
O1497  Zn1503  2.024   .     S
O1498  Zn1504  2.024   .     S
O1499  Zn1503  2.013   .     S
O1500  Zn1504  2.013   .     S
O1501  Zn1503  2.017   .     S
O1502  Zn1504  2.017   .     S
N1505  H1506   1.046   .     S
N1505  H1507   1.043   .     S
N1508  H1510   1.046   .     S
N1508  H1509   1.043   .     S
N1511  H1513   1.042   .     S
N1511  H1512   1.045   .     S
N1514  H1516   1.045   .     S
N1514  H1515   1.042   .     S
N1517  H1518   1.044   .     S
N1517  H1519   1.045   .     S
N1520  H1522   1.044   .     S
N1520  H1521   1.045   .     S
N1523  H1525   1.045   .     S
N1523  H1524   1.044   .     S
N1526  H1528   1.044   .     S
N1526  H1527   1.045   .     S
O1529  H1530   0.992   .     S
O1531  H1532   0.992   .     S
O1533  H1534   0.988   .     S
O1535  H1536   0.988   .     S
N1537  H1538   1.040   .     S
N1537  H1539   1.043   .     S
N1540  H1542   1.043   .     S
N1540  H1541   1.040   .     S
N1543  H1544   1.044   .     S
N1543  H1545   1.038   .     S
N1546  H1547   1.038   .     S
N1546  H1548   1.044   .     S
