data_str_m3_o1_o10_pcu_sym.63
_audit_creation_date              2020-01-03
_audit_creation_method            'Materials Studio'
_symmetry_space_group_name_H-M    'P1'
_symmetry_Int_Tables_number       1
_symmetry_cell_setting            triclinic
loop_
_symmetry_equiv_pos_as_xyz
  x,y,z
_cell_length_a                    26.1417
_cell_length_b                    32.0454
_cell_length_c                    29.5226
_cell_angle_alpha                 90.3259
_cell_angle_beta                  98.5913
_cell_angle_gamma                 90.8355
loop_
_atom_site_label
_atom_site_type_symbol
_atom_site_fract_x
_atom_site_fract_y
_atom_site_fract_z
_atom_site_U_iso_or_equiv
_atom_site_adp_type
_atom_site_occupancy
C1     C     0.16644   0.08683   0.16648   0.00000  Uiso   1.00
C2     C     0.20679   0.02240   0.19438   0.00000  Uiso   1.00
C3     C     0.16657   0.29068   0.16710   0.00000  Uiso   1.00
C4     C     0.16676   0.04265   0.16623   0.00000  Uiso   1.00
C5     C     0.20009   0.19195   0.02854   0.00000  Uiso   1.00
C6     C     0.13325   0.14138   0.30479   0.00000  Uiso   1.00
C7     C     0.20010   0.19192   0.31391   0.00000  Uiso   1.00
C8     C     0.13324   0.14141   0.01942   0.00000  Uiso   1.00
C9     C     0.32294   0.14356   0.10526   0.00000  Uiso   1.00
C10    C     0.01039   0.18977   0.22808   0.00000  Uiso   1.00
C11    C     0.08567   0.04255   0.10977   0.00000  Uiso   1.00
C12    C     0.16690   0.24651   0.16685   0.00000  Uiso   1.00
C13    C     0.24767   0.29078   0.22356   0.00000  Uiso   1.00
C14    C     0.08444   0.28742   0.11203   0.00000  Uiso   1.00
C15    C     0.24889   0.04591   0.22131   0.00000  Uiso   1.00
C16    C     0.06727   0.16652   0.15486   0.00000  Uiso   1.00
C17    C     0.26606   0.16681   0.17847   0.00000  Uiso   1.00
C18    C     0.01292   0.16205   0.14896   0.00000  Uiso   1.00
C19    C     0.32041   0.17129   0.18438   0.00000  Uiso   1.00
C20    C     0.12681   0.02080   0.13831   0.00000  Uiso   1.00
C21    C     0.20652   0.31253   0.19502   0.00000  Uiso   1.00
C22    C     0.12654   0.31093   0.13895   0.00000  Uiso   1.00
H23    H     0.22684   0.21214   0.05037   0.00000  Uiso   1.00
H24    H     0.10649   0.12119   0.28297   0.00000  Uiso   1.00
H25    H     0.22684   0.21209   0.29939   0.00000  Uiso   1.00
H26    H     0.10649   0.12125   0.03395   0.00000  Uiso   1.00
N27    N     0.16665   0.16666   0.28573   0.00000  Uiso   1.00
N28    N     0.16668   0.16668   0.04760   0.00000  Uiso   1.00
N29    N     0.30453   0.12904   0.07052   0.00000  Uiso   1.00
N30    N     0.02881   0.20429   0.26281   0.00000  Uiso   1.00
N31    N     0.05289   0.05968   0.08685   0.00000  Uiso   1.00
N32    N     0.28044   0.27366   0.24648   0.00000  Uiso   1.00
N33    N     0.05095   0.26870   0.09066   0.00000  Uiso   1.00
N34    N     0.28238   0.06463   0.24268   0.00000  Uiso   1.00
O35    O     0.16666   0.10558   0.20487   0.00000  Uiso   1.00
O36    O     0.16667   0.22775   0.12846   0.00000  Uiso   1.00
O37    O     0.16666   0.10559   0.12843   0.00000  Uiso   1.00
O38    O     0.16667   0.22774   0.20490   0.00000  Uiso   1.00
O39    O     0.09058   0.16666   0.19595   0.00000  Uiso   1.00
O40    O     0.24275   0.16667   0.13739   0.00000  Uiso   1.00
O41    O     0.09058   0.16667   0.11950   0.00000  Uiso   1.00
O42    O     0.24275   0.16666   0.21383   0.00000  Uiso   1.00
Zn43   Zn    0.16667   0.16666   0.21771   0.00000  Uiso   1.00
Zn44   Zn    0.16667   0.16667   0.11563   0.00000  Uiso   1.00
C45    C     0.49977   0.08683   0.16648   0.00000  Uiso   1.00
C46    C     0.54012   0.02240   0.19438   0.00000  Uiso   1.00
C47    C     0.49990   0.29068   0.16710   0.00000  Uiso   1.00
C48    C     0.50010   0.04265   0.16623   0.00000  Uiso   1.00
C49    C     0.53342   0.19195   0.02854   0.00000  Uiso   1.00
C50    C     0.46658   0.14138   0.30479   0.00000  Uiso   1.00
C51    C     0.53343   0.19192   0.31391   0.00000  Uiso   1.00
C52    C     0.46657   0.14141   0.01942   0.00000  Uiso   1.00
C53    C     0.65628   0.14356   0.10526   0.00000  Uiso   1.00
C54    C     0.34372   0.18977   0.22808   0.00000  Uiso   1.00
C55    C     0.41900   0.04255   0.10977   0.00000  Uiso   1.00
C56    C     0.50023   0.24651   0.16685   0.00000  Uiso   1.00
C57    C     0.58100   0.29078   0.22356   0.00000  Uiso   1.00
C58    C     0.41777   0.28742   0.11203   0.00000  Uiso   1.00
C59    C     0.58223   0.04591   0.22131   0.00000  Uiso   1.00
C60    C     0.40060   0.16652   0.15486   0.00000  Uiso   1.00
C61    C     0.59940   0.16681   0.17847   0.00000  Uiso   1.00
C62    C     0.34626   0.16205   0.14896   0.00000  Uiso   1.00
C63    C     0.65375   0.17129   0.18438   0.00000  Uiso   1.00
C64    C     0.46014   0.02080   0.13831   0.00000  Uiso   1.00
C65    C     0.53986   0.31253   0.19502   0.00000  Uiso   1.00
C66    C     0.45988   0.31093   0.13895   0.00000  Uiso   1.00
H67    H     0.56017   0.21214   0.05037   0.00000  Uiso   1.00
H68    H     0.43983   0.12119   0.28297   0.00000  Uiso   1.00
H69    H     0.56017   0.21209   0.29939   0.00000  Uiso   1.00
H70    H     0.43983   0.12125   0.03395   0.00000  Uiso   1.00
N71    N     0.49999   0.16666   0.28573   0.00000  Uiso   1.00
N72    N     0.50001   0.16668   0.04760   0.00000  Uiso   1.00
N73    N     0.63786   0.12904   0.07052   0.00000  Uiso   1.00
N74    N     0.36214   0.20429   0.26281   0.00000  Uiso   1.00
N75    N     0.38623   0.05968   0.08685   0.00000  Uiso   1.00
N76    N     0.61377   0.27366   0.24648   0.00000  Uiso   1.00
N77    N     0.38429   0.26870   0.09066   0.00000  Uiso   1.00
N78    N     0.61571   0.06463   0.24268   0.00000  Uiso   1.00
O79    O     0.50000   0.10558   0.20487   0.00000  Uiso   1.00
O80    O     0.50000   0.22775   0.12846   0.00000  Uiso   1.00
O81    O     0.50000   0.10559   0.12843   0.00000  Uiso   1.00
O82    O     0.50000   0.22774   0.20490   0.00000  Uiso   1.00
O83    O     0.42392   0.16666   0.19595   0.00000  Uiso   1.00
O84    O     0.57608   0.16667   0.13739   0.00000  Uiso   1.00
O85    O     0.42392   0.16667   0.11950   0.00000  Uiso   1.00
O86    O     0.57608   0.16666   0.21383   0.00000  Uiso   1.00
Zn87   Zn    0.50000   0.16666   0.21771   0.00000  Uiso   1.00
Zn88   Zn    0.50000   0.16667   0.11563   0.00000  Uiso   1.00
C89    C     0.83310   0.08683   0.16648   0.00000  Uiso   1.00
C90    C     0.87346   0.02240   0.19438   0.00000  Uiso   1.00
C91    C     0.83324   0.29068   0.16710   0.00000  Uiso   1.00
C92    C     0.83343   0.04265   0.16623   0.00000  Uiso   1.00
C93    C     0.86675   0.19195   0.02854   0.00000  Uiso   1.00
C94    C     0.79991   0.14138   0.30479   0.00000  Uiso   1.00
C95    C     0.86676   0.19192   0.31391   0.00000  Uiso   1.00
C96    C     0.79990   0.14141   0.01942   0.00000  Uiso   1.00
C97    C     0.98961   0.14356   0.10526   0.00000  Uiso   1.00
C98    C     0.67706   0.18977   0.22808   0.00000  Uiso   1.00
C99    C     0.75233   0.04255   0.10977   0.00000  Uiso   1.00
C100   C     0.83356   0.24651   0.16685   0.00000  Uiso   1.00
C101   C     0.91433   0.29078   0.22356   0.00000  Uiso   1.00
C102   C     0.75111   0.28742   0.11203   0.00000  Uiso   1.00
C103   C     0.91556   0.04591   0.22131   0.00000  Uiso   1.00
C104   C     0.73394   0.16652   0.15486   0.00000  Uiso   1.00
C105   C     0.93273   0.16681   0.17847   0.00000  Uiso   1.00
C106   C     0.67959   0.16205   0.14896   0.00000  Uiso   1.00
C107   C     0.98708   0.17129   0.18438   0.00000  Uiso   1.00
C108   C     0.79348   0.02080   0.13831   0.00000  Uiso   1.00
C109   C     0.87319   0.31253   0.19502   0.00000  Uiso   1.00
C110   C     0.79321   0.31093   0.13895   0.00000  Uiso   1.00
H111   H     0.89351   0.21214   0.05037   0.00000  Uiso   1.00
H112   H     0.77316   0.12119   0.28297   0.00000  Uiso   1.00
H113   H     0.89351   0.21209   0.29939   0.00000  Uiso   1.00
H114   H     0.77316   0.12125   0.03395   0.00000  Uiso   1.00
N115   N     0.83332   0.16666   0.28573   0.00000  Uiso   1.00
N116   N     0.83335   0.16668   0.04760   0.00000  Uiso   1.00
N117   N     0.97119   0.12904   0.07052   0.00000  Uiso   1.00
N118   N     0.69547   0.20429   0.26281   0.00000  Uiso   1.00
N119   N     0.71956   0.05968   0.08685   0.00000  Uiso   1.00
N120   N     0.94711   0.27366   0.24648   0.00000  Uiso   1.00
N121   N     0.71762   0.26870   0.09066   0.00000  Uiso   1.00
N122   N     0.94905   0.06463   0.24268   0.00000  Uiso   1.00
O123   O     0.83333   0.10558   0.20487   0.00000  Uiso   1.00
O124   O     0.83334   0.22775   0.12846   0.00000  Uiso   1.00
O125   O     0.83333   0.10559   0.12843   0.00000  Uiso   1.00
O126   O     0.83334   0.22774   0.20490   0.00000  Uiso   1.00
O127   O     0.75725   0.16666   0.19595   0.00000  Uiso   1.00
O128   O     0.90942   0.16667   0.13739   0.00000  Uiso   1.00
O129   O     0.75725   0.16667   0.11950   0.00000  Uiso   1.00
O130   O     0.90942   0.16666   0.21383   0.00000  Uiso   1.00
Zn131  Zn    0.83333   0.16666   0.21771   0.00000  Uiso   1.00
Zn132  Zn    0.83333   0.16667   0.11563   0.00000  Uiso   1.00
C133   C     0.16644   0.42016   0.16648   0.00000  Uiso   1.00
C134   C     0.20679   0.35574   0.19438   0.00000  Uiso   1.00
C135   C     0.16657   0.62402   0.16710   0.00000  Uiso   1.00
C136   C     0.16676   0.37598   0.16623   0.00000  Uiso   1.00
C137   C     0.20009   0.52529   0.02854   0.00000  Uiso   1.00
C138   C     0.13325   0.47471   0.30479   0.00000  Uiso   1.00
C139   C     0.20010   0.52526   0.31391   0.00000  Uiso   1.00
C140   C     0.13324   0.47474   0.01942   0.00000  Uiso   1.00
C141   C     0.32294   0.47690   0.10526   0.00000  Uiso   1.00
C142   C     0.01039   0.52310   0.22808   0.00000  Uiso   1.00
C143   C     0.08567   0.37588   0.10977   0.00000  Uiso   1.00
C144   C     0.16690   0.57984   0.16685   0.00000  Uiso   1.00
C145   C     0.24767   0.62412   0.22356   0.00000  Uiso   1.00
C146   C     0.08444   0.62075   0.11203   0.00000  Uiso   1.00
C147   C     0.24889   0.37925   0.22131   0.00000  Uiso   1.00
C148   C     0.06727   0.49986   0.15486   0.00000  Uiso   1.00
C149   C     0.26606   0.50014   0.17847   0.00000  Uiso   1.00
C150   C     0.01292   0.49538   0.14896   0.00000  Uiso   1.00
C151   C     0.32041   0.50462   0.18438   0.00000  Uiso   1.00
C152   C     0.12681   0.35414   0.13831   0.00000  Uiso   1.00
C153   C     0.20652   0.64586   0.19502   0.00000  Uiso   1.00
C154   C     0.12654   0.64426   0.13895   0.00000  Uiso   1.00
H155   H     0.22684   0.54548   0.05037   0.00000  Uiso   1.00
H156   H     0.10649   0.45452   0.28297   0.00000  Uiso   1.00
H157   H     0.22684   0.54542   0.29939   0.00000  Uiso   1.00
H158   H     0.10649   0.45458   0.03395   0.00000  Uiso   1.00
N159   N     0.16665   0.49999   0.28573   0.00000  Uiso   1.00
N160   N     0.16668   0.50001   0.04760   0.00000  Uiso   1.00
N161   N     0.30453   0.46237   0.07052   0.00000  Uiso   1.00
N162   N     0.02881   0.53763   0.26281   0.00000  Uiso   1.00
N163   N     0.05289   0.39301   0.08685   0.00000  Uiso   1.00
N164   N     0.28044   0.60699   0.24648   0.00000  Uiso   1.00
N165   N     0.05095   0.60203   0.09066   0.00000  Uiso   1.00
N166   N     0.28238   0.39797   0.24268   0.00000  Uiso   1.00
O167   O     0.16666   0.43892   0.20487   0.00000  Uiso   1.00
O168   O     0.16667   0.56108   0.12846   0.00000  Uiso   1.00
O169   O     0.16666   0.43893   0.12843   0.00000  Uiso   1.00
O170   O     0.16667   0.56107   0.20490   0.00000  Uiso   1.00
O171   O     0.09058   0.50000   0.19595   0.00000  Uiso   1.00
O172   O     0.24275   0.50000   0.13739   0.00000  Uiso   1.00
O173   O     0.09058   0.50000   0.11950   0.00000  Uiso   1.00
O174   O     0.24275   0.50000   0.21383   0.00000  Uiso   1.00
Zn175  Zn    0.16667   0.49999   0.21771   0.00000  Uiso   1.00
Zn176  Zn    0.16667   0.50001   0.11563   0.00000  Uiso   1.00
C177   C     0.49977   0.42016   0.16648   0.00000  Uiso   1.00
C178   C     0.54012   0.35574   0.19438   0.00000  Uiso   1.00
C179   C     0.49990   0.62402   0.16710   0.00000  Uiso   1.00
C180   C     0.50010   0.37598   0.16623   0.00000  Uiso   1.00
C181   C     0.53342   0.52529   0.02854   0.00000  Uiso   1.00
C182   C     0.46658   0.47471   0.30479   0.00000  Uiso   1.00
C183   C     0.53343   0.52526   0.31391   0.00000  Uiso   1.00
C184   C     0.46657   0.47474   0.01942   0.00000  Uiso   1.00
C185   C     0.65628   0.47690   0.10526   0.00000  Uiso   1.00
C186   C     0.34372   0.52310   0.22808   0.00000  Uiso   1.00
C187   C     0.41900   0.37588   0.10977   0.00000  Uiso   1.00
C188   C     0.50023   0.57984   0.16685   0.00000  Uiso   1.00
C189   C     0.58100   0.62412   0.22356   0.00000  Uiso   1.00
C190   C     0.41777   0.62075   0.11203   0.00000  Uiso   1.00
C191   C     0.58223   0.37925   0.22131   0.00000  Uiso   1.00
C192   C     0.40060   0.49986   0.15486   0.00000  Uiso   1.00
C193   C     0.59940   0.50014   0.17847   0.00000  Uiso   1.00
C194   C     0.34626   0.49538   0.14896   0.00000  Uiso   1.00
C195   C     0.65375   0.50462   0.18438   0.00000  Uiso   1.00
C196   C     0.46014   0.35414   0.13831   0.00000  Uiso   1.00
C197   C     0.53986   0.64586   0.19502   0.00000  Uiso   1.00
C198   C     0.45988   0.64426   0.13895   0.00000  Uiso   1.00
H199   H     0.56017   0.54548   0.05037   0.00000  Uiso   1.00
H200   H     0.43983   0.45452   0.28297   0.00000  Uiso   1.00
H201   H     0.56017   0.54542   0.29939   0.00000  Uiso   1.00
H202   H     0.43983   0.45458   0.03395   0.00000  Uiso   1.00
N203   N     0.49999   0.49999   0.28573   0.00000  Uiso   1.00
N204   N     0.50001   0.50001   0.04760   0.00000  Uiso   1.00
N205   N     0.63786   0.46237   0.07052   0.00000  Uiso   1.00
N206   N     0.36214   0.53763   0.26281   0.00000  Uiso   1.00
N207   N     0.38623   0.39301   0.08685   0.00000  Uiso   1.00
N208   N     0.61377   0.60699   0.24648   0.00000  Uiso   1.00
N209   N     0.38429   0.60203   0.09066   0.00000  Uiso   1.00
N210   N     0.61571   0.39797   0.24268   0.00000  Uiso   1.00
O211   O     0.50000   0.43892   0.20487   0.00000  Uiso   1.00
O212   O     0.50000   0.56108   0.12846   0.00000  Uiso   1.00
O213   O     0.50000   0.43893   0.12843   0.00000  Uiso   1.00
O214   O     0.50000   0.56107   0.20490   0.00000  Uiso   1.00
O215   O     0.42392   0.50000   0.19595   0.00000  Uiso   1.00
O216   O     0.57608   0.50000   0.13739   0.00000  Uiso   1.00
O217   O     0.42392   0.50000   0.11950   0.00000  Uiso   1.00
O218   O     0.57608   0.50000   0.21383   0.00000  Uiso   1.00
Zn219  Zn    0.50000   0.49999   0.21771   0.00000  Uiso   1.00
Zn220  Zn    0.50000   0.50001   0.11563   0.00000  Uiso   1.00
C221   C     0.83310   0.42016   0.16648   0.00000  Uiso   1.00
C222   C     0.87346   0.35574   0.19438   0.00000  Uiso   1.00
C223   C     0.83324   0.62402   0.16710   0.00000  Uiso   1.00
C224   C     0.83343   0.37598   0.16623   0.00000  Uiso   1.00
C225   C     0.86675   0.52529   0.02854   0.00000  Uiso   1.00
C226   C     0.79991   0.47471   0.30479   0.00000  Uiso   1.00
C227   C     0.86676   0.52526   0.31391   0.00000  Uiso   1.00
C228   C     0.79990   0.47474   0.01942   0.00000  Uiso   1.00
C229   C     0.98961   0.47690   0.10526   0.00000  Uiso   1.00
C230   C     0.67706   0.52310   0.22808   0.00000  Uiso   1.00
C231   C     0.75233   0.37588   0.10977   0.00000  Uiso   1.00
C232   C     0.83356   0.57984   0.16685   0.00000  Uiso   1.00
C233   C     0.91433   0.62412   0.22356   0.00000  Uiso   1.00
C234   C     0.75111   0.62075   0.11203   0.00000  Uiso   1.00
C235   C     0.91556   0.37925   0.22131   0.00000  Uiso   1.00
C236   C     0.73394   0.49986   0.15486   0.00000  Uiso   1.00
C237   C     0.93273   0.50014   0.17847   0.00000  Uiso   1.00
C238   C     0.67959   0.49538   0.14896   0.00000  Uiso   1.00
C239   C     0.98708   0.50462   0.18438   0.00000  Uiso   1.00
C240   C     0.79348   0.35414   0.13831   0.00000  Uiso   1.00
C241   C     0.87319   0.64586   0.19502   0.00000  Uiso   1.00
C242   C     0.79321   0.64426   0.13895   0.00000  Uiso   1.00
H243   H     0.89351   0.54548   0.05037   0.00000  Uiso   1.00
H244   H     0.77316   0.45452   0.28297   0.00000  Uiso   1.00
H245   H     0.89351   0.54542   0.29939   0.00000  Uiso   1.00
H246   H     0.77316   0.45458   0.03395   0.00000  Uiso   1.00
N247   N     0.83332   0.49999   0.28573   0.00000  Uiso   1.00
N248   N     0.83335   0.50001   0.04760   0.00000  Uiso   1.00
N249   N     0.97119   0.46237   0.07052   0.00000  Uiso   1.00
N250   N     0.69547   0.53763   0.26281   0.00000  Uiso   1.00
N251   N     0.71956   0.39301   0.08685   0.00000  Uiso   1.00
N252   N     0.94711   0.60699   0.24648   0.00000  Uiso   1.00
N253   N     0.71762   0.60203   0.09066   0.00000  Uiso   1.00
N254   N     0.94905   0.39797   0.24268   0.00000  Uiso   1.00
O255   O     0.83333   0.43892   0.20487   0.00000  Uiso   1.00
O256   O     0.83334   0.56108   0.12846   0.00000  Uiso   1.00
O257   O     0.83333   0.43893   0.12843   0.00000  Uiso   1.00
O258   O     0.83334   0.56107   0.20490   0.00000  Uiso   1.00
O259   O     0.75725   0.50000   0.19595   0.00000  Uiso   1.00
O260   O     0.90942   0.50000   0.13739   0.00000  Uiso   1.00
O261   O     0.75725   0.50000   0.11950   0.00000  Uiso   1.00
O262   O     0.90942   0.50000   0.21383   0.00000  Uiso   1.00
Zn263  Zn    0.83333   0.49999   0.21771   0.00000  Uiso   1.00
Zn264  Zn    0.83333   0.50001   0.11563   0.00000  Uiso   1.00
C265   C     0.16644   0.75349   0.16648   0.00000  Uiso   1.00
C266   C     0.20679   0.68907   0.19438   0.00000  Uiso   1.00
C267   C     0.16657   0.95735   0.16710   0.00000  Uiso   1.00
C268   C     0.16676   0.70932   0.16623   0.00000  Uiso   1.00
C269   C     0.20009   0.85862   0.02854   0.00000  Uiso   1.00
C270   C     0.13325   0.80805   0.30479   0.00000  Uiso   1.00
C271   C     0.20010   0.85859   0.31391   0.00000  Uiso   1.00
C272   C     0.13324   0.80808   0.01942   0.00000  Uiso   1.00
C273   C     0.32294   0.81023   0.10526   0.00000  Uiso   1.00
C274   C     0.01039   0.85644   0.22808   0.00000  Uiso   1.00
C275   C     0.08567   0.70922   0.10977   0.00000  Uiso   1.00
C276   C     0.16690   0.91317   0.16685   0.00000  Uiso   1.00
C277   C     0.24767   0.95745   0.22356   0.00000  Uiso   1.00
C278   C     0.08444   0.95409   0.11203   0.00000  Uiso   1.00
C279   C     0.24889   0.71258   0.22131   0.00000  Uiso   1.00
C280   C     0.06727   0.83319   0.15486   0.00000  Uiso   1.00
C281   C     0.26606   0.83348   0.17847   0.00000  Uiso   1.00
C282   C     0.01292   0.82871   0.14896   0.00000  Uiso   1.00
C283   C     0.32041   0.83795   0.18438   0.00000  Uiso   1.00
C284   C     0.12681   0.68747   0.13831   0.00000  Uiso   1.00
C285   C     0.20652   0.97920   0.19502   0.00000  Uiso   1.00
C286   C     0.12654   0.97760   0.13895   0.00000  Uiso   1.00
H287   H     0.22684   0.87881   0.05037   0.00000  Uiso   1.00
H288   H     0.10649   0.78786   0.28297   0.00000  Uiso   1.00
H289   H     0.22684   0.87875   0.29939   0.00000  Uiso   1.00
H290   H     0.10649   0.78791   0.03395   0.00000  Uiso   1.00
N291   N     0.16665   0.83332   0.28573   0.00000  Uiso   1.00
N292   N     0.16668   0.83334   0.04760   0.00000  Uiso   1.00
N293   N     0.30453   0.79571   0.07052   0.00000  Uiso   1.00
N294   N     0.02881   0.87096   0.26281   0.00000  Uiso   1.00
N295   N     0.05289   0.72634   0.08685   0.00000  Uiso   1.00
N296   N     0.28044   0.94032   0.24648   0.00000  Uiso   1.00
N297   N     0.05095   0.93536   0.09066   0.00000  Uiso   1.00
N298   N     0.28238   0.73130   0.24268   0.00000  Uiso   1.00
O299   O     0.16666   0.77225   0.20487   0.00000  Uiso   1.00
O300   O     0.16667   0.89442   0.12846   0.00000  Uiso   1.00
O301   O     0.16666   0.77226   0.12843   0.00000  Uiso   1.00
O302   O     0.16667   0.89441   0.20490   0.00000  Uiso   1.00
O303   O     0.09058   0.83333   0.19595   0.00000  Uiso   1.00
O304   O     0.24275   0.83334   0.13739   0.00000  Uiso   1.00
O305   O     0.09058   0.83334   0.11950   0.00000  Uiso   1.00
O306   O     0.24275   0.83333   0.21383   0.00000  Uiso   1.00
Zn307  Zn    0.16667   0.83333   0.21771   0.00000  Uiso   1.00
Zn308  Zn    0.16667   0.83334   0.11563   0.00000  Uiso   1.00
C309   C     0.49977   0.75349   0.16648   0.00000  Uiso   1.00
C310   C     0.54012   0.68907   0.19438   0.00000  Uiso   1.00
C311   C     0.49990   0.95735   0.16710   0.00000  Uiso   1.00
C312   C     0.50010   0.70932   0.16623   0.00000  Uiso   1.00
C313   C     0.53342   0.85862   0.02854   0.00000  Uiso   1.00
C314   C     0.46658   0.80805   0.30479   0.00000  Uiso   1.00
C315   C     0.53343   0.85859   0.31391   0.00000  Uiso   1.00
C316   C     0.46657   0.80808   0.01942   0.00000  Uiso   1.00
C317   C     0.65628   0.81023   0.10526   0.00000  Uiso   1.00
C318   C     0.34372   0.85644   0.22808   0.00000  Uiso   1.00
C319   C     0.41900   0.70922   0.10977   0.00000  Uiso   1.00
C320   C     0.50023   0.91317   0.16685   0.00000  Uiso   1.00
C321   C     0.58100   0.95745   0.22356   0.00000  Uiso   1.00
C322   C     0.41777   0.95409   0.11203   0.00000  Uiso   1.00
C323   C     0.58223   0.71258   0.22131   0.00000  Uiso   1.00
C324   C     0.40060   0.83319   0.15486   0.00000  Uiso   1.00
C325   C     0.59940   0.83348   0.17847   0.00000  Uiso   1.00
C326   C     0.34626   0.82871   0.14896   0.00000  Uiso   1.00
C327   C     0.65375   0.83795   0.18438   0.00000  Uiso   1.00
C328   C     0.46014   0.68747   0.13831   0.00000  Uiso   1.00
C329   C     0.53986   0.97920   0.19502   0.00000  Uiso   1.00
C330   C     0.45988   0.97760   0.13895   0.00000  Uiso   1.00
H331   H     0.56017   0.87881   0.05037   0.00000  Uiso   1.00
H332   H     0.43983   0.78786   0.28297   0.00000  Uiso   1.00
H333   H     0.56017   0.87875   0.29939   0.00000  Uiso   1.00
H334   H     0.43983   0.78791   0.03395   0.00000  Uiso   1.00
N335   N     0.49999   0.83332   0.28573   0.00000  Uiso   1.00
N336   N     0.50001   0.83334   0.04760   0.00000  Uiso   1.00
N337   N     0.63786   0.79571   0.07052   0.00000  Uiso   1.00
N338   N     0.36214   0.87096   0.26281   0.00000  Uiso   1.00
N339   N     0.38623   0.72634   0.08685   0.00000  Uiso   1.00
N340   N     0.61377   0.94032   0.24648   0.00000  Uiso   1.00
N341   N     0.38429   0.93536   0.09066   0.00000  Uiso   1.00
N342   N     0.61571   0.73130   0.24268   0.00000  Uiso   1.00
O343   O     0.50000   0.77225   0.20487   0.00000  Uiso   1.00
O344   O     0.50000   0.89442   0.12846   0.00000  Uiso   1.00
O345   O     0.50000   0.77226   0.12843   0.00000  Uiso   1.00
O346   O     0.50000   0.89441   0.20490   0.00000  Uiso   1.00
O347   O     0.42392   0.83333   0.19595   0.00000  Uiso   1.00
O348   O     0.57608   0.83334   0.13739   0.00000  Uiso   1.00
O349   O     0.42392   0.83334   0.11950   0.00000  Uiso   1.00
O350   O     0.57608   0.83333   0.21383   0.00000  Uiso   1.00
Zn351  Zn    0.50000   0.83333   0.21771   0.00000  Uiso   1.00
Zn352  Zn    0.50000   0.83334   0.11563   0.00000  Uiso   1.00
C353   C     0.83310   0.75349   0.16648   0.00000  Uiso   1.00
C354   C     0.87346   0.68907   0.19438   0.00000  Uiso   1.00
C355   C     0.83324   0.95735   0.16710   0.00000  Uiso   1.00
C356   C     0.83343   0.70932   0.16623   0.00000  Uiso   1.00
C357   C     0.86675   0.85862   0.02854   0.00000  Uiso   1.00
C358   C     0.79991   0.80805   0.30479   0.00000  Uiso   1.00
C359   C     0.86676   0.85859   0.31391   0.00000  Uiso   1.00
C360   C     0.79990   0.80808   0.01942   0.00000  Uiso   1.00
C361   C     0.98961   0.81023   0.10526   0.00000  Uiso   1.00
C362   C     0.67706   0.85644   0.22808   0.00000  Uiso   1.00
C363   C     0.75233   0.70922   0.10977   0.00000  Uiso   1.00
C364   C     0.83356   0.91317   0.16685   0.00000  Uiso   1.00
C365   C     0.91433   0.95745   0.22356   0.00000  Uiso   1.00
C366   C     0.75111   0.95409   0.11203   0.00000  Uiso   1.00
C367   C     0.91556   0.71258   0.22131   0.00000  Uiso   1.00
C368   C     0.73394   0.83319   0.15486   0.00000  Uiso   1.00
C369   C     0.93273   0.83348   0.17847   0.00000  Uiso   1.00
C370   C     0.67959   0.82871   0.14896   0.00000  Uiso   1.00
C371   C     0.98708   0.83795   0.18438   0.00000  Uiso   1.00
C372   C     0.79348   0.68747   0.13831   0.00000  Uiso   1.00
C373   C     0.87319   0.97920   0.19502   0.00000  Uiso   1.00
C374   C     0.79321   0.97760   0.13895   0.00000  Uiso   1.00
H375   H     0.89351   0.87881   0.05037   0.00000  Uiso   1.00
H376   H     0.77316   0.78786   0.28297   0.00000  Uiso   1.00
H377   H     0.89351   0.87875   0.29939   0.00000  Uiso   1.00
H378   H     0.77316   0.78791   0.03395   0.00000  Uiso   1.00
N379   N     0.83332   0.83332   0.28573   0.00000  Uiso   1.00
N380   N     0.83335   0.83334   0.04760   0.00000  Uiso   1.00
N381   N     0.97119   0.79571   0.07052   0.00000  Uiso   1.00
N382   N     0.69547   0.87096   0.26281   0.00000  Uiso   1.00
N383   N     0.71956   0.72634   0.08685   0.00000  Uiso   1.00
N384   N     0.94711   0.94032   0.24648   0.00000  Uiso   1.00
N385   N     0.71762   0.93536   0.09066   0.00000  Uiso   1.00
N386   N     0.94905   0.73130   0.24268   0.00000  Uiso   1.00
O387   O     0.83333   0.77225   0.20487   0.00000  Uiso   1.00
O388   O     0.83334   0.89442   0.12846   0.00000  Uiso   1.00
O389   O     0.83333   0.77226   0.12843   0.00000  Uiso   1.00
O390   O     0.83334   0.89441   0.20490   0.00000  Uiso   1.00
O391   O     0.75725   0.83333   0.19595   0.00000  Uiso   1.00
O392   O     0.90942   0.83334   0.13739   0.00000  Uiso   1.00
O393   O     0.75725   0.83334   0.11950   0.00000  Uiso   1.00
O394   O     0.90942   0.83333   0.21383   0.00000  Uiso   1.00
Zn395  Zn    0.83333   0.83333   0.21771   0.00000  Uiso   1.00
Zn396  Zn    0.83333   0.83334   0.11563   0.00000  Uiso   1.00
C397   C     0.16644   0.08683   0.49981   0.00000  Uiso   1.00
C398   C     0.20679   0.02240   0.52771   0.00000  Uiso   1.00
C399   C     0.16657   0.29068   0.50044   0.00000  Uiso   1.00
C400   C     0.16676   0.04265   0.49956   0.00000  Uiso   1.00
C401   C     0.20009   0.19195   0.36188   0.00000  Uiso   1.00
C402   C     0.13325   0.14138   0.63813   0.00000  Uiso   1.00
C403   C     0.20010   0.19192   0.64725   0.00000  Uiso   1.00
C404   C     0.13324   0.14141   0.35275   0.00000  Uiso   1.00
C405   C     0.32294   0.14356   0.43859   0.00000  Uiso   1.00
C406   C     0.01039   0.18977   0.56141   0.00000  Uiso   1.00
C407   C     0.08567   0.04255   0.44310   0.00000  Uiso   1.00
C408   C     0.16690   0.24651   0.50019   0.00000  Uiso   1.00
C409   C     0.24767   0.29078   0.55690   0.00000  Uiso   1.00
C410   C     0.08444   0.28742   0.44536   0.00000  Uiso   1.00
C411   C     0.24889   0.04591   0.55464   0.00000  Uiso   1.00
C412   C     0.06727   0.16652   0.48820   0.00000  Uiso   1.00
C413   C     0.26606   0.16681   0.51180   0.00000  Uiso   1.00
C414   C     0.01292   0.16205   0.48229   0.00000  Uiso   1.00
C415   C     0.32041   0.17129   0.51771   0.00000  Uiso   1.00
C416   C     0.12681   0.02080   0.47165   0.00000  Uiso   1.00
C417   C     0.20652   0.31253   0.52835   0.00000  Uiso   1.00
C418   C     0.12654   0.31093   0.47229   0.00000  Uiso   1.00
H419   H     0.22684   0.21214   0.38370   0.00000  Uiso   1.00
H420   H     0.10649   0.12119   0.61630   0.00000  Uiso   1.00
H421   H     0.22684   0.21209   0.63272   0.00000  Uiso   1.00
H422   H     0.10649   0.12125   0.36728   0.00000  Uiso   1.00
N423   N     0.16665   0.16666   0.61907   0.00000  Uiso   1.00
N424   N     0.16668   0.16668   0.38093   0.00000  Uiso   1.00
N425   N     0.30453   0.12904   0.40386   0.00000  Uiso   1.00
N426   N     0.02881   0.20429   0.59614   0.00000  Uiso   1.00
N427   N     0.05289   0.05968   0.42019   0.00000  Uiso   1.00
N428   N     0.28044   0.27366   0.57981   0.00000  Uiso   1.00
N429   N     0.05095   0.26870   0.42399   0.00000  Uiso   1.00
N430   N     0.28238   0.06463   0.57601   0.00000  Uiso   1.00
O431   O     0.16666   0.10558   0.53821   0.00000  Uiso   1.00
O432   O     0.16667   0.22775   0.46179   0.00000  Uiso   1.00
O433   O     0.16666   0.10559   0.46176   0.00000  Uiso   1.00
O434   O     0.16667   0.22774   0.53824   0.00000  Uiso   1.00
O435   O     0.09058   0.16666   0.52928   0.00000  Uiso   1.00
O436   O     0.24275   0.16667   0.47072   0.00000  Uiso   1.00
O437   O     0.09058   0.16667   0.45284   0.00000  Uiso   1.00
O438   O     0.24275   0.16666   0.54716   0.00000  Uiso   1.00
Zn439  Zn    0.16667   0.16666   0.55104   0.00000  Uiso   1.00
Zn440  Zn    0.16667   0.16667   0.44896   0.00000  Uiso   1.00
C441   C     0.49977   0.08683   0.49981   0.00000  Uiso   1.00
C442   C     0.54012   0.02240   0.52771   0.00000  Uiso   1.00
C443   C     0.49990   0.29068   0.50044   0.00000  Uiso   1.00
C444   C     0.50010   0.04265   0.49956   0.00000  Uiso   1.00
C445   C     0.53342   0.19195   0.36188   0.00000  Uiso   1.00
C446   C     0.46658   0.14138   0.63813   0.00000  Uiso   1.00
C447   C     0.53343   0.19192   0.64725   0.00000  Uiso   1.00
C448   C     0.46657   0.14141   0.35275   0.00000  Uiso   1.00
C449   C     0.65628   0.14356   0.43859   0.00000  Uiso   1.00
C450   C     0.34372   0.18977   0.56141   0.00000  Uiso   1.00
C451   C     0.41900   0.04255   0.44310   0.00000  Uiso   1.00
C452   C     0.50023   0.24651   0.50019   0.00000  Uiso   1.00
C453   C     0.58100   0.29078   0.55690   0.00000  Uiso   1.00
C454   C     0.41777   0.28742   0.44536   0.00000  Uiso   1.00
C455   C     0.58223   0.04591   0.55464   0.00000  Uiso   1.00
C456   C     0.40060   0.16652   0.48820   0.00000  Uiso   1.00
C457   C     0.59940   0.16681   0.51180   0.00000  Uiso   1.00
C458   C     0.34626   0.16205   0.48229   0.00000  Uiso   1.00
C459   C     0.65375   0.17129   0.51771   0.00000  Uiso   1.00
C460   C     0.46014   0.02080   0.47165   0.00000  Uiso   1.00
C461   C     0.53986   0.31253   0.52835   0.00000  Uiso   1.00
C462   C     0.45988   0.31093   0.47229   0.00000  Uiso   1.00
H463   H     0.56017   0.21214   0.38370   0.00000  Uiso   1.00
H464   H     0.43983   0.12119   0.61630   0.00000  Uiso   1.00
H465   H     0.56017   0.21209   0.63272   0.00000  Uiso   1.00
H466   H     0.43983   0.12125   0.36728   0.00000  Uiso   1.00
N467   N     0.49999   0.16666   0.61907   0.00000  Uiso   1.00
N468   N     0.50001   0.16668   0.38093   0.00000  Uiso   1.00
N469   N     0.63786   0.12904   0.40386   0.00000  Uiso   1.00
N470   N     0.36214   0.20429   0.59614   0.00000  Uiso   1.00
N471   N     0.38623   0.05968   0.42019   0.00000  Uiso   1.00
N472   N     0.61377   0.27366   0.57981   0.00000  Uiso   1.00
N473   N     0.38429   0.26870   0.42399   0.00000  Uiso   1.00
N474   N     0.61571   0.06463   0.57601   0.00000  Uiso   1.00
O475   O     0.50000   0.10558   0.53821   0.00000  Uiso   1.00
O476   O     0.50000   0.22775   0.46179   0.00000  Uiso   1.00
O477   O     0.50000   0.10559   0.46176   0.00000  Uiso   1.00
O478   O     0.50000   0.22774   0.53824   0.00000  Uiso   1.00
O479   O     0.42392   0.16666   0.52928   0.00000  Uiso   1.00
O480   O     0.57608   0.16667   0.47072   0.00000  Uiso   1.00
O481   O     0.42392   0.16667   0.45284   0.00000  Uiso   1.00
O482   O     0.57608   0.16666   0.54716   0.00000  Uiso   1.00
Zn483  Zn    0.50000   0.16666   0.55104   0.00000  Uiso   1.00
Zn484  Zn    0.50000   0.16667   0.44896   0.00000  Uiso   1.00
C485   C     0.83310   0.08683   0.49981   0.00000  Uiso   1.00
C486   C     0.87346   0.02240   0.52771   0.00000  Uiso   1.00
C487   C     0.83324   0.29068   0.50044   0.00000  Uiso   1.00
C488   C     0.83343   0.04265   0.49956   0.00000  Uiso   1.00
C489   C     0.86675   0.19195   0.36188   0.00000  Uiso   1.00
C490   C     0.79991   0.14138   0.63813   0.00000  Uiso   1.00
C491   C     0.86676   0.19192   0.64725   0.00000  Uiso   1.00
C492   C     0.79990   0.14141   0.35275   0.00000  Uiso   1.00
C493   C     0.98961   0.14356   0.43859   0.00000  Uiso   1.00
C494   C     0.67706   0.18977   0.56141   0.00000  Uiso   1.00
C495   C     0.75233   0.04255   0.44310   0.00000  Uiso   1.00
C496   C     0.83356   0.24651   0.50019   0.00000  Uiso   1.00
C497   C     0.91433   0.29078   0.55690   0.00000  Uiso   1.00
C498   C     0.75111   0.28742   0.44536   0.00000  Uiso   1.00
C499   C     0.91556   0.04591   0.55464   0.00000  Uiso   1.00
C500   C     0.73394   0.16652   0.48820   0.00000  Uiso   1.00
C501   C     0.93273   0.16681   0.51180   0.00000  Uiso   1.00
C502   C     0.67959   0.16205   0.48229   0.00000  Uiso   1.00
C503   C     0.98708   0.17129   0.51771   0.00000  Uiso   1.00
C504   C     0.79348   0.02080   0.47165   0.00000  Uiso   1.00
C505   C     0.87319   0.31253   0.52835   0.00000  Uiso   1.00
C506   C     0.79321   0.31093   0.47229   0.00000  Uiso   1.00
H507   H     0.89351   0.21214   0.38370   0.00000  Uiso   1.00
H508   H     0.77316   0.12119   0.61630   0.00000  Uiso   1.00
H509   H     0.89351   0.21209   0.63272   0.00000  Uiso   1.00
H510   H     0.77316   0.12125   0.36728   0.00000  Uiso   1.00
N511   N     0.83332   0.16666   0.61907   0.00000  Uiso   1.00
N512   N     0.83335   0.16668   0.38093   0.00000  Uiso   1.00
N513   N     0.97119   0.12904   0.40386   0.00000  Uiso   1.00
N514   N     0.69547   0.20429   0.59614   0.00000  Uiso   1.00
N515   N     0.71956   0.05968   0.42019   0.00000  Uiso   1.00
N516   N     0.94711   0.27366   0.57981   0.00000  Uiso   1.00
N517   N     0.71762   0.26870   0.42399   0.00000  Uiso   1.00
N518   N     0.94905   0.06463   0.57601   0.00000  Uiso   1.00
O519   O     0.83333   0.10558   0.53821   0.00000  Uiso   1.00
O520   O     0.83334   0.22775   0.46179   0.00000  Uiso   1.00
O521   O     0.83333   0.10559   0.46176   0.00000  Uiso   1.00
O522   O     0.83334   0.22774   0.53824   0.00000  Uiso   1.00
O523   O     0.75725   0.16666   0.52928   0.00000  Uiso   1.00
O524   O     0.90942   0.16667   0.47072   0.00000  Uiso   1.00
O525   O     0.75725   0.16667   0.45284   0.00000  Uiso   1.00
O526   O     0.90942   0.16666   0.54716   0.00000  Uiso   1.00
Zn527  Zn    0.83333   0.16666   0.55104   0.00000  Uiso   1.00
Zn528  Zn    0.83333   0.16667   0.44896   0.00000  Uiso   1.00
C529   C     0.16644   0.42016   0.49981   0.00000  Uiso   1.00
C530   C     0.20679   0.35574   0.52771   0.00000  Uiso   1.00
C531   C     0.16657   0.62402   0.50044   0.00000  Uiso   1.00
C532   C     0.16676   0.37598   0.49956   0.00000  Uiso   1.00
C533   C     0.20009   0.52529   0.36188   0.00000  Uiso   1.00
C534   C     0.13325   0.47471   0.63813   0.00000  Uiso   1.00
C535   C     0.20010   0.52526   0.64725   0.00000  Uiso   1.00
C536   C     0.13324   0.47474   0.35275   0.00000  Uiso   1.00
C537   C     0.32294   0.47690   0.43859   0.00000  Uiso   1.00
C538   C     0.01039   0.52310   0.56141   0.00000  Uiso   1.00
C539   C     0.08567   0.37588   0.44310   0.00000  Uiso   1.00
C540   C     0.16690   0.57984   0.50019   0.00000  Uiso   1.00
C541   C     0.24767   0.62412   0.55690   0.00000  Uiso   1.00
C542   C     0.08444   0.62075   0.44536   0.00000  Uiso   1.00
C543   C     0.24889   0.37925   0.55464   0.00000  Uiso   1.00
C544   C     0.06727   0.49986   0.48820   0.00000  Uiso   1.00
C545   C     0.26606   0.50014   0.51180   0.00000  Uiso   1.00
C546   C     0.01292   0.49538   0.48229   0.00000  Uiso   1.00
C547   C     0.32041   0.50462   0.51771   0.00000  Uiso   1.00
C548   C     0.12681   0.35414   0.47165   0.00000  Uiso   1.00
C549   C     0.20652   0.64586   0.52835   0.00000  Uiso   1.00
C550   C     0.12654   0.64426   0.47229   0.00000  Uiso   1.00
H551   H     0.22684   0.54548   0.38370   0.00000  Uiso   1.00
H552   H     0.10649   0.45452   0.61630   0.00000  Uiso   1.00
H553   H     0.22684   0.54542   0.63272   0.00000  Uiso   1.00
H554   H     0.10649   0.45458   0.36728   0.00000  Uiso   1.00
N555   N     0.16665   0.49999   0.61907   0.00000  Uiso   1.00
N556   N     0.16668   0.50001   0.38093   0.00000  Uiso   1.00
N557   N     0.30453   0.46237   0.40386   0.00000  Uiso   1.00
N558   N     0.02881   0.53763   0.59614   0.00000  Uiso   1.00
N559   N     0.05289   0.39301   0.42019   0.00000  Uiso   1.00
N560   N     0.28044   0.60699   0.57981   0.00000  Uiso   1.00
N561   N     0.05095   0.60203   0.42399   0.00000  Uiso   1.00
N562   N     0.28238   0.39797   0.57601   0.00000  Uiso   1.00
O563   O     0.16666   0.43892   0.53821   0.00000  Uiso   1.00
O564   O     0.16667   0.56108   0.46179   0.00000  Uiso   1.00
O565   O     0.16666   0.43893   0.46176   0.00000  Uiso   1.00
O566   O     0.16667   0.56107   0.53824   0.00000  Uiso   1.00
O567   O     0.09058   0.50000   0.52928   0.00000  Uiso   1.00
O568   O     0.24275   0.50000   0.47072   0.00000  Uiso   1.00
O569   O     0.09058   0.50000   0.45284   0.00000  Uiso   1.00
O570   O     0.24275   0.50000   0.54716   0.00000  Uiso   1.00
Zn571  Zn    0.16667   0.49999   0.55104   0.00000  Uiso   1.00
Zn572  Zn    0.16667   0.50001   0.44896   0.00000  Uiso   1.00
C573   C     0.49977   0.42016   0.49981   0.00000  Uiso   1.00
C574   C     0.54012   0.35574   0.52771   0.00000  Uiso   1.00
C575   C     0.49990   0.62402   0.50044   0.00000  Uiso   1.00
C576   C     0.50010   0.37598   0.49956   0.00000  Uiso   1.00
C577   C     0.53342   0.52529   0.36188   0.00000  Uiso   1.00
C578   C     0.46658   0.47471   0.63813   0.00000  Uiso   1.00
C579   C     0.53343   0.52526   0.64725   0.00000  Uiso   1.00
C580   C     0.46657   0.47474   0.35275   0.00000  Uiso   1.00
C581   C     0.65628   0.47690   0.43859   0.00000  Uiso   1.00
C582   C     0.34372   0.52310   0.56141   0.00000  Uiso   1.00
C583   C     0.41900   0.37588   0.44310   0.00000  Uiso   1.00
C584   C     0.50023   0.57984   0.50019   0.00000  Uiso   1.00
C585   C     0.58100   0.62412   0.55690   0.00000  Uiso   1.00
C586   C     0.41777   0.62075   0.44536   0.00000  Uiso   1.00
C587   C     0.58223   0.37925   0.55464   0.00000  Uiso   1.00
C588   C     0.40060   0.49986   0.48820   0.00000  Uiso   1.00
C589   C     0.59940   0.50014   0.51180   0.00000  Uiso   1.00
C590   C     0.34626   0.49538   0.48229   0.00000  Uiso   1.00
C591   C     0.65375   0.50462   0.51771   0.00000  Uiso   1.00
C592   C     0.46014   0.35414   0.47165   0.00000  Uiso   1.00
C593   C     0.53986   0.64586   0.52835   0.00000  Uiso   1.00
C594   C     0.45988   0.64426   0.47229   0.00000  Uiso   1.00
H595   H     0.56017   0.54548   0.38370   0.00000  Uiso   1.00
H596   H     0.43983   0.45452   0.61630   0.00000  Uiso   1.00
H597   H     0.56017   0.54542   0.63272   0.00000  Uiso   1.00
H598   H     0.43983   0.45458   0.36728   0.00000  Uiso   1.00
N599   N     0.49999   0.49999   0.61907   0.00000  Uiso   1.00
N600   N     0.50001   0.50001   0.38093   0.00000  Uiso   1.00
N601   N     0.63786   0.46237   0.40386   0.00000  Uiso   1.00
N602   N     0.36214   0.53763   0.59614   0.00000  Uiso   1.00
N603   N     0.38623   0.39301   0.42019   0.00000  Uiso   1.00
N604   N     0.61377   0.60699   0.57981   0.00000  Uiso   1.00
N605   N     0.38429   0.60203   0.42399   0.00000  Uiso   1.00
N606   N     0.61571   0.39797   0.57601   0.00000  Uiso   1.00
O607   O     0.50000   0.43892   0.53821   0.00000  Uiso   1.00
O608   O     0.50000   0.56108   0.46179   0.00000  Uiso   1.00
O609   O     0.50000   0.43893   0.46176   0.00000  Uiso   1.00
O610   O     0.50000   0.56107   0.53824   0.00000  Uiso   1.00
O611   O     0.42392   0.50000   0.52928   0.00000  Uiso   1.00
O612   O     0.57608   0.50000   0.47072   0.00000  Uiso   1.00
O613   O     0.42392   0.50000   0.45284   0.00000  Uiso   1.00
O614   O     0.57608   0.50000   0.54716   0.00000  Uiso   1.00
Zn615  Zn    0.50000   0.49999   0.55104   0.00000  Uiso   1.00
Zn616  Zn    0.50000   0.50001   0.44896   0.00000  Uiso   1.00
C617   C     0.83310   0.42016   0.49981   0.00000  Uiso   1.00
C618   C     0.87346   0.35574   0.52771   0.00000  Uiso   1.00
C619   C     0.83324   0.62402   0.50044   0.00000  Uiso   1.00
C620   C     0.83343   0.37598   0.49956   0.00000  Uiso   1.00
C621   C     0.86675   0.52529   0.36188   0.00000  Uiso   1.00
C622   C     0.79991   0.47471   0.63813   0.00000  Uiso   1.00
C623   C     0.86676   0.52526   0.64725   0.00000  Uiso   1.00
C624   C     0.79990   0.47474   0.35275   0.00000  Uiso   1.00
C625   C     0.98961   0.47690   0.43859   0.00000  Uiso   1.00
C626   C     0.67706   0.52310   0.56141   0.00000  Uiso   1.00
C627   C     0.75233   0.37588   0.44310   0.00000  Uiso   1.00
C628   C     0.83356   0.57984   0.50019   0.00000  Uiso   1.00
C629   C     0.91433   0.62412   0.55690   0.00000  Uiso   1.00
C630   C     0.75111   0.62075   0.44536   0.00000  Uiso   1.00
C631   C     0.91556   0.37925   0.55464   0.00000  Uiso   1.00
C632   C     0.73394   0.49986   0.48820   0.00000  Uiso   1.00
C633   C     0.93273   0.50014   0.51180   0.00000  Uiso   1.00
C634   C     0.67959   0.49538   0.48229   0.00000  Uiso   1.00
C635   C     0.98708   0.50462   0.51771   0.00000  Uiso   1.00
C636   C     0.79348   0.35414   0.47165   0.00000  Uiso   1.00
C637   C     0.87319   0.64586   0.52835   0.00000  Uiso   1.00
C638   C     0.79321   0.64426   0.47229   0.00000  Uiso   1.00
H639   H     0.89351   0.54548   0.38370   0.00000  Uiso   1.00
H640   H     0.77316   0.45452   0.61630   0.00000  Uiso   1.00
H641   H     0.89351   0.54542   0.63272   0.00000  Uiso   1.00
H642   H     0.77316   0.45458   0.36728   0.00000  Uiso   1.00
N643   N     0.83332   0.49999   0.61907   0.00000  Uiso   1.00
N644   N     0.83335   0.50001   0.38093   0.00000  Uiso   1.00
N645   N     0.97119   0.46237   0.40386   0.00000  Uiso   1.00
N646   N     0.69547   0.53763   0.59614   0.00000  Uiso   1.00
N647   N     0.71956   0.39301   0.42019   0.00000  Uiso   1.00
N648   N     0.94711   0.60699   0.57981   0.00000  Uiso   1.00
N649   N     0.71762   0.60203   0.42399   0.00000  Uiso   1.00
N650   N     0.94905   0.39797   0.57601   0.00000  Uiso   1.00
O651   O     0.83333   0.43892   0.53821   0.00000  Uiso   1.00
O652   O     0.83334   0.56108   0.46179   0.00000  Uiso   1.00
O653   O     0.83333   0.43893   0.46176   0.00000  Uiso   1.00
O654   O     0.83334   0.56107   0.53824   0.00000  Uiso   1.00
O655   O     0.75725   0.50000   0.52928   0.00000  Uiso   1.00
O656   O     0.90942   0.50000   0.47072   0.00000  Uiso   1.00
O657   O     0.75725   0.50000   0.45284   0.00000  Uiso   1.00
O658   O     0.90942   0.50000   0.54716   0.00000  Uiso   1.00
Zn659  Zn    0.83333   0.49999   0.55104   0.00000  Uiso   1.00
Zn660  Zn    0.83333   0.50001   0.44896   0.00000  Uiso   1.00
C661   C     0.16644   0.75349   0.49981   0.00000  Uiso   1.00
C662   C     0.20679   0.68907   0.52771   0.00000  Uiso   1.00
C663   C     0.16657   0.95735   0.50044   0.00000  Uiso   1.00
C664   C     0.16676   0.70932   0.49956   0.00000  Uiso   1.00
C665   C     0.20009   0.85862   0.36188   0.00000  Uiso   1.00
C666   C     0.13325   0.80805   0.63813   0.00000  Uiso   1.00
C667   C     0.20010   0.85859   0.64725   0.00000  Uiso   1.00
C668   C     0.13324   0.80808   0.35275   0.00000  Uiso   1.00
C669   C     0.32294   0.81023   0.43859   0.00000  Uiso   1.00
C670   C     0.01039   0.85644   0.56141   0.00000  Uiso   1.00
C671   C     0.08567   0.70922   0.44310   0.00000  Uiso   1.00
C672   C     0.16690   0.91317   0.50019   0.00000  Uiso   1.00
C673   C     0.24767   0.95745   0.55690   0.00000  Uiso   1.00
C674   C     0.08444   0.95409   0.44536   0.00000  Uiso   1.00
C675   C     0.24889   0.71258   0.55464   0.00000  Uiso   1.00
C676   C     0.06727   0.83319   0.48820   0.00000  Uiso   1.00
C677   C     0.26606   0.83348   0.51180   0.00000  Uiso   1.00
C678   C     0.01292   0.82871   0.48229   0.00000  Uiso   1.00
C679   C     0.32041   0.83795   0.51771   0.00000  Uiso   1.00
C680   C     0.12681   0.68747   0.47165   0.00000  Uiso   1.00
C681   C     0.20652   0.97920   0.52835   0.00000  Uiso   1.00
C682   C     0.12654   0.97760   0.47229   0.00000  Uiso   1.00
H683   H     0.22684   0.87881   0.38370   0.00000  Uiso   1.00
H684   H     0.10649   0.78786   0.61630   0.00000  Uiso   1.00
H685   H     0.22684   0.87875   0.63272   0.00000  Uiso   1.00
H686   H     0.10649   0.78791   0.36728   0.00000  Uiso   1.00
N687   N     0.16665   0.83332   0.61907   0.00000  Uiso   1.00
N688   N     0.16668   0.83334   0.38093   0.00000  Uiso   1.00
N689   N     0.30453   0.79571   0.40386   0.00000  Uiso   1.00
N690   N     0.02881   0.87096   0.59614   0.00000  Uiso   1.00
N691   N     0.05289   0.72634   0.42019   0.00000  Uiso   1.00
N692   N     0.28044   0.94032   0.57981   0.00000  Uiso   1.00
N693   N     0.05095   0.93536   0.42399   0.00000  Uiso   1.00
N694   N     0.28238   0.73130   0.57601   0.00000  Uiso   1.00
O695   O     0.16666   0.77225   0.53821   0.00000  Uiso   1.00
O696   O     0.16667   0.89442   0.46179   0.00000  Uiso   1.00
O697   O     0.16666   0.77226   0.46176   0.00000  Uiso   1.00
O698   O     0.16667   0.89441   0.53824   0.00000  Uiso   1.00
O699   O     0.09058   0.83333   0.52928   0.00000  Uiso   1.00
O700   O     0.24275   0.83334   0.47072   0.00000  Uiso   1.00
O701   O     0.09058   0.83334   0.45284   0.00000  Uiso   1.00
O702   O     0.24275   0.83333   0.54716   0.00000  Uiso   1.00
Zn703  Zn    0.16667   0.83333   0.55104   0.00000  Uiso   1.00
Zn704  Zn    0.16667   0.83334   0.44896   0.00000  Uiso   1.00
C705   C     0.49977   0.75349   0.49981   0.00000  Uiso   1.00
C706   C     0.54012   0.68907   0.52771   0.00000  Uiso   1.00
C707   C     0.49990   0.95735   0.50044   0.00000  Uiso   1.00
C708   C     0.50010   0.70932   0.49956   0.00000  Uiso   1.00
C709   C     0.53342   0.85862   0.36188   0.00000  Uiso   1.00
C710   C     0.46658   0.80805   0.63813   0.00000  Uiso   1.00
C711   C     0.53343   0.85859   0.64725   0.00000  Uiso   1.00
C712   C     0.46657   0.80808   0.35275   0.00000  Uiso   1.00
C713   C     0.65628   0.81023   0.43859   0.00000  Uiso   1.00
C714   C     0.34372   0.85644   0.56141   0.00000  Uiso   1.00
C715   C     0.41900   0.70922   0.44310   0.00000  Uiso   1.00
C716   C     0.50023   0.91317   0.50019   0.00000  Uiso   1.00
C717   C     0.58100   0.95745   0.55690   0.00000  Uiso   1.00
C718   C     0.41777   0.95409   0.44536   0.00000  Uiso   1.00
C719   C     0.58223   0.71258   0.55464   0.00000  Uiso   1.00
C720   C     0.40060   0.83319   0.48820   0.00000  Uiso   1.00
C721   C     0.59940   0.83348   0.51180   0.00000  Uiso   1.00
C722   C     0.34626   0.82871   0.48229   0.00000  Uiso   1.00
C723   C     0.65375   0.83795   0.51771   0.00000  Uiso   1.00
C724   C     0.46014   0.68747   0.47165   0.00000  Uiso   1.00
C725   C     0.53986   0.97920   0.52835   0.00000  Uiso   1.00
C726   C     0.45988   0.97760   0.47229   0.00000  Uiso   1.00
H727   H     0.56017   0.87881   0.38370   0.00000  Uiso   1.00
H728   H     0.43983   0.78786   0.61630   0.00000  Uiso   1.00
H729   H     0.56017   0.87875   0.63272   0.00000  Uiso   1.00
H730   H     0.43983   0.78791   0.36728   0.00000  Uiso   1.00
N731   N     0.49999   0.83332   0.61907   0.00000  Uiso   1.00
N732   N     0.50001   0.83334   0.38093   0.00000  Uiso   1.00
N733   N     0.63786   0.79571   0.40386   0.00000  Uiso   1.00
N734   N     0.36214   0.87096   0.59614   0.00000  Uiso   1.00
N735   N     0.38623   0.72634   0.42019   0.00000  Uiso   1.00
N736   N     0.61377   0.94032   0.57981   0.00000  Uiso   1.00
N737   N     0.38429   0.93536   0.42399   0.00000  Uiso   1.00
N738   N     0.61571   0.73130   0.57601   0.00000  Uiso   1.00
O739   O     0.50000   0.77225   0.53821   0.00000  Uiso   1.00
O740   O     0.50000   0.89442   0.46179   0.00000  Uiso   1.00
O741   O     0.50000   0.77226   0.46176   0.00000  Uiso   1.00
O742   O     0.50000   0.89441   0.53824   0.00000  Uiso   1.00
O743   O     0.42392   0.83333   0.52928   0.00000  Uiso   1.00
O744   O     0.57608   0.83334   0.47072   0.00000  Uiso   1.00
O745   O     0.42392   0.83334   0.45284   0.00000  Uiso   1.00
O746   O     0.57608   0.83333   0.54716   0.00000  Uiso   1.00
Zn747  Zn    0.50000   0.83333   0.55104   0.00000  Uiso   1.00
Zn748  Zn    0.50000   0.83334   0.44896   0.00000  Uiso   1.00
C749   C     0.83310   0.75349   0.49981   0.00000  Uiso   1.00
C750   C     0.87346   0.68907   0.52771   0.00000  Uiso   1.00
C751   C     0.83324   0.95735   0.50044   0.00000  Uiso   1.00
C752   C     0.83343   0.70932   0.49956   0.00000  Uiso   1.00
C753   C     0.86675   0.85862   0.36188   0.00000  Uiso   1.00
C754   C     0.79991   0.80805   0.63813   0.00000  Uiso   1.00
C755   C     0.86676   0.85859   0.64725   0.00000  Uiso   1.00
C756   C     0.79990   0.80808   0.35275   0.00000  Uiso   1.00
C757   C     0.98961   0.81023   0.43859   0.00000  Uiso   1.00
C758   C     0.67706   0.85644   0.56141   0.00000  Uiso   1.00
C759   C     0.75233   0.70922   0.44310   0.00000  Uiso   1.00
C760   C     0.83356   0.91317   0.50019   0.00000  Uiso   1.00
C761   C     0.91433   0.95745   0.55690   0.00000  Uiso   1.00
C762   C     0.75111   0.95409   0.44536   0.00000  Uiso   1.00
C763   C     0.91556   0.71258   0.55464   0.00000  Uiso   1.00
C764   C     0.73394   0.83319   0.48820   0.00000  Uiso   1.00
C765   C     0.93273   0.83348   0.51180   0.00000  Uiso   1.00
C766   C     0.67959   0.82871   0.48229   0.00000  Uiso   1.00
C767   C     0.98708   0.83795   0.51771   0.00000  Uiso   1.00
C768   C     0.79348   0.68747   0.47165   0.00000  Uiso   1.00
C769   C     0.87319   0.97920   0.52835   0.00000  Uiso   1.00
C770   C     0.79321   0.97760   0.47229   0.00000  Uiso   1.00
H771   H     0.89351   0.87881   0.38370   0.00000  Uiso   1.00
H772   H     0.77316   0.78786   0.61630   0.00000  Uiso   1.00
H773   H     0.89351   0.87875   0.63272   0.00000  Uiso   1.00
H774   H     0.77316   0.78791   0.36728   0.00000  Uiso   1.00
N775   N     0.83332   0.83332   0.61907   0.00000  Uiso   1.00
N776   N     0.83335   0.83334   0.38093   0.00000  Uiso   1.00
N777   N     0.97119   0.79571   0.40386   0.00000  Uiso   1.00
N778   N     0.69547   0.87096   0.59614   0.00000  Uiso   1.00
N779   N     0.71956   0.72634   0.42019   0.00000  Uiso   1.00
N780   N     0.94711   0.94032   0.57981   0.00000  Uiso   1.00
N781   N     0.71762   0.93536   0.42399   0.00000  Uiso   1.00
N782   N     0.94905   0.73130   0.57601   0.00000  Uiso   1.00
O783   O     0.83333   0.77225   0.53821   0.00000  Uiso   1.00
O784   O     0.83334   0.89442   0.46179   0.00000  Uiso   1.00
O785   O     0.83333   0.77226   0.46176   0.00000  Uiso   1.00
O786   O     0.83334   0.89441   0.53824   0.00000  Uiso   1.00
O787   O     0.75725   0.83333   0.52928   0.00000  Uiso   1.00
O788   O     0.90942   0.83334   0.47072   0.00000  Uiso   1.00
O789   O     0.75725   0.83334   0.45284   0.00000  Uiso   1.00
O790   O     0.90942   0.83333   0.54716   0.00000  Uiso   1.00
Zn791  Zn    0.83333   0.83333   0.55104   0.00000  Uiso   1.00
Zn792  Zn    0.83333   0.83334   0.44896   0.00000  Uiso   1.00
C793   C     0.16644   0.08683   0.83315   0.00000  Uiso   1.00
C794   C     0.20679   0.02240   0.86105   0.00000  Uiso   1.00
C795   C     0.16657   0.29068   0.83377   0.00000  Uiso   1.00
C796   C     0.16676   0.04265   0.83290   0.00000  Uiso   1.00
C797   C     0.20009   0.19195   0.69521   0.00000  Uiso   1.00
C798   C     0.13325   0.14138   0.97146   0.00000  Uiso   1.00
C799   C     0.20010   0.19192   0.98058   0.00000  Uiso   1.00
C800   C     0.13324   0.14141   0.68609   0.00000  Uiso   1.00
C801   C     0.32294   0.14356   0.77193   0.00000  Uiso   1.00
C802   C     0.01039   0.18977   0.89474   0.00000  Uiso   1.00
C803   C     0.08567   0.04255   0.77644   0.00000  Uiso   1.00
C804   C     0.16690   0.24651   0.83352   0.00000  Uiso   1.00
C805   C     0.24767   0.29078   0.89023   0.00000  Uiso   1.00
C806   C     0.08444   0.28742   0.77869   0.00000  Uiso   1.00
C807   C     0.24889   0.04591   0.88797   0.00000  Uiso   1.00
C808   C     0.06727   0.16652   0.82153   0.00000  Uiso   1.00
C809   C     0.26606   0.16681   0.84514   0.00000  Uiso   1.00
C810   C     0.01292   0.16205   0.81562   0.00000  Uiso   1.00
C811   C     0.32041   0.17129   0.85104   0.00000  Uiso   1.00
C812   C     0.12681   0.02080   0.80498   0.00000  Uiso   1.00
C813   C     0.20652   0.31253   0.86169   0.00000  Uiso   1.00
C814   C     0.12654   0.31093   0.80562   0.00000  Uiso   1.00
H815   H     0.22684   0.21214   0.71703   0.00000  Uiso   1.00
H816   H     0.10649   0.12119   0.94963   0.00000  Uiso   1.00
H817   H     0.22684   0.21209   0.96605   0.00000  Uiso   1.00
H818   H     0.10649   0.12125   0.70061   0.00000  Uiso   1.00
N819   N     0.16665   0.16666   0.95240   0.00000  Uiso   1.00
N820   N     0.16668   0.16668   0.71427   0.00000  Uiso   1.00
N821   N     0.30453   0.12904   0.73719   0.00000  Uiso   1.00
N822   N     0.02881   0.20429   0.92948   0.00000  Uiso   1.00
N823   N     0.05289   0.05968   0.75352   0.00000  Uiso   1.00
N824   N     0.28044   0.27366   0.91315   0.00000  Uiso   1.00
N825   N     0.05095   0.26870   0.75732   0.00000  Uiso   1.00
N826   N     0.28238   0.06463   0.90934   0.00000  Uiso   1.00
O827   O     0.16666   0.10558   0.87154   0.00000  Uiso   1.00
O828   O     0.16667   0.22775   0.79513   0.00000  Uiso   1.00
O829   O     0.16666   0.10559   0.79510   0.00000  Uiso   1.00
O830   O     0.16667   0.22774   0.87157   0.00000  Uiso   1.00
O831   O     0.09058   0.16666   0.86261   0.00000  Uiso   1.00
O832   O     0.24275   0.16667   0.80405   0.00000  Uiso   1.00
O833   O     0.09058   0.16667   0.78617   0.00000  Uiso   1.00
O834   O     0.24275   0.16666   0.88050   0.00000  Uiso   1.00
Zn835  Zn    0.16667   0.16666   0.88437   0.00000  Uiso   1.00
Zn836  Zn    0.16667   0.16667   0.78229   0.00000  Uiso   1.00
C837   C     0.49977   0.08683   0.83315   0.00000  Uiso   1.00
C838   C     0.54012   0.02240   0.86105   0.00000  Uiso   1.00
C839   C     0.49990   0.29068   0.83377   0.00000  Uiso   1.00
C840   C     0.50010   0.04265   0.83290   0.00000  Uiso   1.00
C841   C     0.53342   0.19195   0.69521   0.00000  Uiso   1.00
C842   C     0.46658   0.14138   0.97146   0.00000  Uiso   1.00
C843   C     0.53343   0.19192   0.98058   0.00000  Uiso   1.00
C844   C     0.46657   0.14141   0.68609   0.00000  Uiso   1.00
C845   C     0.65628   0.14356   0.77193   0.00000  Uiso   1.00
C846   C     0.34372   0.18977   0.89474   0.00000  Uiso   1.00
C847   C     0.41900   0.04255   0.77644   0.00000  Uiso   1.00
C848   C     0.50023   0.24651   0.83352   0.00000  Uiso   1.00
C849   C     0.58100   0.29078   0.89023   0.00000  Uiso   1.00
C850   C     0.41777   0.28742   0.77869   0.00000  Uiso   1.00
C851   C     0.58223   0.04591   0.88797   0.00000  Uiso   1.00
C852   C     0.40060   0.16652   0.82153   0.00000  Uiso   1.00
C853   C     0.59940   0.16681   0.84514   0.00000  Uiso   1.00
C854   C     0.34626   0.16205   0.81562   0.00000  Uiso   1.00
C855   C     0.65375   0.17129   0.85104   0.00000  Uiso   1.00
C856   C     0.46014   0.02080   0.80498   0.00000  Uiso   1.00
C857   C     0.53986   0.31253   0.86169   0.00000  Uiso   1.00
C858   C     0.45988   0.31093   0.80562   0.00000  Uiso   1.00
H859   H     0.56017   0.21214   0.71703   0.00000  Uiso   1.00
H860   H     0.43983   0.12119   0.94963   0.00000  Uiso   1.00
H861   H     0.56017   0.21209   0.96605   0.00000  Uiso   1.00
H862   H     0.43983   0.12125   0.70061   0.00000  Uiso   1.00
N863   N     0.49999   0.16666   0.95240   0.00000  Uiso   1.00
N864   N     0.50001   0.16668   0.71427   0.00000  Uiso   1.00
N865   N     0.63786   0.12904   0.73719   0.00000  Uiso   1.00
N866   N     0.36214   0.20429   0.92948   0.00000  Uiso   1.00
N867   N     0.38623   0.05968   0.75352   0.00000  Uiso   1.00
N868   N     0.61377   0.27366   0.91315   0.00000  Uiso   1.00
N869   N     0.38429   0.26870   0.75732   0.00000  Uiso   1.00
N870   N     0.61571   0.06463   0.90934   0.00000  Uiso   1.00
O871   O     0.50000   0.10558   0.87154   0.00000  Uiso   1.00
O872   O     0.50000   0.22775   0.79513   0.00000  Uiso   1.00
O873   O     0.50000   0.10559   0.79510   0.00000  Uiso   1.00
O874   O     0.50000   0.22774   0.87157   0.00000  Uiso   1.00
O875   O     0.42392   0.16666   0.86261   0.00000  Uiso   1.00
O876   O     0.57608   0.16667   0.80405   0.00000  Uiso   1.00
O877   O     0.42392   0.16667   0.78617   0.00000  Uiso   1.00
O878   O     0.57608   0.16666   0.88050   0.00000  Uiso   1.00
Zn879  Zn    0.50000   0.16666   0.88437   0.00000  Uiso   1.00
Zn880  Zn    0.50000   0.16667   0.78229   0.00000  Uiso   1.00
C881   C     0.83310   0.08683   0.83315   0.00000  Uiso   1.00
C882   C     0.87346   0.02240   0.86105   0.00000  Uiso   1.00
C883   C     0.83324   0.29068   0.83377   0.00000  Uiso   1.00
C884   C     0.83343   0.04265   0.83290   0.00000  Uiso   1.00
C885   C     0.86675   0.19195   0.69521   0.00000  Uiso   1.00
C886   C     0.79991   0.14138   0.97146   0.00000  Uiso   1.00
C887   C     0.86676   0.19192   0.98058   0.00000  Uiso   1.00
C888   C     0.79990   0.14141   0.68609   0.00000  Uiso   1.00
C889   C     0.98961   0.14356   0.77193   0.00000  Uiso   1.00
C890   C     0.67706   0.18977   0.89474   0.00000  Uiso   1.00
C891   C     0.75233   0.04255   0.77644   0.00000  Uiso   1.00
C892   C     0.83356   0.24651   0.83352   0.00000  Uiso   1.00
C893   C     0.91433   0.29078   0.89023   0.00000  Uiso   1.00
C894   C     0.75111   0.28742   0.77869   0.00000  Uiso   1.00
C895   C     0.91556   0.04591   0.88797   0.00000  Uiso   1.00
C896   C     0.73394   0.16652   0.82153   0.00000  Uiso   1.00
C897   C     0.93273   0.16681   0.84514   0.00000  Uiso   1.00
C898   C     0.67959   0.16205   0.81562   0.00000  Uiso   1.00
C899   C     0.98708   0.17129   0.85104   0.00000  Uiso   1.00
C900   C     0.79348   0.02080   0.80498   0.00000  Uiso   1.00
C901   C     0.87319   0.31253   0.86169   0.00000  Uiso   1.00
C902   C     0.79321   0.31093   0.80562   0.00000  Uiso   1.00
H903   H     0.89351   0.21214   0.71703   0.00000  Uiso   1.00
H904   H     0.77316   0.12119   0.94963   0.00000  Uiso   1.00
H905   H     0.89351   0.21209   0.96605   0.00000  Uiso   1.00
H906   H     0.77316   0.12125   0.70061   0.00000  Uiso   1.00
N907   N     0.83332   0.16666   0.95240   0.00000  Uiso   1.00
N908   N     0.83335   0.16668   0.71427   0.00000  Uiso   1.00
N909   N     0.97119   0.12904   0.73719   0.00000  Uiso   1.00
N910   N     0.69547   0.20429   0.92948   0.00000  Uiso   1.00
N911   N     0.71956   0.05968   0.75352   0.00000  Uiso   1.00
N912   N     0.94711   0.27366   0.91315   0.00000  Uiso   1.00
N913   N     0.71762   0.26870   0.75732   0.00000  Uiso   1.00
N914   N     0.94905   0.06463   0.90934   0.00000  Uiso   1.00
O915   O     0.83333   0.10558   0.87154   0.00000  Uiso   1.00
O916   O     0.83334   0.22775   0.79513   0.00000  Uiso   1.00
O917   O     0.83333   0.10559   0.79510   0.00000  Uiso   1.00
O918   O     0.83334   0.22774   0.87157   0.00000  Uiso   1.00
O919   O     0.75725   0.16666   0.86261   0.00000  Uiso   1.00
O920   O     0.90942   0.16667   0.80405   0.00000  Uiso   1.00
O921   O     0.75725   0.16667   0.78617   0.00000  Uiso   1.00
O922   O     0.90942   0.16666   0.88050   0.00000  Uiso   1.00
Zn923  Zn    0.83333   0.16666   0.88437   0.00000  Uiso   1.00
Zn924  Zn    0.83333   0.16667   0.78229   0.00000  Uiso   1.00
C925   C     0.16644   0.42016   0.83315   0.00000  Uiso   1.00
C926   C     0.20679   0.35574   0.86105   0.00000  Uiso   1.00
C927   C     0.16657   0.62402   0.83377   0.00000  Uiso   1.00
C928   C     0.16676   0.37598   0.83290   0.00000  Uiso   1.00
C929   C     0.20009   0.52529   0.69521   0.00000  Uiso   1.00
C930   C     0.13325   0.47471   0.97146   0.00000  Uiso   1.00
C931   C     0.20010   0.52526   0.98058   0.00000  Uiso   1.00
C932   C     0.13324   0.47474   0.68609   0.00000  Uiso   1.00
C933   C     0.32294   0.47690   0.77193   0.00000  Uiso   1.00
C934   C     0.01039   0.52310   0.89474   0.00000  Uiso   1.00
C935   C     0.08567   0.37588   0.77644   0.00000  Uiso   1.00
C936   C     0.16690   0.57984   0.83352   0.00000  Uiso   1.00
C937   C     0.24767   0.62412   0.89023   0.00000  Uiso   1.00
C938   C     0.08444   0.62075   0.77869   0.00000  Uiso   1.00
C939   C     0.24889   0.37925   0.88797   0.00000  Uiso   1.00
C940   C     0.06727   0.49986   0.82153   0.00000  Uiso   1.00
C941   C     0.26606   0.50014   0.84514   0.00000  Uiso   1.00
C942   C     0.01292   0.49538   0.81562   0.00000  Uiso   1.00
C943   C     0.32041   0.50462   0.85104   0.00000  Uiso   1.00
C944   C     0.12681   0.35414   0.80498   0.00000  Uiso   1.00
C945   C     0.20652   0.64586   0.86169   0.00000  Uiso   1.00
C946   C     0.12654   0.64426   0.80562   0.00000  Uiso   1.00
H947   H     0.22684   0.54548   0.71703   0.00000  Uiso   1.00
H948   H     0.10649   0.45452   0.94963   0.00000  Uiso   1.00
H949   H     0.22684   0.54542   0.96605   0.00000  Uiso   1.00
H950   H     0.10649   0.45458   0.70061   0.00000  Uiso   1.00
N951   N     0.16665   0.49999   0.95240   0.00000  Uiso   1.00
N952   N     0.16668   0.50001   0.71427   0.00000  Uiso   1.00
N953   N     0.30453   0.46237   0.73719   0.00000  Uiso   1.00
N954   N     0.02881   0.53763   0.92948   0.00000  Uiso   1.00
N955   N     0.05289   0.39301   0.75352   0.00000  Uiso   1.00
N956   N     0.28044   0.60699   0.91315   0.00000  Uiso   1.00
N957   N     0.05095   0.60203   0.75732   0.00000  Uiso   1.00
N958   N     0.28238   0.39797   0.90934   0.00000  Uiso   1.00
O959   O     0.16666   0.43892   0.87154   0.00000  Uiso   1.00
O960   O     0.16667   0.56108   0.79513   0.00000  Uiso   1.00
O961   O     0.16666   0.43893   0.79510   0.00000  Uiso   1.00
O962   O     0.16667   0.56107   0.87157   0.00000  Uiso   1.00
O963   O     0.09058   0.50000   0.86261   0.00000  Uiso   1.00
O964   O     0.24275   0.50000   0.80405   0.00000  Uiso   1.00
O965   O     0.09058   0.50000   0.78617   0.00000  Uiso   1.00
O966   O     0.24275   0.50000   0.88050   0.00000  Uiso   1.00
Zn967  Zn    0.16667   0.49999   0.88437   0.00000  Uiso   1.00
Zn968  Zn    0.16667   0.50001   0.78229   0.00000  Uiso   1.00
C969   C     0.49977   0.42016   0.83315   0.00000  Uiso   1.00
C970   C     0.54012   0.35574   0.86105   0.00000  Uiso   1.00
C971   C     0.49990   0.62402   0.83377   0.00000  Uiso   1.00
C972   C     0.50010   0.37598   0.83290   0.00000  Uiso   1.00
C973   C     0.53342   0.52529   0.69521   0.00000  Uiso   1.00
C974   C     0.46658   0.47471   0.97146   0.00000  Uiso   1.00
C975   C     0.53343   0.52526   0.98058   0.00000  Uiso   1.00
C976   C     0.46657   0.47474   0.68609   0.00000  Uiso   1.00
C977   C     0.65628   0.47690   0.77193   0.00000  Uiso   1.00
C978   C     0.34372   0.52310   0.89474   0.00000  Uiso   1.00
C979   C     0.41900   0.37588   0.77644   0.00000  Uiso   1.00
C980   C     0.50023   0.57984   0.83352   0.00000  Uiso   1.00
C981   C     0.58100   0.62412   0.89023   0.00000  Uiso   1.00
C982   C     0.41777   0.62075   0.77869   0.00000  Uiso   1.00
C983   C     0.58223   0.37925   0.88797   0.00000  Uiso   1.00
C984   C     0.40060   0.49986   0.82153   0.00000  Uiso   1.00
C985   C     0.59940   0.50014   0.84514   0.00000  Uiso   1.00
C986   C     0.34626   0.49538   0.81562   0.00000  Uiso   1.00
C987   C     0.65375   0.50462   0.85104   0.00000  Uiso   1.00
C988   C     0.46014   0.35414   0.80498   0.00000  Uiso   1.00
C989   C     0.53986   0.64586   0.86169   0.00000  Uiso   1.00
C990   C     0.45988   0.64426   0.80562   0.00000  Uiso   1.00
H991   H     0.56017   0.54548   0.71703   0.00000  Uiso   1.00
H992   H     0.43983   0.45452   0.94963   0.00000  Uiso   1.00
H993   H     0.56017   0.54542   0.96605   0.00000  Uiso   1.00
H994   H     0.43983   0.45458   0.70061   0.00000  Uiso   1.00
N995   N     0.49999   0.49999   0.95240   0.00000  Uiso   1.00
N996   N     0.50001   0.50001   0.71427   0.00000  Uiso   1.00
N997   N     0.63786   0.46237   0.73719   0.00000  Uiso   1.00
N998   N     0.36214   0.53763   0.92948   0.00000  Uiso   1.00
N999   N     0.38623   0.39301   0.75352   0.00000  Uiso   1.00
N1000  N     0.61377   0.60699   0.91315   0.00000  Uiso   1.00
N1001  N     0.38429   0.60203   0.75732   0.00000  Uiso   1.00
N1002  N     0.61571   0.39797   0.90934   0.00000  Uiso   1.00
O1003  O     0.50000   0.43892   0.87154   0.00000  Uiso   1.00
O1004  O     0.50000   0.56108   0.79513   0.00000  Uiso   1.00
O1005  O     0.50000   0.43893   0.79510   0.00000  Uiso   1.00
O1006  O     0.50000   0.56107   0.87157   0.00000  Uiso   1.00
O1007  O     0.42392   0.50000   0.86261   0.00000  Uiso   1.00
O1008  O     0.57608   0.50000   0.80405   0.00000  Uiso   1.00
O1009  O     0.42392   0.50000   0.78617   0.00000  Uiso   1.00
O1010  O     0.57608   0.50000   0.88050   0.00000  Uiso   1.00
Zn1011 Zn    0.50000   0.49999   0.88437   0.00000  Uiso   1.00
Zn1012 Zn    0.50000   0.50001   0.78229   0.00000  Uiso   1.00
C1013  C     0.83310   0.42016   0.83315   0.00000  Uiso   1.00
C1014  C     0.87346   0.35574   0.86105   0.00000  Uiso   1.00
C1015  C     0.83324   0.62402   0.83377   0.00000  Uiso   1.00
C1016  C     0.83343   0.37598   0.83290   0.00000  Uiso   1.00
C1017  C     0.86675   0.52529   0.69521   0.00000  Uiso   1.00
C1018  C     0.79991   0.47471   0.97146   0.00000  Uiso   1.00
C1019  C     0.86676   0.52526   0.98058   0.00000  Uiso   1.00
C1020  C     0.79990   0.47474   0.68609   0.00000  Uiso   1.00
C1021  C     0.98961   0.47690   0.77193   0.00000  Uiso   1.00
C1022  C     0.67706   0.52310   0.89474   0.00000  Uiso   1.00
C1023  C     0.75233   0.37588   0.77644   0.00000  Uiso   1.00
C1024  C     0.83356   0.57984   0.83352   0.00000  Uiso   1.00
C1025  C     0.91433   0.62412   0.89023   0.00000  Uiso   1.00
C1026  C     0.75111   0.62075   0.77869   0.00000  Uiso   1.00
C1027  C     0.91556   0.37925   0.88797   0.00000  Uiso   1.00
C1028  C     0.73394   0.49986   0.82153   0.00000  Uiso   1.00
C1029  C     0.93273   0.50014   0.84514   0.00000  Uiso   1.00
C1030  C     0.67959   0.49538   0.81562   0.00000  Uiso   1.00
C1031  C     0.98708   0.50462   0.85104   0.00000  Uiso   1.00
C1032  C     0.79348   0.35414   0.80498   0.00000  Uiso   1.00
C1033  C     0.87319   0.64586   0.86169   0.00000  Uiso   1.00
C1034  C     0.79321   0.64426   0.80562   0.00000  Uiso   1.00
H1035  H     0.89351   0.54548   0.71703   0.00000  Uiso   1.00
H1036  H     0.77316   0.45452   0.94963   0.00000  Uiso   1.00
H1037  H     0.89351   0.54542   0.96605   0.00000  Uiso   1.00
H1038  H     0.77316   0.45458   0.70061   0.00000  Uiso   1.00
N1039  N     0.83332   0.49999   0.95240   0.00000  Uiso   1.00
N1040  N     0.83335   0.50001   0.71427   0.00000  Uiso   1.00
N1041  N     0.97119   0.46237   0.73719   0.00000  Uiso   1.00
N1042  N     0.69547   0.53763   0.92948   0.00000  Uiso   1.00
N1043  N     0.71956   0.39301   0.75352   0.00000  Uiso   1.00
N1044  N     0.94711   0.60699   0.91315   0.00000  Uiso   1.00
N1045  N     0.71762   0.60203   0.75732   0.00000  Uiso   1.00
N1046  N     0.94905   0.39797   0.90934   0.00000  Uiso   1.00
O1047  O     0.83333   0.43892   0.87154   0.00000  Uiso   1.00
O1048  O     0.83334   0.56108   0.79513   0.00000  Uiso   1.00
O1049  O     0.83333   0.43893   0.79510   0.00000  Uiso   1.00
O1050  O     0.83334   0.56107   0.87157   0.00000  Uiso   1.00
O1051  O     0.75725   0.50000   0.86261   0.00000  Uiso   1.00
O1052  O     0.90942   0.50000   0.80405   0.00000  Uiso   1.00
O1053  O     0.75725   0.50000   0.78617   0.00000  Uiso   1.00
O1054  O     0.90942   0.50000   0.88050   0.00000  Uiso   1.00
Zn1055 Zn    0.83333   0.49999   0.88437   0.00000  Uiso   1.00
Zn1056 Zn    0.83333   0.50001   0.78229   0.00000  Uiso   1.00
C1057  C     0.16644   0.75349   0.83315   0.00000  Uiso   1.00
C1058  C     0.20679   0.68907   0.86105   0.00000  Uiso   1.00
C1059  C     0.16657   0.95735   0.83377   0.00000  Uiso   1.00
C1060  C     0.16676   0.70932   0.83290   0.00000  Uiso   1.00
C1061  C     0.20009   0.85862   0.69521   0.00000  Uiso   1.00
C1062  C     0.13325   0.80805   0.97146   0.00000  Uiso   1.00
C1063  C     0.20010   0.85859   0.98058   0.00000  Uiso   1.00
C1064  C     0.13324   0.80808   0.68609   0.00000  Uiso   1.00
C1065  C     0.32294   0.81023   0.77193   0.00000  Uiso   1.00
C1066  C     0.01039   0.85644   0.89474   0.00000  Uiso   1.00
C1067  C     0.08567   0.70922   0.77644   0.00000  Uiso   1.00
C1068  C     0.16690   0.91317   0.83352   0.00000  Uiso   1.00
C1069  C     0.24767   0.95745   0.89023   0.00000  Uiso   1.00
C1070  C     0.08444   0.95409   0.77869   0.00000  Uiso   1.00
C1071  C     0.24889   0.71258   0.88797   0.00000  Uiso   1.00
C1072  C     0.06727   0.83319   0.82153   0.00000  Uiso   1.00
C1073  C     0.26606   0.83348   0.84514   0.00000  Uiso   1.00
C1074  C     0.01292   0.82871   0.81562   0.00000  Uiso   1.00
C1075  C     0.32041   0.83795   0.85104   0.00000  Uiso   1.00
C1076  C     0.12681   0.68747   0.80498   0.00000  Uiso   1.00
C1077  C     0.20652   0.97920   0.86169   0.00000  Uiso   1.00
C1078  C     0.12654   0.97760   0.80562   0.00000  Uiso   1.00
H1079  H     0.22684   0.87881   0.71703   0.00000  Uiso   1.00
H1080  H     0.10649   0.78786   0.94963   0.00000  Uiso   1.00
H1081  H     0.22684   0.87875   0.96605   0.00000  Uiso   1.00
H1082  H     0.10649   0.78791   0.70061   0.00000  Uiso   1.00
N1083  N     0.16665   0.83332   0.95240   0.00000  Uiso   1.00
N1084  N     0.16668   0.83334   0.71427   0.00000  Uiso   1.00
N1085  N     0.30453   0.79571   0.73719   0.00000  Uiso   1.00
N1086  N     0.02881   0.87096   0.92948   0.00000  Uiso   1.00
N1087  N     0.05289   0.72634   0.75352   0.00000  Uiso   1.00
N1088  N     0.28044   0.94032   0.91315   0.00000  Uiso   1.00
N1089  N     0.05095   0.93536   0.75732   0.00000  Uiso   1.00
N1090  N     0.28238   0.73130   0.90934   0.00000  Uiso   1.00
O1091  O     0.16666   0.77225   0.87154   0.00000  Uiso   1.00
O1092  O     0.16667   0.89442   0.79513   0.00000  Uiso   1.00
O1093  O     0.16666   0.77226   0.79510   0.00000  Uiso   1.00
O1094  O     0.16667   0.89441   0.87157   0.00000  Uiso   1.00
O1095  O     0.09058   0.83333   0.86261   0.00000  Uiso   1.00
O1096  O     0.24275   0.83334   0.80405   0.00000  Uiso   1.00
O1097  O     0.09058   0.83334   0.78617   0.00000  Uiso   1.00
O1098  O     0.24275   0.83333   0.88050   0.00000  Uiso   1.00
Zn1099 Zn    0.16667   0.83333   0.88437   0.00000  Uiso   1.00
Zn1100 Zn    0.16667   0.83334   0.78229   0.00000  Uiso   1.00
C1101  C     0.49977   0.75349   0.83315   0.00000  Uiso   1.00
C1102  C     0.54012   0.68907   0.86105   0.00000  Uiso   1.00
C1103  C     0.49990   0.95735   0.83377   0.00000  Uiso   1.00
C1104  C     0.50010   0.70932   0.83290   0.00000  Uiso   1.00
C1105  C     0.53342   0.85862   0.69521   0.00000  Uiso   1.00
C1106  C     0.46658   0.80805   0.97146   0.00000  Uiso   1.00
C1107  C     0.53343   0.85859   0.98058   0.00000  Uiso   1.00
C1108  C     0.46657   0.80808   0.68609   0.00000  Uiso   1.00
C1109  C     0.65628   0.81023   0.77193   0.00000  Uiso   1.00
C1110  C     0.34372   0.85644   0.89474   0.00000  Uiso   1.00
C1111  C     0.41900   0.70922   0.77644   0.00000  Uiso   1.00
C1112  C     0.50023   0.91317   0.83352   0.00000  Uiso   1.00
C1113  C     0.58100   0.95745   0.89023   0.00000  Uiso   1.00
C1114  C     0.41777   0.95409   0.77869   0.00000  Uiso   1.00
C1115  C     0.58223   0.71258   0.88797   0.00000  Uiso   1.00
C1116  C     0.40060   0.83319   0.82153   0.00000  Uiso   1.00
C1117  C     0.59940   0.83348   0.84514   0.00000  Uiso   1.00
C1118  C     0.34626   0.82871   0.81562   0.00000  Uiso   1.00
C1119  C     0.65375   0.83795   0.85104   0.00000  Uiso   1.00
C1120  C     0.46014   0.68747   0.80498   0.00000  Uiso   1.00
C1121  C     0.53986   0.97920   0.86169   0.00000  Uiso   1.00
C1122  C     0.45988   0.97760   0.80562   0.00000  Uiso   1.00
H1123  H     0.56017   0.87881   0.71703   0.00000  Uiso   1.00
H1124  H     0.43983   0.78786   0.94963   0.00000  Uiso   1.00
H1125  H     0.56017   0.87875   0.96605   0.00000  Uiso   1.00
H1126  H     0.43983   0.78791   0.70061   0.00000  Uiso   1.00
N1127  N     0.49999   0.83332   0.95240   0.00000  Uiso   1.00
N1128  N     0.50001   0.83334   0.71427   0.00000  Uiso   1.00
N1129  N     0.63786   0.79571   0.73719   0.00000  Uiso   1.00
N1130  N     0.36214   0.87096   0.92948   0.00000  Uiso   1.00
N1131  N     0.38623   0.72634   0.75352   0.00000  Uiso   1.00
N1132  N     0.61377   0.94032   0.91315   0.00000  Uiso   1.00
N1133  N     0.38429   0.93536   0.75732   0.00000  Uiso   1.00
N1134  N     0.61571   0.73130   0.90934   0.00000  Uiso   1.00
O1135  O     0.50000   0.77225   0.87154   0.00000  Uiso   1.00
O1136  O     0.50000   0.89442   0.79513   0.00000  Uiso   1.00
O1137  O     0.50000   0.77226   0.79510   0.00000  Uiso   1.00
O1138  O     0.50000   0.89441   0.87157   0.00000  Uiso   1.00
O1139  O     0.42392   0.83333   0.86261   0.00000  Uiso   1.00
O1140  O     0.57608   0.83334   0.80405   0.00000  Uiso   1.00
O1141  O     0.42392   0.83334   0.78617   0.00000  Uiso   1.00
O1142  O     0.57608   0.83333   0.88050   0.00000  Uiso   1.00
Zn1143 Zn    0.50000   0.83333   0.88437   0.00000  Uiso   1.00
Zn1144 Zn    0.50000   0.83334   0.78229   0.00000  Uiso   1.00
C1145  C     0.83310   0.75349   0.83315   0.00000  Uiso   1.00
C1146  C     0.87346   0.68907   0.86105   0.00000  Uiso   1.00
C1147  C     0.83324   0.95735   0.83377   0.00000  Uiso   1.00
C1148  C     0.83343   0.70932   0.83290   0.00000  Uiso   1.00
C1149  C     0.86675   0.85862   0.69521   0.00000  Uiso   1.00
C1150  C     0.79991   0.80805   0.97146   0.00000  Uiso   1.00
C1151  C     0.86676   0.85859   0.98058   0.00000  Uiso   1.00
C1152  C     0.79990   0.80808   0.68609   0.00000  Uiso   1.00
C1153  C     0.98961   0.81023   0.77193   0.00000  Uiso   1.00
C1154  C     0.67706   0.85644   0.89474   0.00000  Uiso   1.00
C1155  C     0.75233   0.70922   0.77644   0.00000  Uiso   1.00
C1156  C     0.83356   0.91317   0.83352   0.00000  Uiso   1.00
C1157  C     0.91433   0.95745   0.89023   0.00000  Uiso   1.00
C1158  C     0.75111   0.95409   0.77869   0.00000  Uiso   1.00
C1159  C     0.91556   0.71258   0.88797   0.00000  Uiso   1.00
C1160  C     0.73394   0.83319   0.82153   0.00000  Uiso   1.00
C1161  C     0.93273   0.83348   0.84514   0.00000  Uiso   1.00
C1162  C     0.67959   0.82871   0.81562   0.00000  Uiso   1.00
C1163  C     0.98708   0.83795   0.85104   0.00000  Uiso   1.00
C1164  C     0.79348   0.68747   0.80498   0.00000  Uiso   1.00
C1165  C     0.87319   0.97920   0.86169   0.00000  Uiso   1.00
C1166  C     0.79321   0.97760   0.80562   0.00000  Uiso   1.00
H1167  H     0.89351   0.87881   0.71703   0.00000  Uiso   1.00
H1168  H     0.77316   0.78786   0.94963   0.00000  Uiso   1.00
H1169  H     0.89351   0.87875   0.96605   0.00000  Uiso   1.00
H1170  H     0.77316   0.78791   0.70061   0.00000  Uiso   1.00
N1171  N     0.83332   0.83332   0.95240   0.00000  Uiso   1.00
N1172  N     0.83335   0.83334   0.71427   0.00000  Uiso   1.00
N1173  N     0.97119   0.79571   0.73719   0.00000  Uiso   1.00
N1174  N     0.69547   0.87096   0.92948   0.00000  Uiso   1.00
N1175  N     0.71956   0.72634   0.75352   0.00000  Uiso   1.00
N1176  N     0.94711   0.94032   0.91315   0.00000  Uiso   1.00
N1177  N     0.71762   0.93536   0.75732   0.00000  Uiso   1.00
N1178  N     0.94905   0.73130   0.90934   0.00000  Uiso   1.00
O1179  O     0.83333   0.77225   0.87154   0.00000  Uiso   1.00
O1180  O     0.83334   0.89442   0.79513   0.00000  Uiso   1.00
O1181  O     0.83333   0.77226   0.79510   0.00000  Uiso   1.00
O1182  O     0.83334   0.89441   0.87157   0.00000  Uiso   1.00
O1183  O     0.75725   0.83333   0.86261   0.00000  Uiso   1.00
O1184  O     0.90942   0.83334   0.80405   0.00000  Uiso   1.00
O1185  O     0.75725   0.83334   0.78617   0.00000  Uiso   1.00
O1186  O     0.90942   0.83333   0.88050   0.00000  Uiso   1.00
Zn1187 Zn    0.83333   0.83333   0.88437   0.00000  Uiso   1.00
Zn1188 Zn    0.83333   0.83334   0.78229   0.00000  Uiso   1.00
loop_
_geom_bond_atom_site_label_1
_geom_bond_atom_site_label_2
_geom_bond_distance
_geom_bond_site_symmetry_2
_ccdc_geom_bond_type
C1     O37     1.278   .     A
C1     C4      1.416   .     S
C1     O35     1.279   .     A
C2     C4      1.405   .     A
C2     C15     1.455   .     S
C2     C285    1.385   1_545 S
C3     C21     1.405   .     A
C3     C22     1.405   .     A
C3     C12     1.416   .     S
C4     C20     1.405   .     A
C5     N28     1.366   .     A
C5     H23     1.082   .     S
C5     C799    1.416   1_554 S
C6     N27     1.366   .     A
C6     H24     1.082   .     S
C6     C404    1.416   .     S
C7     H25     1.082   .     S
C7     N27     1.366   .     A
C7     C401    1.416   .     S
C8     H26     1.082   .     S
C8     N28     1.366   .     A
C8     C798    1.416   1_554 S
C9     N29     1.158   .     T
C9     C62     1.460   .     S
C10    N30     1.158   .     T
C10    C107    1.460   1_455 S
C11    C20     1.453   .     S
C11    N31     1.157   .     T
C12    O36     1.279   .     A
C12    O38     1.278   .     A
C13    C21     1.453   .     S
C13    N32     1.157   .     T
C14    C22     1.456   .     S
C14    N33     1.157   .     T
C15    N34     1.157   .     T
C16    O39     1.273   .     A
C16    C18     1.410   .     S
C16    O41     1.285   .     A
C17    C19     1.410   .     S
C17    O42     1.285   .     A
C17    O40     1.273   .     A
C18    C97     1.460   1_455 S
C18    C107    1.361   1_455 S
C19    C62     1.361   .     S
C19    C54     1.460   .     S
C20    C286    1.385   1_545 S
C21    C134    1.385   .     S
C22    C152    1.385   .     S
N27    Zn43    2.008   .     S
N28    Zn44    2.008   .     S
O35    Zn43    1.991   .     S
O36    Zn44    1.991   .     S
O37    Zn44    1.996   .     S
O38    Zn43    1.996   .     S
O39    Zn43    1.997   .     S
O40    Zn44    1.997   .     S
O41    Zn44    2.009   .     S
O42    Zn43    2.009   .     S
C45    O81     1.278   .     A
C45    C48     1.416   .     S
C45    O79     1.279   .     A
C46    C48     1.405   .     A
C46    C59     1.455   .     S
C46    C329    1.385   1_545 S
C47    C65     1.405   .     A
C47    C66     1.405   .     A
C47    C56     1.416   .     S
C48    C64     1.405   .     A
C49    N72     1.366   .     A
C49    H67     1.082   .     S
C49    C843    1.416   1_554 S
C50    N71     1.366   .     A
C50    H68     1.082   .     S
C50    C448    1.416   .     S
C51    H69     1.082   .     S
C51    N71     1.366   .     A
C51    C445    1.416   .     S
C52    H70     1.082   .     S
C52    N72     1.366   .     A
C52    C842    1.416   1_554 S
C53    N73     1.158   .     T
C53    C106    1.460   .     S
C54    N74     1.158   .     T
C55    C64     1.453   .     S
C55    N75     1.157   .     T
C56    O80     1.279   .     A
C56    O82     1.278   .     A
C57    C65     1.453   .     S
C57    N76     1.157   .     T
C58    C66     1.456   .     S
C58    N77     1.157   .     T
C59    N78     1.157   .     T
C60    O83     1.273   .     A
C60    C62     1.410   .     S
C60    O85     1.285   .     A
C61    C63     1.410   .     S
C61    O86     1.285   .     A
C61    O84     1.273   .     A
C63    C106    1.361   .     S
C63    C98     1.460   .     S
C64    C330    1.385   1_545 S
C65    C178    1.385   .     S
C66    C196    1.385   .     S
N71    Zn87    2.008   .     S
N72    Zn88    2.008   .     S
O79    Zn87    1.991   .     S
O80    Zn88    1.991   .     S
O81    Zn88    1.996   .     S
O82    Zn87    1.996   .     S
O83    Zn87    1.997   .     S
O84    Zn88    1.997   .     S
O85    Zn88    2.009   .     S
O86    Zn87    2.009   .     S
C89    O125    1.278   .     A
C89    C92     1.416   .     S
C89    O123    1.279   .     A
C90    C92     1.405   .     A
C90    C103    1.455   .     S
C90    C373    1.385   1_545 S
C91    C109    1.405   .     A
C91    C110    1.405   .     A
C91    C100    1.416   .     S
C92    C108    1.405   .     A
C93    N116    1.366   .     A
C93    H111    1.082   .     S
C93    C887    1.416   1_554 S
C94    N115    1.366   .     A
C94    H112    1.082   .     S
C94    C492    1.416   .     S
C95    H113    1.082   .     S
C95    N115    1.366   .     A
C95    C489    1.416   .     S
C96    H114    1.082   .     S
C96    N116    1.366   .     A
C96    C886    1.416   1_554 S
C97    N117    1.158   .     T
C97    C18     1.460   1_655 S
C98    N118    1.158   .     T
C99    C108    1.453   .     S
C99    N119    1.157   .     T
C100   O124    1.279   .     A
C100   O126    1.278   .     A
C101   C109    1.453   .     S
C101   N120    1.157   .     T
C102   C110    1.456   .     S
C102   N121    1.157   .     T
C103   N122    1.157   .     T
C104   O127    1.273   .     A
C104   C106    1.410   .     S
C104   O129    1.285   .     A
C105   C107    1.410   .     S
C105   O130    1.285   .     A
C105   O128    1.273   .     A
C107   C18     1.361   1_655 S
C107   C10     1.460   1_655 S
C108   C374    1.385   1_545 S
C109   C222    1.385   .     S
C110   C240    1.385   .     S
N115   Zn131   2.008   .     S
N116   Zn132   2.008   .     S
O123   Zn131   1.991   .     S
O124   Zn132   1.991   .     S
O125   Zn132   1.996   .     S
O126   Zn131   1.996   .     S
O127   Zn131   1.997   .     S
O128   Zn132   1.997   .     S
O129   Zn132   2.009   .     S
O130   Zn131   2.009   .     S
C133   O169    1.278   .     A
C133   C136    1.416   .     S
C133   O167    1.279   .     A
C134   C136    1.405   .     A
C134   C147    1.455   .     S
C135   C153    1.405   .     A
C135   C154    1.405   .     A
C135   C144    1.416   .     S
C136   C152    1.405   .     A
C137   N160    1.366   .     A
C137   H155    1.082   .     S
C137   C931    1.416   1_554 S
C138   N159    1.366   .     A
C138   H156    1.082   .     S
C138   C536    1.416   .     S
C139   H157    1.082   .     S
C139   N159    1.366   .     A
C139   C533    1.416   .     S
C140   H158    1.082   .     S
C140   N160    1.366   .     A
C140   C930    1.416   1_554 S
C141   N161    1.158   .     T
C141   C194    1.460   .     S
C142   N162    1.158   .     T
C142   C239    1.460   1_455 S
C143   C152    1.453   .     S
C143   N163    1.157   .     T
C144   O168    1.279   .     A
C144   O170    1.278   .     A
C145   C153    1.453   .     S
C145   N164    1.157   .     T
C146   C154    1.456   .     S
C146   N165    1.157   .     T
C147   N166    1.157   .     T
C148   O171    1.273   .     A
C148   C150    1.410   .     S
C148   O173    1.285   .     A
C149   C151    1.410   .     S
C149   O174    1.285   .     A
C149   O172    1.273   .     A
C150   C229    1.460   1_455 S
C150   C239    1.361   1_455 S
C151   C194    1.361   .     S
C151   C186    1.460   .     S
C153   C266    1.385   .     S
C154   C284    1.385   .     S
N159   Zn175   2.008   .     S
N160   Zn176   2.008   .     S
O167   Zn175   1.991   .     S
O168   Zn176   1.991   .     S
O169   Zn176   1.996   .     S
O170   Zn175   1.996   .     S
O171   Zn175   1.997   .     S
O172   Zn176   1.997   .     S
O173   Zn176   2.009   .     S
O174   Zn175   2.009   .     S
C177   O213    1.278   .     A
C177   C180    1.416   .     S
C177   O211    1.279   .     A
C178   C180    1.405   .     A
C178   C191    1.455   .     S
C179   C197    1.405   .     A
C179   C198    1.405   .     A
C179   C188    1.416   .     S
C180   C196    1.405   .     A
C181   N204    1.366   .     A
C181   H199    1.082   .     S
C181   C975    1.416   1_554 S
C182   N203    1.366   .     A
C182   H200    1.082   .     S
C182   C580    1.416   .     S
C183   H201    1.082   .     S
C183   N203    1.366   .     A
C183   C577    1.416   .     S
C184   H202    1.082   .     S
C184   N204    1.366   .     A
C184   C974    1.416   1_554 S
C185   N205    1.158   .     T
C185   C238    1.460   .     S
C186   N206    1.158   .     T
C187   C196    1.453   .     S
C187   N207    1.157   .     T
C188   O212    1.279   .     A
C188   O214    1.278   .     A
C189   C197    1.453   .     S
C189   N208    1.157   .     T
C190   C198    1.456   .     S
C190   N209    1.157   .     T
C191   N210    1.157   .     T
C192   O215    1.273   .     A
C192   C194    1.410   .     S
C192   O217    1.285   .     A
C193   C195    1.410   .     S
C193   O218    1.285   .     A
C193   O216    1.273   .     A
C195   C238    1.361   .     S
C195   C230    1.460   .     S
C197   C310    1.385   .     S
C198   C328    1.385   .     S
N203   Zn219   2.008   .     S
N204   Zn220   2.008   .     S
O211   Zn219   1.991   .     S
O212   Zn220   1.991   .     S
O213   Zn220   1.996   .     S
O214   Zn219   1.996   .     S
O215   Zn219   1.997   .     S
O216   Zn220   1.997   .     S
O217   Zn220   2.009   .     S
O218   Zn219   2.009   .     S
C221   O257    1.278   .     A
C221   C224    1.416   .     S
C221   O255    1.279   .     A
C222   C224    1.405   .     A
C222   C235    1.455   .     S
C223   C241    1.405   .     A
C223   C242    1.405   .     A
C223   C232    1.416   .     S
C224   C240    1.405   .     A
C225   N248    1.366   .     A
C225   H243    1.082   .     S
C225   C1019   1.416   1_554 S
C226   N247    1.366   .     A
C226   H244    1.082   .     S
C226   C624    1.416   .     S
C227   H245    1.082   .     S
C227   N247    1.366   .     A
C227   C621    1.416   .     S
C228   H246    1.082   .     S
C228   N248    1.366   .     A
C228   C1018   1.416   1_554 S
C229   N249    1.158   .     T
C229   C150    1.460   1_655 S
C230   N250    1.158   .     T
C231   C240    1.453   .     S
C231   N251    1.157   .     T
C232   O256    1.279   .     A
C232   O258    1.278   .     A
C233   C241    1.453   .     S
C233   N252    1.157   .     T
C234   C242    1.456   .     S
C234   N253    1.157   .     T
C235   N254    1.157   .     T
C236   O259    1.273   .     A
C236   C238    1.410   .     S
C236   O261    1.285   .     A
C237   C239    1.410   .     S
C237   O262    1.285   .     A
C237   O260    1.273   .     A
C239   C150    1.361   1_655 S
C239   C142    1.460   1_655 S
C241   C354    1.385   .     S
C242   C372    1.385   .     S
N247   Zn263   2.008   .     S
N248   Zn264   2.008   .     S
O255   Zn263   1.991   .     S
O256   Zn264   1.991   .     S
O257   Zn264   1.996   .     S
O258   Zn263   1.996   .     S
O259   Zn263   1.997   .     S
O260   Zn264   1.997   .     S
O261   Zn264   2.009   .     S
O262   Zn263   2.009   .     S
C265   O301    1.278   .     A
C265   C268    1.416   .     S
C265   O299    1.279   .     A
C266   C268    1.405   .     A
C266   C279    1.455   .     S
C267   C285    1.405   .     A
C267   C286    1.405   .     A
C267   C276    1.416   .     S
C268   C284    1.405   .     A
C269   N292    1.366   .     A
C269   H287    1.082   .     S
C269   C1063   1.416   1_554 S
C270   N291    1.366   .     A
C270   H288    1.082   .     S
C270   C668    1.416   .     S
C271   H289    1.082   .     S
C271   N291    1.366   .     A
C271   C665    1.416   .     S
C272   H290    1.082   .     S
C272   N292    1.366   .     A
C272   C1062   1.416   1_554 S
C273   N293    1.158   .     T
C273   C326    1.460   .     S
C274   N294    1.158   .     T
C274   C371    1.460   1_455 S
C275   C284    1.453   .     S
C275   N295    1.157   .     T
C276   O300    1.279   .     A
C276   O302    1.278   .     A
C277   C285    1.453   .     S
C277   N296    1.157   .     T
C278   C286    1.456   .     S
C278   N297    1.157   .     T
C279   N298    1.157   .     T
C280   O303    1.273   .     A
C280   C282    1.410   .     S
C280   O305    1.285   .     A
C281   C283    1.410   .     S
C281   O306    1.285   .     A
C281   O304    1.273   .     A
C282   C361    1.460   1_455 S
C282   C371    1.361   1_455 S
C283   C326    1.361   .     S
C283   C318    1.460   .     S
C285   C2      1.385   1_565 S
C286   C20     1.385   1_565 S
N291   Zn307   2.008   .     S
N292   Zn308   2.008   .     S
O299   Zn307   1.991   .     S
O300   Zn308   1.991   .     S
O301   Zn308   1.996   .     S
O302   Zn307   1.996   .     S
O303   Zn307   1.997   .     S
O304   Zn308   1.997   .     S
O305   Zn308   2.009   .     S
O306   Zn307   2.009   .     S
C309   O345    1.278   .     A
C309   C312    1.416   .     S
C309   O343    1.279   .     A
C310   C312    1.405   .     A
C310   C323    1.455   .     S
C311   C329    1.405   .     A
C311   C330    1.405   .     A
C311   C320    1.416   .     S
C312   C328    1.405   .     A
C313   N336    1.366   .     A
C313   H331    1.082   .     S
C313   C1107   1.416   1_554 S
C314   N335    1.366   .     A
C314   H332    1.082   .     S
C314   C712    1.416   .     S
C315   H333    1.082   .     S
C315   N335    1.366   .     A
C315   C709    1.416   .     S
C316   H334    1.082   .     S
C316   N336    1.366   .     A
C316   C1106   1.416   1_554 S
C317   N337    1.158   .     T
C317   C370    1.460   .     S
C318   N338    1.158   .     T
C319   C328    1.453   .     S
C319   N339    1.157   .     T
C320   O344    1.279   .     A
C320   O346    1.278   .     A
C321   C329    1.453   .     S
C321   N340    1.157   .     T
C322   C330    1.456   .     S
C322   N341    1.157   .     T
C323   N342    1.157   .     T
C324   O347    1.273   .     A
C324   C326    1.410   .     S
C324   O349    1.285   .     A
C325   C327    1.410   .     S
C325   O350    1.285   .     A
C325   O348    1.273   .     A
C327   C370    1.361   .     S
C327   C362    1.460   .     S
C329   C46     1.385   1_565 S
C330   C64     1.385   1_565 S
N335   Zn351   2.008   .     S
N336   Zn352   2.008   .     S
O343   Zn351   1.991   .     S
O344   Zn352   1.991   .     S
O345   Zn352   1.996   .     S
O346   Zn351   1.996   .     S
O347   Zn351   1.997   .     S
O348   Zn352   1.997   .     S
O349   Zn352   2.009   .     S
O350   Zn351   2.009   .     S
C353   O389    1.278   .     A
C353   C356    1.416   .     S
C353   O387    1.279   .     A
C354   C356    1.405   .     A
C354   C367    1.455   .     S
C355   C373    1.405   .     A
C355   C374    1.405   .     A
C355   C364    1.416   .     S
C356   C372    1.405   .     A
C357   N380    1.366   .     A
C357   H375    1.082   .     S
C357   C1151   1.416   1_554 S
C358   N379    1.366   .     A
C358   H376    1.082   .     S
C358   C756    1.416   .     S
C359   H377    1.082   .     S
C359   N379    1.366   .     A
C359   C753    1.416   .     S
C360   H378    1.082   .     S
C360   N380    1.366   .     A
C360   C1150   1.416   1_554 S
C361   N381    1.158   .     T
C361   C282    1.460   1_655 S
C362   N382    1.158   .     T
C363   C372    1.453   .     S
C363   N383    1.157   .     T
C364   O388    1.279   .     A
C364   O390    1.278   .     A
C365   C373    1.453   .     S
C365   N384    1.157   .     T
C366   C374    1.456   .     S
C366   N385    1.157   .     T
C367   N386    1.157   .     T
C368   O391    1.273   .     A
C368   C370    1.410   .     S
C368   O393    1.285   .     A
C369   C371    1.410   .     S
C369   O394    1.285   .     A
C369   O392    1.273   .     A
C371   C282    1.361   1_655 S
C371   C274    1.460   1_655 S
C373   C90     1.385   1_565 S
C374   C108    1.385   1_565 S
N379   Zn395   2.008   .     S
N380   Zn396   2.008   .     S
O387   Zn395   1.991   .     S
O388   Zn396   1.991   .     S
O389   Zn396   1.996   .     S
O390   Zn395   1.996   .     S
O391   Zn395   1.997   .     S
O392   Zn396   1.997   .     S
O393   Zn396   2.009   .     S
O394   Zn395   2.009   .     S
C397   O433    1.278   .     A
C397   C400    1.416   .     S
C397   O431    1.279   .     A
C398   C400    1.405   .     A
C398   C411    1.455   .     S
C398   C681    1.385   1_545 S
C399   C417    1.405   .     A
C399   C418    1.405   .     A
C399   C408    1.416   .     S
C400   C416    1.405   .     A
C401   N424    1.366   .     A
C401   H419    1.082   .     S
C402   N423    1.366   .     A
C402   H420    1.082   .     S
C402   C800    1.416   .     S
C403   H421    1.082   .     S
C403   N423    1.366   .     A
C403   C797    1.416   .     S
C404   H422    1.082   .     S
C404   N424    1.366   .     A
C405   N425    1.158   .     T
C405   C458    1.460   .     S
C406   N426    1.158   .     T
C406   C503    1.460   1_455 S
C407   C416    1.453   .     S
C407   N427    1.157   .     T
C408   O432    1.279   .     A
C408   O434    1.278   .     A
C409   C417    1.453   .     S
C409   N428    1.157   .     T
C410   C418    1.456   .     S
C410   N429    1.157   .     T
C411   N430    1.157   .     T
C412   O435    1.273   .     A
C412   C414    1.410   .     S
C412   O437    1.285   .     A
C413   C415    1.410   .     S
C413   O438    1.285   .     A
C413   O436    1.273   .     A
C414   C493    1.460   1_455 S
C414   C503    1.361   1_455 S
C415   C458    1.361   .     S
C415   C450    1.460   .     S
C416   C682    1.385   1_545 S
C417   C530    1.385   .     S
C418   C548    1.385   .     S
N423   Zn439   2.008   .     S
N424   Zn440   2.008   .     S
O431   Zn439   1.991   .     S
O432   Zn440   1.991   .     S
O433   Zn440   1.996   .     S
O434   Zn439   1.996   .     S
O435   Zn439   1.997   .     S
O436   Zn440   1.997   .     S
O437   Zn440   2.009   .     S
O438   Zn439   2.009   .     S
C441   O477    1.278   .     A
C441   C444    1.416   .     S
C441   O475    1.279   .     A
C442   C444    1.405   .     A
C442   C455    1.455   .     S
C442   C725    1.385   1_545 S
C443   C461    1.405   .     A
C443   C462    1.405   .     A
C443   C452    1.416   .     S
C444   C460    1.405   .     A
C445   N468    1.366   .     A
C445   H463    1.082   .     S
C446   N467    1.366   .     A
C446   H464    1.082   .     S
C446   C844    1.416   .     S
C447   H465    1.082   .     S
C447   N467    1.366   .     A
C447   C841    1.416   .     S
C448   H466    1.082   .     S
C448   N468    1.366   .     A
C449   N469    1.158   .     T
C449   C502    1.460   .     S
C450   N470    1.158   .     T
C451   C460    1.453   .     S
C451   N471    1.157   .     T
C452   O476    1.279   .     A
C452   O478    1.278   .     A
C453   C461    1.453   .     S
C453   N472    1.157   .     T
C454   C462    1.456   .     S
C454   N473    1.157   .     T
C455   N474    1.157   .     T
C456   O479    1.273   .     A
C456   C458    1.410   .     S
C456   O481    1.285   .     A
C457   C459    1.410   .     S
C457   O482    1.285   .     A
C457   O480    1.273   .     A
C459   C502    1.361   .     S
C459   C494    1.460   .     S
C460   C726    1.385   1_545 S
C461   C574    1.385   .     S
C462   C592    1.385   .     S
N467   Zn483   2.008   .     S
N468   Zn484   2.008   .     S
O475   Zn483   1.991   .     S
O476   Zn484   1.991   .     S
O477   Zn484   1.996   .     S
O478   Zn483   1.996   .     S
O479   Zn483   1.997   .     S
O480   Zn484   1.997   .     S
O481   Zn484   2.009   .     S
O482   Zn483   2.009   .     S
C485   O521    1.278   .     A
C485   C488    1.416   .     S
C485   O519    1.279   .     A
C486   C488    1.405   .     A
C486   C499    1.455   .     S
C486   C769    1.385   1_545 S
C487   C505    1.405   .     A
C487   C506    1.405   .     A
C487   C496    1.416   .     S
C488   C504    1.405   .     A
C489   N512    1.366   .     A
C489   H507    1.082   .     S
C490   N511    1.366   .     A
C490   H508    1.082   .     S
C490   C888    1.416   .     S
C491   H509    1.082   .     S
C491   N511    1.366   .     A
C491   C885    1.416   .     S
C492   H510    1.082   .     S
C492   N512    1.366   .     A
C493   N513    1.158   .     T
C493   C414    1.460   1_655 S
C494   N514    1.158   .     T
C495   C504    1.453   .     S
C495   N515    1.157   .     T
C496   O520    1.279   .     A
C496   O522    1.278   .     A
C497   C505    1.453   .     S
C497   N516    1.157   .     T
C498   C506    1.456   .     S
C498   N517    1.157   .     T
C499   N518    1.157   .     T
C500   O523    1.273   .     A
C500   C502    1.410   .     S
C500   O525    1.285   .     A
C501   C503    1.410   .     S
C501   O526    1.285   .     A
C501   O524    1.273   .     A
C503   C414    1.361   1_655 S
C503   C406    1.460   1_655 S
C504   C770    1.385   1_545 S
C505   C618    1.385   .     S
C506   C636    1.385   .     S
N511   Zn527   2.008   .     S
N512   Zn528   2.008   .     S
O519   Zn527   1.991   .     S
O520   Zn528   1.991   .     S
O521   Zn528   1.996   .     S
O522   Zn527   1.996   .     S
O523   Zn527   1.997   .     S
O524   Zn528   1.997   .     S
O525   Zn528   2.009   .     S
O526   Zn527   2.009   .     S
C529   O565    1.278   .     A
C529   C532    1.416   .     S
C529   O563    1.279   .     A
C530   C532    1.405   .     A
C530   C543    1.455   .     S
C531   C549    1.405   .     A
C531   C550    1.405   .     A
C531   C540    1.416   .     S
C532   C548    1.405   .     A
C533   N556    1.366   .     A
C533   H551    1.082   .     S
C534   N555    1.366   .     A
C534   H552    1.082   .     S
C534   C932    1.416   .     S
C535   H553    1.082   .     S
C535   N555    1.366   .     A
C535   C929    1.416   .     S
C536   H554    1.082   .     S
C536   N556    1.366   .     A
C537   N557    1.158   .     T
C537   C590    1.460   .     S
C538   N558    1.158   .     T
C538   C635    1.460   1_455 S
C539   C548    1.453   .     S
C539   N559    1.157   .     T
C540   O564    1.279   .     A
C540   O566    1.278   .     A
C541   C549    1.453   .     S
C541   N560    1.157   .     T
C542   C550    1.456   .     S
C542   N561    1.157   .     T
C543   N562    1.157   .     T
C544   O567    1.273   .     A
C544   C546    1.410   .     S
C544   O569    1.285   .     A
C545   C547    1.410   .     S
C545   O570    1.285   .     A
C545   O568    1.273   .     A
C546   C625    1.460   1_455 S
C546   C635    1.361   1_455 S
C547   C590    1.361   .     S
C547   C582    1.460   .     S
C549   C662    1.385   .     S
C550   C680    1.385   .     S
N555   Zn571   2.008   .     S
N556   Zn572   2.008   .     S
O563   Zn571   1.991   .     S
O564   Zn572   1.991   .     S
O565   Zn572   1.996   .     S
O566   Zn571   1.996   .     S
O567   Zn571   1.997   .     S
O568   Zn572   1.997   .     S
O569   Zn572   2.009   .     S
O570   Zn571   2.009   .     S
C573   O609    1.278   .     A
C573   C576    1.416   .     S
C573   O607    1.279   .     A
C574   C576    1.405   .     A
C574   C587    1.455   .     S
C575   C593    1.405   .     A
C575   C594    1.405   .     A
C575   C584    1.416   .     S
C576   C592    1.405   .     A
C577   N600    1.366   .     A
C577   H595    1.082   .     S
C578   N599    1.366   .     A
C578   H596    1.082   .     S
C578   C976    1.416   .     S
C579   H597    1.082   .     S
C579   N599    1.366   .     A
C579   C973    1.416   .     S
C580   H598    1.082   .     S
C580   N600    1.366   .     A
C581   N601    1.158   .     T
C581   C634    1.460   .     S
C582   N602    1.158   .     T
C583   C592    1.453   .     S
C583   N603    1.157   .     T
C584   O608    1.279   .     A
C584   O610    1.278   .     A
C585   C593    1.453   .     S
C585   N604    1.157   .     T
C586   C594    1.456   .     S
C586   N605    1.157   .     T
C587   N606    1.157   .     T
C588   O611    1.273   .     A
C588   C590    1.410   .     S
C588   O613    1.285   .     A
C589   C591    1.410   .     S
C589   O614    1.285   .     A
C589   O612    1.273   .     A
C591   C634    1.361   .     S
C591   C626    1.460   .     S
C593   C706    1.385   .     S
C594   C724    1.385   .     S
N599   Zn615   2.008   .     S
N600   Zn616   2.008   .     S
O607   Zn615   1.991   .     S
O608   Zn616   1.991   .     S
O609   Zn616   1.996   .     S
O610   Zn615   1.996   .     S
O611   Zn615   1.997   .     S
O612   Zn616   1.997   .     S
O613   Zn616   2.009   .     S
O614   Zn615   2.009   .     S
C617   O653    1.278   .     A
C617   C620    1.416   .     S
C617   O651    1.279   .     A
C618   C620    1.405   .     A
C618   C631    1.455   .     S
C619   C637    1.405   .     A
C619   C638    1.405   .     A
C619   C628    1.416   .     S
C620   C636    1.405   .     A
C621   N644    1.366   .     A
C621   H639    1.082   .     S
C622   N643    1.366   .     A
C622   H640    1.082   .     S
C622   C1020   1.416   .     S
C623   H641    1.082   .     S
C623   N643    1.366   .     A
C623   C1017   1.416   .     S
C624   H642    1.082   .     S
C624   N644    1.366   .     A
C625   N645    1.158   .     T
C625   C546    1.460   1_655 S
C626   N646    1.158   .     T
C627   C636    1.453   .     S
C627   N647    1.157   .     T
C628   O652    1.279   .     A
C628   O654    1.278   .     A
C629   C637    1.453   .     S
C629   N648    1.157   .     T
C630   C638    1.456   .     S
C630   N649    1.157   .     T
C631   N650    1.157   .     T
C632   O655    1.273   .     A
C632   C634    1.410   .     S
C632   O657    1.285   .     A
C633   C635    1.410   .     S
C633   O658    1.285   .     A
C633   O656    1.273   .     A
C635   C546    1.361   1_655 S
C635   C538    1.460   1_655 S
C637   C750    1.385   .     S
C638   C768    1.385   .     S
N643   Zn659   2.008   .     S
N644   Zn660   2.008   .     S
O651   Zn659   1.991   .     S
O652   Zn660   1.991   .     S
O653   Zn660   1.996   .     S
O654   Zn659   1.996   .     S
O655   Zn659   1.997   .     S
O656   Zn660   1.997   .     S
O657   Zn660   2.009   .     S
O658   Zn659   2.009   .     S
C661   O697    1.278   .     A
C661   C664    1.416   .     S
C661   O695    1.279   .     A
C662   C664    1.405   .     A
C662   C675    1.455   .     S
C663   C681    1.405   .     A
C663   C682    1.405   .     A
C663   C672    1.416   .     S
C664   C680    1.405   .     A
C665   N688    1.366   .     A
C665   H683    1.082   .     S
C666   N687    1.366   .     A
C666   H684    1.082   .     S
C666   C1064   1.416   .     S
C667   H685    1.082   .     S
C667   N687    1.366   .     A
C667   C1061   1.416   .     S
C668   H686    1.082   .     S
C668   N688    1.366   .     A
C669   N689    1.158   .     T
C669   C722    1.460   .     S
C670   N690    1.158   .     T
C670   C767    1.460   1_455 S
C671   C680    1.453   .     S
C671   N691    1.157   .     T
C672   O696    1.279   .     A
C672   O698    1.278   .     A
C673   C681    1.453   .     S
C673   N692    1.157   .     T
C674   C682    1.456   .     S
C674   N693    1.157   .     T
C675   N694    1.157   .     T
C676   O699    1.273   .     A
C676   C678    1.410   .     S
C676   O701    1.285   .     A
C677   C679    1.410   .     S
C677   O702    1.285   .     A
C677   O700    1.273   .     A
C678   C757    1.460   1_455 S
C678   C767    1.361   1_455 S
C679   C722    1.361   .     S
C679   C714    1.460   .     S
C681   C398    1.385   1_565 S
C682   C416    1.385   1_565 S
N687   Zn703   2.008   .     S
N688   Zn704   2.008   .     S
O695   Zn703   1.991   .     S
O696   Zn704   1.991   .     S
O697   Zn704   1.996   .     S
O698   Zn703   1.996   .     S
O699   Zn703   1.997   .     S
O700   Zn704   1.997   .     S
O701   Zn704   2.009   .     S
O702   Zn703   2.009   .     S
C705   O741    1.278   .     A
C705   C708    1.416   .     S
C705   O739    1.279   .     A
C706   C708    1.405   .     A
C706   C719    1.455   .     S
C707   C725    1.405   .     A
C707   C726    1.405   .     A
C707   C716    1.416   .     S
C708   C724    1.405   .     A
C709   N732    1.366   .     A
C709   H727    1.082   .     S
C710   N731    1.366   .     A
C710   H728    1.082   .     S
C710   C1108   1.416   .     S
C711   H729    1.082   .     S
C711   N731    1.366   .     A
C711   C1105   1.416   .     S
C712   H730    1.082   .     S
C712   N732    1.366   .     A
C713   N733    1.158   .     T
C713   C766    1.460   .     S
C714   N734    1.158   .     T
C715   C724    1.453   .     S
C715   N735    1.157   .     T
C716   O740    1.279   .     A
C716   O742    1.278   .     A
C717   C725    1.453   .     S
C717   N736    1.157   .     T
C718   C726    1.456   .     S
C718   N737    1.157   .     T
C719   N738    1.157   .     T
C720   O743    1.273   .     A
C720   C722    1.410   .     S
C720   O745    1.285   .     A
C721   C723    1.410   .     S
C721   O746    1.285   .     A
C721   O744    1.273   .     A
C723   C766    1.361   .     S
C723   C758    1.460   .     S
C725   C442    1.385   1_565 S
C726   C460    1.385   1_565 S
N731   Zn747   2.008   .     S
N732   Zn748   2.008   .     S
O739   Zn747   1.991   .     S
O740   Zn748   1.991   .     S
O741   Zn748   1.996   .     S
O742   Zn747   1.996   .     S
O743   Zn747   1.997   .     S
O744   Zn748   1.997   .     S
O745   Zn748   2.009   .     S
O746   Zn747   2.009   .     S
C749   O785    1.278   .     A
C749   C752    1.416   .     S
C749   O783    1.279   .     A
C750   C752    1.405   .     A
C750   C763    1.455   .     S
C751   C769    1.405   .     A
C751   C770    1.405   .     A
C751   C760    1.416   .     S
C752   C768    1.405   .     A
C753   N776    1.366   .     A
C753   H771    1.082   .     S
C754   N775    1.366   .     A
C754   H772    1.082   .     S
C754   C1152   1.416   .     S
C755   H773    1.082   .     S
C755   N775    1.366   .     A
C755   C1149   1.416   .     S
C756   H774    1.082   .     S
C756   N776    1.366   .     A
C757   N777    1.158   .     T
C757   C678    1.460   1_655 S
C758   N778    1.158   .     T
C759   C768    1.453   .     S
C759   N779    1.157   .     T
C760   O784    1.279   .     A
C760   O786    1.278   .     A
C761   C769    1.453   .     S
C761   N780    1.157   .     T
C762   C770    1.456   .     S
C762   N781    1.157   .     T
C763   N782    1.157   .     T
C764   O787    1.273   .     A
C764   C766    1.410   .     S
C764   O789    1.285   .     A
C765   C767    1.410   .     S
C765   O790    1.285   .     A
C765   O788    1.273   .     A
C767   C678    1.361   1_655 S
C767   C670    1.460   1_655 S
C769   C486    1.385   1_565 S
C770   C504    1.385   1_565 S
N775   Zn791   2.008   .     S
N776   Zn792   2.008   .     S
O783   Zn791   1.991   .     S
O784   Zn792   1.991   .     S
O785   Zn792   1.996   .     S
O786   Zn791   1.996   .     S
O787   Zn791   1.997   .     S
O788   Zn792   1.997   .     S
O789   Zn792   2.009   .     S
O790   Zn791   2.009   .     S
C793   O829    1.278   .     A
C793   C796    1.416   .     S
C793   O827    1.279   .     A
C794   C796    1.405   .     A
C794   C807    1.455   .     S
C794   C1077   1.385   1_545 S
C795   C813    1.405   .     A
C795   C814    1.405   .     A
C795   C804    1.416   .     S
C796   C812    1.405   .     A
C797   N820    1.366   .     A
C797   H815    1.082   .     S
C798   N819    1.366   .     A
C798   H816    1.082   .     S
C798   C8      1.416   1_556 S
C799   H817    1.082   .     S
C799   N819    1.366   .     A
C799   C5      1.416   1_556 S
C800   H818    1.082   .     S
C800   N820    1.366   .     A
C801   N821    1.158   .     T
C801   C854    1.460   .     S
C802   N822    1.158   .     T
C802   C899    1.460   1_455 S
C803   C812    1.453   .     S
C803   N823    1.157   .     T
C804   O828    1.279   .     A
C804   O830    1.278   .     A
C805   C813    1.453   .     S
C805   N824    1.157   .     T
C806   C814    1.456   .     S
C806   N825    1.157   .     T
C807   N826    1.157   .     T
C808   O831    1.273   .     A
C808   C810    1.410   .     S
C808   O833    1.285   .     A
C809   C811    1.410   .     S
C809   O834    1.285   .     A
C809   O832    1.273   .     A
C810   C889    1.460   1_455 S
C810   C899    1.361   1_455 S
C811   C854    1.361   .     S
C811   C846    1.460   .     S
C812   C1078   1.385   1_545 S
C813   C926    1.385   .     S
C814   C944    1.385   .     S
N819   Zn835   2.008   .     S
N820   Zn836   2.008   .     S
O827   Zn835   1.991   .     S
O828   Zn836   1.991   .     S
O829   Zn836   1.996   .     S
O830   Zn835   1.996   .     S
O831   Zn835   1.997   .     S
O832   Zn836   1.997   .     S
O833   Zn836   2.009   .     S
O834   Zn835   2.009   .     S
C837   O873    1.278   .     A
C837   C840    1.416   .     S
C837   O871    1.279   .     A
C838   C840    1.405   .     A
C838   C851    1.455   .     S
C838   C1121   1.385   1_545 S
C839   C857    1.405   .     A
C839   C858    1.405   .     A
C839   C848    1.416   .     S
C840   C856    1.405   .     A
C841   N864    1.366   .     A
C841   H859    1.082   .     S
C842   N863    1.366   .     A
C842   H860    1.082   .     S
C842   C52     1.416   1_556 S
C843   H861    1.082   .     S
C843   N863    1.366   .     A
C843   C49     1.416   1_556 S
C844   H862    1.082   .     S
C844   N864    1.366   .     A
C845   N865    1.158   .     T
C845   C898    1.460   .     S
C846   N866    1.158   .     T
C847   C856    1.453   .     S
C847   N867    1.157   .     T
C848   O872    1.279   .     A
C848   O874    1.278   .     A
C849   C857    1.453   .     S
C849   N868    1.157   .     T
C850   C858    1.456   .     S
C850   N869    1.157   .     T
C851   N870    1.157   .     T
C852   O875    1.273   .     A
C852   C854    1.410   .     S
C852   O877    1.285   .     A
C853   C855    1.410   .     S
C853   O878    1.285   .     A
C853   O876    1.273   .     A
C855   C898    1.361   .     S
C855   C890    1.460   .     S
C856   C1122   1.385   1_545 S
C857   C970    1.385   .     S
C858   C988    1.385   .     S
N863   Zn879   2.008   .     S
N864   Zn880   2.008   .     S
O871   Zn879   1.991   .     S
O872   Zn880   1.991   .     S
O873   Zn880   1.996   .     S
O874   Zn879   1.996   .     S
O875   Zn879   1.997   .     S
O876   Zn880   1.997   .     S
O877   Zn880   2.009   .     S
O878   Zn879   2.009   .     S
C881   O917    1.278   .     A
C881   C884    1.416   .     S
C881   O915    1.279   .     A
C882   C884    1.405   .     A
C882   C895    1.455   .     S
C882   C1165   1.385   1_545 S
C883   C901    1.405   .     A
C883   C902    1.405   .     A
C883   C892    1.416   .     S
C884   C900    1.405   .     A
C885   N908    1.366   .     A
C885   H903    1.082   .     S
C886   N907    1.366   .     A
C886   H904    1.082   .     S
C886   C96     1.416   1_556 S
C887   H905    1.082   .     S
C887   N907    1.366   .     A
C887   C93     1.416   1_556 S
C888   H906    1.082   .     S
C888   N908    1.366   .     A
C889   N909    1.158   .     T
C889   C810    1.460   1_655 S
C890   N910    1.158   .     T
C891   C900    1.453   .     S
C891   N911    1.157   .     T
C892   O916    1.279   .     A
C892   O918    1.278   .     A
C893   C901    1.453   .     S
C893   N912    1.157   .     T
C894   C902    1.456   .     S
C894   N913    1.157   .     T
C895   N914    1.157   .     T
C896   O919    1.273   .     A
C896   C898    1.410   .     S
C896   O921    1.285   .     A
C897   C899    1.410   .     S
C897   O922    1.285   .     A
C897   O920    1.273   .     A
C899   C810    1.361   1_655 S
C899   C802    1.460   1_655 S
C900   C1166   1.385   1_545 S
C901   C1014   1.385   .     S
C902   C1032   1.385   .     S
N907   Zn923   2.008   .     S
N908   Zn924   2.008   .     S
O915   Zn923   1.991   .     S
O916   Zn924   1.991   .     S
O917   Zn924   1.996   .     S
O918   Zn923   1.996   .     S
O919   Zn923   1.997   .     S
O920   Zn924   1.997   .     S
O921   Zn924   2.009   .     S
O922   Zn923   2.009   .     S
C925   O961    1.278   .     A
C925   C928    1.416   .     S
C925   O959    1.279   .     A
C926   C928    1.405   .     A
C926   C939    1.455   .     S
C927   C945    1.405   .     A
C927   C946    1.405   .     A
C927   C936    1.416   .     S
C928   C944    1.405   .     A
C929   N952    1.366   .     A
C929   H947    1.082   .     S
C930   N951    1.366   .     A
C930   H948    1.082   .     S
C930   C140    1.416   1_556 S
C931   H949    1.082   .     S
C931   N951    1.366   .     A
C931   C137    1.416   1_556 S
C932   H950    1.082   .     S
C932   N952    1.366   .     A
C933   N953    1.158   .     T
C933   C986    1.460   .     S
C934   N954    1.158   .     T
C934   C1031   1.460   1_455 S
C935   C944    1.453   .     S
C935   N955    1.157   .     T
C936   O960    1.279   .     A
C936   O962    1.278   .     A
C937   C945    1.453   .     S
C937   N956    1.157   .     T
C938   C946    1.456   .     S
C938   N957    1.157   .     T
C939   N958    1.157   .     T
C940   O963    1.273   .     A
C940   C942    1.410   .     S
C940   O965    1.285   .     A
C941   C943    1.410   .     S
C941   O966    1.285   .     A
C941   O964    1.273   .     A
C942   C1021   1.460   1_455 S
C942   C1031   1.361   1_455 S
C943   C986    1.361   .     S
C943   C978    1.460   .     S
C945   C1058   1.385   .     S
C946   C1076   1.385   .     S
N951   Zn967   2.008   .     S
N952   Zn968   2.008   .     S
O959   Zn967   1.991   .     S
O960   Zn968   1.991   .     S
O961   Zn968   1.996   .     S
O962   Zn967   1.996   .     S
O963   Zn967   1.997   .     S
O964   Zn968   1.997   .     S
O965   Zn968   2.009   .     S
O966   Zn967   2.009   .     S
C969   O1005   1.278   .     A
C969   C972    1.416   .     S
C969   O1003   1.279   .     A
C970   C972    1.405   .     A
C970   C983    1.455   .     S
C971   C989    1.405   .     A
C971   C990    1.405   .     A
C971   C980    1.416   .     S
C972   C988    1.405   .     A
C973   N996    1.366   .     A
C973   H991    1.082   .     S
C974   N995    1.366   .     A
C974   H992    1.082   .     S
C974   C184    1.416   1_556 S
C975   H993    1.082   .     S
C975   N995    1.366   .     A
C975   C181    1.416   1_556 S
C976   H994    1.082   .     S
C976   N996    1.366   .     A
C977   N997    1.158   .     T
C977   C1030   1.460   .     S
C978   N998    1.158   .     T
C979   C988    1.453   .     S
C979   N999    1.157   .     T
C980   O1004   1.279   .     A
C980   O1006   1.278   .     A
C981   C989    1.453   .     S
C981   N1000   1.157   .     T
C982   C990    1.456   .     S
C982   N1001   1.157   .     T
C983   N1002   1.157   .     T
C984   O1007   1.273   .     A
C984   C986    1.410   .     S
C984   O1009   1.285   .     A
C985   C987    1.410   .     S
C985   O1010   1.285   .     A
C985   O1008   1.273   .     A
C987   C1030   1.361   .     S
C987   C1022   1.460   .     S
C989   C1102   1.385   .     S
C990   C1120   1.385   .     S
N995   Zn1011  2.008   .     S
N996   Zn1012  2.008   .     S
O1003  Zn1011  1.991   .     S
O1004  Zn1012  1.991   .     S
O1005  Zn1012  1.996   .     S
O1006  Zn1011  1.996   .     S
O1007  Zn1011  1.997   .     S
O1008  Zn1012  1.997   .     S
O1009  Zn1012  2.009   .     S
O1010  Zn1011  2.009   .     S
C1013  O1049   1.278   .     A
C1013  C1016   1.416   .     S
C1013  O1047   1.279   .     A
C1014  C1016   1.405   .     A
C1014  C1027   1.455   .     S
C1015  C1033   1.405   .     A
C1015  C1034   1.405   .     A
C1015  C1024   1.416   .     S
C1016  C1032   1.405   .     A
C1017  N1040   1.366   .     A
C1017  H1035   1.082   .     S
C1018  N1039   1.366   .     A
C1018  H1036   1.082   .     S
C1018  C228    1.416   1_556 S
C1019  H1037   1.082   .     S
C1019  N1039   1.366   .     A
C1019  C225    1.416   1_556 S
C1020  H1038   1.082   .     S
C1020  N1040   1.366   .     A
C1021  N1041   1.158   .     T
C1021  C942    1.460   1_655 S
C1022  N1042   1.158   .     T
C1023  C1032   1.453   .     S
C1023  N1043   1.157   .     T
C1024  O1048   1.279   .     A
C1024  O1050   1.278   .     A
C1025  C1033   1.453   .     S
C1025  N1044   1.157   .     T
C1026  C1034   1.456   .     S
C1026  N1045   1.157   .     T
C1027  N1046   1.157   .     T
C1028  O1051   1.273   .     A
C1028  C1030   1.410   .     S
C1028  O1053   1.285   .     A
C1029  C1031   1.410   .     S
C1029  O1054   1.285   .     A
C1029  O1052   1.273   .     A
C1031  C942    1.361   1_655 S
C1031  C934    1.460   1_655 S
C1033  C1146   1.385   .     S
C1034  C1164   1.385   .     S
N1039  Zn1055  2.008   .     S
N1040  Zn1056  2.008   .     S
O1047  Zn1055  1.991   .     S
O1048  Zn1056  1.991   .     S
O1049  Zn1056  1.996   .     S
O1050  Zn1055  1.996   .     S
O1051  Zn1055  1.997   .     S
O1052  Zn1056  1.997   .     S
O1053  Zn1056  2.009   .     S
O1054  Zn1055  2.009   .     S
C1057  O1093   1.278   .     A
C1057  C1060   1.416   .     S
C1057  O1091   1.279   .     A
C1058  C1060   1.405   .     A
C1058  C1071   1.455   .     S
C1059  C1077   1.405   .     A
C1059  C1078   1.405   .     A
C1059  C1068   1.416   .     S
C1060  C1076   1.405   .     A
C1061  N1084   1.366   .     A
C1061  H1079   1.082   .     S
C1062  N1083   1.366   .     A
C1062  H1080   1.082   .     S
C1062  C272    1.416   1_556 S
C1063  H1081   1.082   .     S
C1063  N1083   1.366   .     A
C1063  C269    1.416   1_556 S
C1064  H1082   1.082   .     S
C1064  N1084   1.366   .     A
C1065  N1085   1.158   .     T
C1065  C1118   1.460   .     S
C1066  N1086   1.158   .     T
C1066  C1163   1.460   1_455 S
C1067  C1076   1.453   .     S
C1067  N1087   1.157   .     T
C1068  O1092   1.279   .     A
C1068  O1094   1.278   .     A
C1069  C1077   1.453   .     S
C1069  N1088   1.157   .     T
C1070  C1078   1.456   .     S
C1070  N1089   1.157   .     T
C1071  N1090   1.157   .     T
C1072  O1095   1.273   .     A
C1072  C1074   1.410   .     S
C1072  O1097   1.285   .     A
C1073  C1075   1.410   .     S
C1073  O1098   1.285   .     A
C1073  O1096   1.273   .     A
C1074  C1153   1.460   1_455 S
C1074  C1163   1.361   1_455 S
C1075  C1118   1.361   .     S
C1075  C1110   1.460   .     S
C1077  C794    1.385   1_565 S
C1078  C812    1.385   1_565 S
N1083  Zn1099  2.008   .     S
N1084  Zn1100  2.008   .     S
O1091  Zn1099  1.991   .     S
O1092  Zn1100  1.991   .     S
O1093  Zn1100  1.996   .     S
O1094  Zn1099  1.996   .     S
O1095  Zn1099  1.997   .     S
O1096  Zn1100  1.997   .     S
O1097  Zn1100  2.009   .     S
O1098  Zn1099  2.009   .     S
C1101  O1137   1.278   .     A
C1101  C1104   1.416   .     S
C1101  O1135   1.279   .     A
C1102  C1104   1.405   .     A
C1102  C1115   1.455   .     S
C1103  C1121   1.405   .     A
C1103  C1122   1.405   .     A
C1103  C1112   1.416   .     S
C1104  C1120   1.405   .     A
C1105  N1128   1.366   .     A
C1105  H1123   1.082   .     S
C1106  N1127   1.366   .     A
C1106  H1124   1.082   .     S
C1106  C316    1.416   1_556 S
C1107  H1125   1.082   .     S
C1107  N1127   1.366   .     A
C1107  C313    1.416   1_556 S
C1108  H1126   1.082   .     S
C1108  N1128   1.366   .     A
C1109  N1129   1.158   .     T
C1109  C1162   1.460   .     S
C1110  N1130   1.158   .     T
C1111  C1120   1.453   .     S
C1111  N1131   1.157   .     T
C1112  O1136   1.279   .     A
C1112  O1138   1.278   .     A
C1113  C1121   1.453   .     S
C1113  N1132   1.157   .     T
C1114  C1122   1.456   .     S
C1114  N1133   1.157   .     T
C1115  N1134   1.157   .     T
C1116  O1139   1.273   .     A
C1116  C1118   1.410   .     S
C1116  O1141   1.285   .     A
C1117  C1119   1.410   .     S
C1117  O1142   1.285   .     A
C1117  O1140   1.273   .     A
C1119  C1162   1.361   .     S
C1119  C1154   1.460   .     S
C1121  C838    1.385   1_565 S
C1122  C856    1.385   1_565 S
N1127  Zn1143  2.008   .     S
N1128  Zn1144  2.008   .     S
O1135  Zn1143  1.991   .     S
O1136  Zn1144  1.991   .     S
O1137  Zn1144  1.996   .     S
O1138  Zn1143  1.996   .     S
O1139  Zn1143  1.997   .     S
O1140  Zn1144  1.997   .     S
O1141  Zn1144  2.009   .     S
O1142  Zn1143  2.009   .     S
C1145  O1181   1.278   .     A
C1145  C1148   1.416   .     S
C1145  O1179   1.279   .     A
C1146  C1148   1.405   .     A
C1146  C1159   1.455   .     S
C1147  C1165   1.405   .     A
C1147  C1166   1.405   .     A
C1147  C1156   1.416   .     S
C1148  C1164   1.405   .     A
C1149  N1172   1.366   .     A
C1149  H1167   1.082   .     S
C1150  N1171   1.366   .     A
C1150  H1168   1.082   .     S
C1150  C360    1.416   1_556 S
C1151  H1169   1.082   .     S
C1151  N1171   1.366   .     A
C1151  C357    1.416   1_556 S
C1152  H1170   1.082   .     S
C1152  N1172   1.366   .     A
C1153  N1173   1.158   .     T
C1153  C1074   1.460   1_655 S
C1154  N1174   1.158   .     T
C1155  C1164   1.453   .     S
C1155  N1175   1.157   .     T
C1156  O1180   1.279   .     A
C1156  O1182   1.278   .     A
C1157  C1165   1.453   .     S
C1157  N1176   1.157   .     T
C1158  C1166   1.456   .     S
C1158  N1177   1.157   .     T
C1159  N1178   1.157   .     T
C1160  O1183   1.273   .     A
C1160  C1162   1.410   .     S
C1160  O1185   1.285   .     A
C1161  C1163   1.410   .     S
C1161  O1186   1.285   .     A
C1161  O1184   1.273   .     A
C1163  C1074   1.361   1_655 S
C1163  C1066   1.460   1_655 S
C1165  C882    1.385   1_565 S
C1166  C900    1.385   1_565 S
N1171  Zn1187  2.008   .     S
N1172  Zn1188  2.008   .     S
O1179  Zn1187  1.991   .     S
O1180  Zn1188  1.991   .     S
O1181  Zn1188  1.996   .     S
O1182  Zn1187  1.996   .     S
O1183  Zn1187  1.997   .     S
O1184  Zn1188  1.997   .     S
O1185  Zn1188  2.009   .     S
O1186  Zn1187  2.009   .     S
