data_str_m3_o1_o5_pcu_sym.76
_audit_creation_date              2020-01-03
_audit_creation_method            'Materials Studio'
_symmetry_space_group_name_H-M    'P1'
_symmetry_Int_Tables_number       1
_symmetry_cell_setting            triclinic
loop_
_symmetry_equiv_pos_as_xyz
  x,y,z
_cell_length_a                    32.1837
_cell_length_b                    29.8559
_cell_length_c                    26.7512
_cell_angle_alpha                 90.1807
_cell_angle_beta                  92.9853
_cell_angle_gamma                 90.1802
loop_
_atom_site_label
_atom_site_type_symbol
_atom_site_fract_x
_atom_site_fract_y
_atom_site_fract_z
_atom_site_U_iso_or_equiv
_atom_site_adp_type
_atom_site_occupancy
C1     C     0.08678   0.16676   0.16808   0.00000  Uiso   1.00
C2     C     0.02199   0.20701   0.18086   0.00000  Uiso   1.00
C3     C     0.29074   0.16796   0.16582   0.00000  Uiso   1.00
C4     C     0.04257   0.16728   0.16974   0.00000  Uiso   1.00
C5     C     0.19147   0.02365   0.20064   0.00000  Uiso   1.00
C6     C     0.14361   0.30893   0.13077   0.00000  Uiso   1.00
C7     C     0.14269   0.02410   0.13152   0.00000  Uiso   1.00
C8     C     0.18927   0.30922   0.20260   0.00000  Uiso   1.00
C9     C     0.25854   0.04928   0.21132   0.00000  Uiso   1.00
C10    C     0.29067   0.01544   0.23123   0.00000  Uiso   1.00
C11    C     0.13183   0.28699   0.04880   0.00000  Uiso   1.00
C12    C     0.24657   0.16695   0.16616   0.00000  Uiso   1.00
C13    C     0.10096   0.26222   0.01341   0.00000  Uiso   1.00
C14    C     0.07929   0.04039   0.09071   0.00000  Uiso   1.00
C15    C     0.05829   0.07671   0.05858   0.00000  Uiso   1.00
C16    C     0.19825   0.29364   0.28698   0.00000  Uiso   1.00
C17    C     0.23407   0.30747   0.32339   0.00000  Uiso   1.00
C18    C     0.16665   0.16660   0.07299   0.00000  Uiso   1.00
C19    C     0.16691   0.16669   0.26036   0.00000  Uiso   1.00
C20    C     0.16692   0.16648   0.02183   0.00000  Uiso   1.00
C21    C     0.16697   0.16662   0.31154   0.00000  Uiso   1.00
C22    C     0.02051   0.12825   0.15806   0.00000  Uiso   1.00
C23    C     0.31251   0.20710   0.17985   0.00000  Uiso   1.00
C24    C     0.31152   0.12932   0.15268   0.00000  Uiso   1.00
H25    H     0.03577   0.09718   0.15203   0.00000  Uiso   1.00
H26    H     0.16278   0.27133   0.04712   0.00000  Uiso   1.00
H27    H     0.13445   0.32187   0.03513   0.00000  Uiso   1.00
H28    H     0.07012   0.27880   0.01302   0.00000  Uiso   1.00
H29    H     0.11189   0.26228   0.30809   0.00000  Uiso   1.00
H30    H     0.09731   0.22705   0.02580   0.00000  Uiso   1.00
H31    H     0.06664   0.03920   0.12847   0.00000  Uiso   1.00
H32    H     0.07108   0.00841   0.07185   0.00000  Uiso   1.00
H33    H     0.06762   0.07344   0.01933   0.00000  Uiso   1.00
H34    H     0.02395   0.07326   0.05907   0.00000  Uiso   1.00
H35    H     0.06775   0.11045   0.07256   0.00000  Uiso   1.00
H36    H     0.29661   0.23747   0.18996   0.00000  Uiso   1.00
H37    H     0.18595   0.26167   0.30074   0.00000  Uiso   1.00
H38    H     0.17281   0.31886   0.28864   0.00000  Uiso   1.00
H39    H     0.24072   0.01034   0.31963   0.00000  Uiso   1.00
H40    H     0.22569   0.30183   0.02923   0.00000  Uiso   1.00
H41    H     0.26231   0.28753   0.31659   0.00000  Uiso   1.00
H42    H     0.29528   0.09984   0.13873   0.00000  Uiso   1.00
H43    H     0.03880   0.23753   0.19080   0.00000  Uiso   1.00
H44    H     0.27154   0.08250   0.22217   0.00000  Uiso   1.00
H45    H     0.25630   0.04686   0.16963   0.00000  Uiso   1.00
H46    H     0.28110   0.31408   0.22169   0.00000  Uiso   1.00
H47    H     0.32054   0.02179   0.21342   0.00000  Uiso   1.00
H48    H     0.29661   0.01938   0.27217   0.00000  Uiso   1.00
N49    N     0.16667   0.28573   0.16667   0.00000  Uiso   1.00
N50    N     0.16667   0.04760   0.16667   0.00000  Uiso   1.00
O51    O     0.10559   0.20487   0.16666   0.00000  Uiso   1.00
O52    O     0.11774   0.28456   0.09786   0.00000  Uiso   1.00
O53    O     0.12264   0.04831   0.09330   0.00000  Uiso   1.00
O54    O     0.21278   0.28582   0.23855   0.00000  Uiso   1.00
O55    O     0.22774   0.12846   0.16667   0.00000  Uiso   1.00
O56    O     0.22774   0.20487   0.16667   0.00000  Uiso   1.00
O57    O     0.10559   0.12846   0.16666   0.00000  Uiso   1.00
O58    O     0.16667   0.20488   0.09511   0.00000  Uiso   1.00
O59    O     0.16666   0.12845   0.23822   0.00000  Uiso   1.00
O60    O     0.16666   0.20488   0.23822   0.00000  Uiso   1.00
O61    O     0.16667   0.12845   0.09511   0.00000  Uiso   1.00
O62    O     0.21947   0.04555   0.23333   0.00000  Uiso   1.00
Zn63   Zn    0.16667   0.21771   0.16667   0.00000  Uiso   1.00
Zn64   Zn    0.16667   0.11563   0.16667   0.00000  Uiso   1.00
C65    C     0.42011   0.16676   0.16808   0.00000  Uiso   1.00
C66    C     0.35533   0.20701   0.18086   0.00000  Uiso   1.00
C67    C     0.62408   0.16796   0.16582   0.00000  Uiso   1.00
C68    C     0.37591   0.16728   0.16974   0.00000  Uiso   1.00
C69    C     0.52480   0.02365   0.20064   0.00000  Uiso   1.00
C70    C     0.47694   0.30893   0.13077   0.00000  Uiso   1.00
C71    C     0.47603   0.02410   0.13152   0.00000  Uiso   1.00
C72    C     0.52260   0.30922   0.20260   0.00000  Uiso   1.00
C73    C     0.59187   0.04928   0.21132   0.00000  Uiso   1.00
C74    C     0.62401   0.01544   0.23123   0.00000  Uiso   1.00
C75    C     0.46517   0.28699   0.04880   0.00000  Uiso   1.00
C76    C     0.57990   0.16695   0.16616   0.00000  Uiso   1.00
C77    C     0.43429   0.26222   0.01341   0.00000  Uiso   1.00
C78    C     0.41262   0.04039   0.09071   0.00000  Uiso   1.00
C79    C     0.39162   0.07671   0.05858   0.00000  Uiso   1.00
C80    C     0.53159   0.29364   0.28698   0.00000  Uiso   1.00
C81    C     0.56740   0.30747   0.32339   0.00000  Uiso   1.00
C82    C     0.49998   0.16660   0.07299   0.00000  Uiso   1.00
C83    C     0.50024   0.16669   0.26036   0.00000  Uiso   1.00
C84    C     0.50025   0.16648   0.02183   0.00000  Uiso   1.00
C85    C     0.50031   0.16662   0.31154   0.00000  Uiso   1.00
C86    C     0.35384   0.12825   0.15806   0.00000  Uiso   1.00
C87    C     0.64584   0.20710   0.17985   0.00000  Uiso   1.00
C88    C     0.64486   0.12932   0.15268   0.00000  Uiso   1.00
H89    H     0.36911   0.09718   0.15203   0.00000  Uiso   1.00
H90    H     0.49611   0.27133   0.04712   0.00000  Uiso   1.00
H91    H     0.46778   0.32187   0.03513   0.00000  Uiso   1.00
H92    H     0.40345   0.27880   0.01302   0.00000  Uiso   1.00
H93    H     0.44522   0.26228   0.30809   0.00000  Uiso   1.00
H94    H     0.43064   0.22705   0.02580   0.00000  Uiso   1.00
H95    H     0.39997   0.03920   0.12847   0.00000  Uiso   1.00
H96    H     0.40441   0.00841   0.07185   0.00000  Uiso   1.00
H97    H     0.40095   0.07344   0.01933   0.00000  Uiso   1.00
H98    H     0.35728   0.07326   0.05907   0.00000  Uiso   1.00
H99    H     0.40108   0.11045   0.07256   0.00000  Uiso   1.00
H100   H     0.62994   0.23747   0.18996   0.00000  Uiso   1.00
H101   H     0.51929   0.26167   0.30074   0.00000  Uiso   1.00
H102   H     0.50614   0.31886   0.28864   0.00000  Uiso   1.00
H103   H     0.57405   0.01034   0.31963   0.00000  Uiso   1.00
H104   H     0.55903   0.30183   0.02923   0.00000  Uiso   1.00
H105   H     0.59564   0.28753   0.31659   0.00000  Uiso   1.00
H106   H     0.62862   0.09984   0.13873   0.00000  Uiso   1.00
H107   H     0.37214   0.23753   0.19080   0.00000  Uiso   1.00
H108   H     0.60488   0.08250   0.22217   0.00000  Uiso   1.00
H109   H     0.58964   0.04686   0.16963   0.00000  Uiso   1.00
H110   H     0.61443   0.31408   0.22169   0.00000  Uiso   1.00
H111   H     0.65387   0.02179   0.21342   0.00000  Uiso   1.00
H112   H     0.62994   0.01938   0.27217   0.00000  Uiso   1.00
N113   N     0.50000   0.28573   0.16667   0.00000  Uiso   1.00
N114   N     0.50000   0.04760   0.16667   0.00000  Uiso   1.00
O115   O     0.43892   0.20487   0.16666   0.00000  Uiso   1.00
O116   O     0.45108   0.28456   0.09786   0.00000  Uiso   1.00
O117   O     0.45597   0.04831   0.09330   0.00000  Uiso   1.00
O118   O     0.54611   0.28582   0.23855   0.00000  Uiso   1.00
O119   O     0.56108   0.12846   0.16667   0.00000  Uiso   1.00
O120   O     0.56108   0.20487   0.16667   0.00000  Uiso   1.00
O121   O     0.43892   0.12846   0.16666   0.00000  Uiso   1.00
O122   O     0.50000   0.20488   0.09511   0.00000  Uiso   1.00
O123   O     0.50000   0.12845   0.23822   0.00000  Uiso   1.00
O124   O     0.50000   0.20488   0.23822   0.00000  Uiso   1.00
O125   O     0.50000   0.12845   0.09511   0.00000  Uiso   1.00
O126   O     0.55281   0.04555   0.23333   0.00000  Uiso   1.00
Zn127  Zn    0.50000   0.21771   0.16667   0.00000  Uiso   1.00
Zn128  Zn    0.50000   0.11563   0.16667   0.00000  Uiso   1.00
C129   C     0.75345   0.16676   0.16808   0.00000  Uiso   1.00
C130   C     0.68866   0.20701   0.18086   0.00000  Uiso   1.00
C131   C     0.95741   0.16796   0.16582   0.00000  Uiso   1.00
C132   C     0.70924   0.16728   0.16974   0.00000  Uiso   1.00
C133   C     0.85813   0.02365   0.20064   0.00000  Uiso   1.00
C134   C     0.81027   0.30893   0.13077   0.00000  Uiso   1.00
C135   C     0.80936   0.02410   0.13152   0.00000  Uiso   1.00
C136   C     0.85593   0.30922   0.20260   0.00000  Uiso   1.00
C137   C     0.92521   0.04928   0.21132   0.00000  Uiso   1.00
C138   C     0.95734   0.01544   0.23123   0.00000  Uiso   1.00
C139   C     0.79850   0.28699   0.04880   0.00000  Uiso   1.00
C140   C     0.91323   0.16695   0.16616   0.00000  Uiso   1.00
C141   C     0.76762   0.26222   0.01341   0.00000  Uiso   1.00
C142   C     0.74596   0.04039   0.09071   0.00000  Uiso   1.00
C143   C     0.72496   0.07671   0.05858   0.00000  Uiso   1.00
C144   C     0.86492   0.29364   0.28698   0.00000  Uiso   1.00
C145   C     0.90073   0.30747   0.32339   0.00000  Uiso   1.00
C146   C     0.83331   0.16660   0.07299   0.00000  Uiso   1.00
C147   C     0.83357   0.16669   0.26036   0.00000  Uiso   1.00
C148   C     0.83358   0.16648   0.02183   0.00000  Uiso   1.00
C149   C     0.83364   0.16662   0.31154   0.00000  Uiso   1.00
C150   C     0.68718   0.12825   0.15806   0.00000  Uiso   1.00
C151   C     0.97918   0.20710   0.17985   0.00000  Uiso   1.00
C152   C     0.97819   0.12932   0.15268   0.00000  Uiso   1.00
H153   H     0.70244   0.09718   0.15203   0.00000  Uiso   1.00
H154   H     0.82945   0.27133   0.04712   0.00000  Uiso   1.00
H155   H     0.80112   0.32187   0.03513   0.00000  Uiso   1.00
H156   H     0.73679   0.27880   0.01302   0.00000  Uiso   1.00
H157   H     0.77855   0.26228   0.30809   0.00000  Uiso   1.00
H158   H     0.76397   0.22705   0.02580   0.00000  Uiso   1.00
H159   H     0.73331   0.03920   0.12847   0.00000  Uiso   1.00
H160   H     0.73774   0.00841   0.07185   0.00000  Uiso   1.00
H161   H     0.73429   0.07344   0.01933   0.00000  Uiso   1.00
H162   H     0.69061   0.07326   0.05907   0.00000  Uiso   1.00
H163   H     0.73442   0.11045   0.07256   0.00000  Uiso   1.00
H164   H     0.96328   0.23747   0.18996   0.00000  Uiso   1.00
H165   H     0.85262   0.26167   0.30074   0.00000  Uiso   1.00
H166   H     0.83947   0.31886   0.28864   0.00000  Uiso   1.00
H167   H     0.90738   0.01034   0.31963   0.00000  Uiso   1.00
H168   H     0.89236   0.30183   0.02923   0.00000  Uiso   1.00
H169   H     0.92897   0.28753   0.31659   0.00000  Uiso   1.00
H170   H     0.96195   0.09984   0.13873   0.00000  Uiso   1.00
H171   H     0.70547   0.23753   0.19080   0.00000  Uiso   1.00
H172   H     0.93821   0.08250   0.22217   0.00000  Uiso   1.00
H173   H     0.92297   0.04686   0.16963   0.00000  Uiso   1.00
H174   H     0.94776   0.31408   0.22169   0.00000  Uiso   1.00
H175   H     0.98721   0.02179   0.21342   0.00000  Uiso   1.00
H176   H     0.96328   0.01938   0.27217   0.00000  Uiso   1.00
N177   N     0.83333   0.28573   0.16667   0.00000  Uiso   1.00
N178   N     0.83333   0.04760   0.16667   0.00000  Uiso   1.00
O179   O     0.77226   0.20487   0.16666   0.00000  Uiso   1.00
O180   O     0.78441   0.28456   0.09786   0.00000  Uiso   1.00
O181   O     0.78930   0.04831   0.09330   0.00000  Uiso   1.00
O182   O     0.87944   0.28582   0.23855   0.00000  Uiso   1.00
O183   O     0.89441   0.12846   0.16667   0.00000  Uiso   1.00
O184   O     0.89441   0.20487   0.16667   0.00000  Uiso   1.00
O185   O     0.77226   0.12846   0.16666   0.00000  Uiso   1.00
O186   O     0.83334   0.20488   0.09511   0.00000  Uiso   1.00
O187   O     0.83333   0.12845   0.23822   0.00000  Uiso   1.00
O188   O     0.83333   0.20488   0.23822   0.00000  Uiso   1.00
O189   O     0.83334   0.12845   0.09511   0.00000  Uiso   1.00
O190   O     0.88614   0.04555   0.23333   0.00000  Uiso   1.00
Zn191  Zn    0.83333   0.21771   0.16667   0.00000  Uiso   1.00
Zn192  Zn    0.83333   0.11563   0.16667   0.00000  Uiso   1.00
C193   C     0.08678   0.50010   0.16808   0.00000  Uiso   1.00
C194   C     0.02199   0.54034   0.18086   0.00000  Uiso   1.00
C195   C     0.29074   0.50130   0.16582   0.00000  Uiso   1.00
C196   C     0.04257   0.50062   0.16974   0.00000  Uiso   1.00
C197   C     0.19147   0.35698   0.20064   0.00000  Uiso   1.00
C198   C     0.14361   0.64226   0.13077   0.00000  Uiso   1.00
C199   C     0.14269   0.35743   0.13152   0.00000  Uiso   1.00
C200   C     0.18927   0.64255   0.20260   0.00000  Uiso   1.00
C201   C     0.25854   0.38261   0.21132   0.00000  Uiso   1.00
C202   C     0.29067   0.34877   0.23123   0.00000  Uiso   1.00
C203   C     0.13183   0.62033   0.04880   0.00000  Uiso   1.00
C204   C     0.24657   0.50028   0.16616   0.00000  Uiso   1.00
C205   C     0.10096   0.59555   0.01341   0.00000  Uiso   1.00
C206   C     0.07929   0.37372   0.09071   0.00000  Uiso   1.00
C207   C     0.05829   0.41004   0.05858   0.00000  Uiso   1.00
C208   C     0.19825   0.62697   0.28698   0.00000  Uiso   1.00
C209   C     0.23407   0.64080   0.32339   0.00000  Uiso   1.00
C210   C     0.16665   0.49993   0.07299   0.00000  Uiso   1.00
C211   C     0.16691   0.50003   0.26036   0.00000  Uiso   1.00
C212   C     0.16692   0.49982   0.02183   0.00000  Uiso   1.00
C213   C     0.16697   0.49995   0.31154   0.00000  Uiso   1.00
C214   C     0.02051   0.46159   0.15806   0.00000  Uiso   1.00
C215   C     0.31251   0.54044   0.17985   0.00000  Uiso   1.00
C216   C     0.31152   0.46266   0.15268   0.00000  Uiso   1.00
H217   H     0.03577   0.43051   0.15203   0.00000  Uiso   1.00
H218   H     0.16278   0.60467   0.04712   0.00000  Uiso   1.00
H219   H     0.13445   0.65520   0.03513   0.00000  Uiso   1.00
H220   H     0.07012   0.61214   0.01302   0.00000  Uiso   1.00
H221   H     0.11189   0.59562   0.30809   0.00000  Uiso   1.00
H222   H     0.09731   0.56038   0.02580   0.00000  Uiso   1.00
H223   H     0.06664   0.37253   0.12847   0.00000  Uiso   1.00
H224   H     0.07108   0.34175   0.07185   0.00000  Uiso   1.00
H225   H     0.06762   0.40678   0.01933   0.00000  Uiso   1.00
H226   H     0.02395   0.40660   0.05907   0.00000  Uiso   1.00
H227   H     0.06775   0.44378   0.07256   0.00000  Uiso   1.00
H228   H     0.29661   0.57080   0.18996   0.00000  Uiso   1.00
H229   H     0.18595   0.59500   0.30074   0.00000  Uiso   1.00
H230   H     0.17281   0.65219   0.28864   0.00000  Uiso   1.00
H231   H     0.24072   0.34368   0.31963   0.00000  Uiso   1.00
H232   H     0.22569   0.63517   0.02923   0.00000  Uiso   1.00
H233   H     0.26231   0.62086   0.31659   0.00000  Uiso   1.00
H234   H     0.29528   0.43317   0.13873   0.00000  Uiso   1.00
H235   H     0.03880   0.57087   0.19080   0.00000  Uiso   1.00
H236   H     0.27154   0.41583   0.22217   0.00000  Uiso   1.00
H237   H     0.25630   0.38019   0.16963   0.00000  Uiso   1.00
H238   H     0.28110   0.64742   0.22169   0.00000  Uiso   1.00
H239   H     0.32054   0.35513   0.21342   0.00000  Uiso   1.00
H240   H     0.29661   0.35272   0.27217   0.00000  Uiso   1.00
N241   N     0.16667   0.61907   0.16667   0.00000  Uiso   1.00
N242   N     0.16667   0.38093   0.16667   0.00000  Uiso   1.00
O243   O     0.10559   0.53821   0.16666   0.00000  Uiso   1.00
O244   O     0.11774   0.61789   0.09786   0.00000  Uiso   1.00
O245   O     0.12264   0.38165   0.09330   0.00000  Uiso   1.00
O246   O     0.21278   0.61915   0.23855   0.00000  Uiso   1.00
O247   O     0.22774   0.46179   0.16667   0.00000  Uiso   1.00
O248   O     0.22774   0.53821   0.16667   0.00000  Uiso   1.00
O249   O     0.10559   0.46179   0.16666   0.00000  Uiso   1.00
O250   O     0.16667   0.53821   0.09511   0.00000  Uiso   1.00
O251   O     0.16666   0.46179   0.23822   0.00000  Uiso   1.00
O252   O     0.16666   0.53821   0.23822   0.00000  Uiso   1.00
O253   O     0.16667   0.46179   0.09511   0.00000  Uiso   1.00
O254   O     0.21947   0.37888   0.23333   0.00000  Uiso   1.00
Zn255  Zn    0.16667   0.55104   0.16667   0.00000  Uiso   1.00
Zn256  Zn    0.16667   0.44896   0.16667   0.00000  Uiso   1.00
C257   C     0.42011   0.50010   0.16808   0.00000  Uiso   1.00
C258   C     0.35533   0.54034   0.18086   0.00000  Uiso   1.00
C259   C     0.62408   0.50130   0.16582   0.00000  Uiso   1.00
C260   C     0.37591   0.50062   0.16974   0.00000  Uiso   1.00
C261   C     0.52480   0.35698   0.20064   0.00000  Uiso   1.00
C262   C     0.47694   0.64226   0.13077   0.00000  Uiso   1.00
C263   C     0.47603   0.35743   0.13152   0.00000  Uiso   1.00
C264   C     0.52260   0.64255   0.20260   0.00000  Uiso   1.00
C265   C     0.59187   0.38261   0.21132   0.00000  Uiso   1.00
C266   C     0.62401   0.34877   0.23123   0.00000  Uiso   1.00
C267   C     0.46517   0.62033   0.04880   0.00000  Uiso   1.00
C268   C     0.57990   0.50028   0.16616   0.00000  Uiso   1.00
C269   C     0.43429   0.59555   0.01341   0.00000  Uiso   1.00
C270   C     0.41262   0.37372   0.09071   0.00000  Uiso   1.00
C271   C     0.39162   0.41004   0.05858   0.00000  Uiso   1.00
C272   C     0.53159   0.62697   0.28698   0.00000  Uiso   1.00
C273   C     0.56740   0.64080   0.32339   0.00000  Uiso   1.00
C274   C     0.49998   0.49993   0.07299   0.00000  Uiso   1.00
C275   C     0.50024   0.50003   0.26036   0.00000  Uiso   1.00
C276   C     0.50025   0.49982   0.02183   0.00000  Uiso   1.00
C277   C     0.50031   0.49995   0.31154   0.00000  Uiso   1.00
C278   C     0.35384   0.46159   0.15806   0.00000  Uiso   1.00
C279   C     0.64584   0.54044   0.17985   0.00000  Uiso   1.00
C280   C     0.64486   0.46266   0.15268   0.00000  Uiso   1.00
H281   H     0.36911   0.43051   0.15203   0.00000  Uiso   1.00
H282   H     0.49611   0.60467   0.04712   0.00000  Uiso   1.00
H283   H     0.46778   0.65520   0.03513   0.00000  Uiso   1.00
H284   H     0.40345   0.61214   0.01302   0.00000  Uiso   1.00
H285   H     0.44522   0.59562   0.30809   0.00000  Uiso   1.00
H286   H     0.43064   0.56038   0.02580   0.00000  Uiso   1.00
H287   H     0.39997   0.37253   0.12847   0.00000  Uiso   1.00
H288   H     0.40441   0.34175   0.07185   0.00000  Uiso   1.00
H289   H     0.40095   0.40678   0.01933   0.00000  Uiso   1.00
H290   H     0.35728   0.40660   0.05907   0.00000  Uiso   1.00
H291   H     0.40108   0.44378   0.07256   0.00000  Uiso   1.00
H292   H     0.62994   0.57080   0.18996   0.00000  Uiso   1.00
H293   H     0.51929   0.59500   0.30074   0.00000  Uiso   1.00
H294   H     0.50614   0.65219   0.28864   0.00000  Uiso   1.00
H295   H     0.57405   0.34368   0.31963   0.00000  Uiso   1.00
H296   H     0.55903   0.63517   0.02923   0.00000  Uiso   1.00
H297   H     0.59564   0.62086   0.31659   0.00000  Uiso   1.00
H298   H     0.62862   0.43317   0.13873   0.00000  Uiso   1.00
H299   H     0.37214   0.57087   0.19080   0.00000  Uiso   1.00
H300   H     0.60488   0.41583   0.22217   0.00000  Uiso   1.00
H301   H     0.58964   0.38019   0.16963   0.00000  Uiso   1.00
H302   H     0.61443   0.64742   0.22169   0.00000  Uiso   1.00
H303   H     0.65387   0.35513   0.21342   0.00000  Uiso   1.00
H304   H     0.62994   0.35272   0.27217   0.00000  Uiso   1.00
N305   N     0.50000   0.61907   0.16667   0.00000  Uiso   1.00
N306   N     0.50000   0.38093   0.16667   0.00000  Uiso   1.00
O307   O     0.43892   0.53821   0.16666   0.00000  Uiso   1.00
O308   O     0.45108   0.61789   0.09786   0.00000  Uiso   1.00
O309   O     0.45597   0.38165   0.09330   0.00000  Uiso   1.00
O310   O     0.54611   0.61915   0.23855   0.00000  Uiso   1.00
O311   O     0.56108   0.46179   0.16667   0.00000  Uiso   1.00
O312   O     0.56108   0.53821   0.16667   0.00000  Uiso   1.00
O313   O     0.43892   0.46179   0.16666   0.00000  Uiso   1.00
O314   O     0.50000   0.53821   0.09511   0.00000  Uiso   1.00
O315   O     0.50000   0.46179   0.23822   0.00000  Uiso   1.00
O316   O     0.50000   0.53821   0.23822   0.00000  Uiso   1.00
O317   O     0.50000   0.46179   0.09511   0.00000  Uiso   1.00
O318   O     0.55281   0.37888   0.23333   0.00000  Uiso   1.00
Zn319  Zn    0.50000   0.55104   0.16667   0.00000  Uiso   1.00
Zn320  Zn    0.50000   0.44896   0.16667   0.00000  Uiso   1.00
C321   C     0.75345   0.50010   0.16808   0.00000  Uiso   1.00
C322   C     0.68866   0.54034   0.18086   0.00000  Uiso   1.00
C323   C     0.95741   0.50130   0.16582   0.00000  Uiso   1.00
C324   C     0.70924   0.50062   0.16974   0.00000  Uiso   1.00
C325   C     0.85813   0.35698   0.20064   0.00000  Uiso   1.00
C326   C     0.81027   0.64226   0.13077   0.00000  Uiso   1.00
C327   C     0.80936   0.35743   0.13152   0.00000  Uiso   1.00
C328   C     0.85593   0.64255   0.20260   0.00000  Uiso   1.00
C329   C     0.92521   0.38261   0.21132   0.00000  Uiso   1.00
C330   C     0.95734   0.34877   0.23123   0.00000  Uiso   1.00
C331   C     0.79850   0.62033   0.04880   0.00000  Uiso   1.00
C332   C     0.91323   0.50028   0.16616   0.00000  Uiso   1.00
C333   C     0.76762   0.59555   0.01341   0.00000  Uiso   1.00
C334   C     0.74596   0.37372   0.09071   0.00000  Uiso   1.00
C335   C     0.72496   0.41004   0.05858   0.00000  Uiso   1.00
C336   C     0.86492   0.62697   0.28698   0.00000  Uiso   1.00
C337   C     0.90073   0.64080   0.32339   0.00000  Uiso   1.00
C338   C     0.83331   0.49993   0.07299   0.00000  Uiso   1.00
C339   C     0.83357   0.50003   0.26036   0.00000  Uiso   1.00
C340   C     0.83358   0.49982   0.02183   0.00000  Uiso   1.00
C341   C     0.83364   0.49995   0.31154   0.00000  Uiso   1.00
C342   C     0.68718   0.46159   0.15806   0.00000  Uiso   1.00
C343   C     0.97918   0.54044   0.17985   0.00000  Uiso   1.00
C344   C     0.97819   0.46266   0.15268   0.00000  Uiso   1.00
H345   H     0.70244   0.43051   0.15203   0.00000  Uiso   1.00
H346   H     0.82945   0.60467   0.04712   0.00000  Uiso   1.00
H347   H     0.80112   0.65520   0.03513   0.00000  Uiso   1.00
H348   H     0.73679   0.61214   0.01302   0.00000  Uiso   1.00
H349   H     0.77855   0.59562   0.30809   0.00000  Uiso   1.00
H350   H     0.76397   0.56038   0.02580   0.00000  Uiso   1.00
H351   H     0.73331   0.37253   0.12847   0.00000  Uiso   1.00
H352   H     0.73774   0.34175   0.07185   0.00000  Uiso   1.00
H353   H     0.73429   0.40678   0.01933   0.00000  Uiso   1.00
H354   H     0.69061   0.40660   0.05907   0.00000  Uiso   1.00
H355   H     0.73442   0.44378   0.07256   0.00000  Uiso   1.00
H356   H     0.96328   0.57080   0.18996   0.00000  Uiso   1.00
H357   H     0.85262   0.59500   0.30074   0.00000  Uiso   1.00
H358   H     0.83947   0.65219   0.28864   0.00000  Uiso   1.00
H359   H     0.90738   0.34368   0.31963   0.00000  Uiso   1.00
H360   H     0.89236   0.63517   0.02923   0.00000  Uiso   1.00
H361   H     0.92897   0.62086   0.31659   0.00000  Uiso   1.00
H362   H     0.96195   0.43317   0.13873   0.00000  Uiso   1.00
H363   H     0.70547   0.57087   0.19080   0.00000  Uiso   1.00
H364   H     0.93821   0.41583   0.22217   0.00000  Uiso   1.00
H365   H     0.92297   0.38019   0.16963   0.00000  Uiso   1.00
H366   H     0.94776   0.64742   0.22169   0.00000  Uiso   1.00
H367   H     0.98721   0.35513   0.21342   0.00000  Uiso   1.00
H368   H     0.96328   0.35272   0.27217   0.00000  Uiso   1.00
N369   N     0.83333   0.61907   0.16667   0.00000  Uiso   1.00
N370   N     0.83333   0.38093   0.16667   0.00000  Uiso   1.00
O371   O     0.77226   0.53821   0.16666   0.00000  Uiso   1.00
O372   O     0.78441   0.61789   0.09786   0.00000  Uiso   1.00
O373   O     0.78930   0.38165   0.09330   0.00000  Uiso   1.00
O374   O     0.87944   0.61915   0.23855   0.00000  Uiso   1.00
O375   O     0.89441   0.46179   0.16667   0.00000  Uiso   1.00
O376   O     0.89441   0.53821   0.16667   0.00000  Uiso   1.00
O377   O     0.77226   0.46179   0.16666   0.00000  Uiso   1.00
O378   O     0.83334   0.53821   0.09511   0.00000  Uiso   1.00
O379   O     0.83333   0.46179   0.23822   0.00000  Uiso   1.00
O380   O     0.83333   0.53821   0.23822   0.00000  Uiso   1.00
O381   O     0.83334   0.46179   0.09511   0.00000  Uiso   1.00
O382   O     0.88614   0.37888   0.23333   0.00000  Uiso   1.00
Zn383  Zn    0.83333   0.55104   0.16667   0.00000  Uiso   1.00
Zn384  Zn    0.83333   0.44896   0.16667   0.00000  Uiso   1.00
C385   C     0.08678   0.83343   0.16808   0.00000  Uiso   1.00
C386   C     0.02199   0.87368   0.18086   0.00000  Uiso   1.00
C387   C     0.29074   0.83463   0.16582   0.00000  Uiso   1.00
C388   C     0.04257   0.83395   0.16974   0.00000  Uiso   1.00
C389   C     0.19147   0.69032   0.20064   0.00000  Uiso   1.00
C390   C     0.14361   0.97559   0.13077   0.00000  Uiso   1.00
C391   C     0.14269   0.69076   0.13152   0.00000  Uiso   1.00
C392   C     0.18927   0.97588   0.20260   0.00000  Uiso   1.00
C393   C     0.25854   0.71595   0.21132   0.00000  Uiso   1.00
C394   C     0.29067   0.68210   0.23123   0.00000  Uiso   1.00
C395   C     0.13183   0.95366   0.04880   0.00000  Uiso   1.00
C396   C     0.24657   0.83361   0.16616   0.00000  Uiso   1.00
C397   C     0.10096   0.92888   0.01341   0.00000  Uiso   1.00
C398   C     0.07929   0.70706   0.09071   0.00000  Uiso   1.00
C399   C     0.05829   0.74338   0.05858   0.00000  Uiso   1.00
C400   C     0.19825   0.96031   0.28698   0.00000  Uiso   1.00
C401   C     0.23407   0.97413   0.32339   0.00000  Uiso   1.00
C402   C     0.16665   0.83326   0.07299   0.00000  Uiso   1.00
C403   C     0.16691   0.83336   0.26036   0.00000  Uiso   1.00
C404   C     0.16692   0.83315   0.02183   0.00000  Uiso   1.00
C405   C     0.16697   0.83329   0.31154   0.00000  Uiso   1.00
C406   C     0.02051   0.79492   0.15806   0.00000  Uiso   1.00
C407   C     0.31251   0.87377   0.17985   0.00000  Uiso   1.00
C408   C     0.31152   0.79599   0.15268   0.00000  Uiso   1.00
H409   H     0.03577   0.76384   0.15203   0.00000  Uiso   1.00
H410   H     0.16278   0.93800   0.04712   0.00000  Uiso   1.00
H411   H     0.13445   0.98853   0.03513   0.00000  Uiso   1.00
H412   H     0.07012   0.94547   0.01302   0.00000  Uiso   1.00
H413   H     0.11189   0.92895   0.30809   0.00000  Uiso   1.00
H414   H     0.09731   0.89372   0.02580   0.00000  Uiso   1.00
H415   H     0.06664   0.70586   0.12847   0.00000  Uiso   1.00
H416   H     0.07108   0.67508   0.07185   0.00000  Uiso   1.00
H417   H     0.06762   0.74011   0.01933   0.00000  Uiso   1.00
H418   H     0.02395   0.73993   0.05907   0.00000  Uiso   1.00
H419   H     0.06775   0.77712   0.07256   0.00000  Uiso   1.00
H420   H     0.29661   0.90413   0.18996   0.00000  Uiso   1.00
H421   H     0.18595   0.92833   0.30074   0.00000  Uiso   1.00
H422   H     0.17281   0.98552   0.28864   0.00000  Uiso   1.00
H423   H     0.24072   0.67701   0.31963   0.00000  Uiso   1.00
H424   H     0.22569   0.96850   0.02923   0.00000  Uiso   1.00
H425   H     0.26231   0.95419   0.31659   0.00000  Uiso   1.00
H426   H     0.29528   0.76650   0.13873   0.00000  Uiso   1.00
H427   H     0.03880   0.90420   0.19080   0.00000  Uiso   1.00
H428   H     0.27154   0.74917   0.22217   0.00000  Uiso   1.00
H429   H     0.25630   0.71353   0.16963   0.00000  Uiso   1.00
H430   H     0.28110   0.98075   0.22169   0.00000  Uiso   1.00
H431   H     0.32054   0.68846   0.21342   0.00000  Uiso   1.00
H432   H     0.29661   0.68605   0.27217   0.00000  Uiso   1.00
N433   N     0.16667   0.95240   0.16667   0.00000  Uiso   1.00
N434   N     0.16667   0.71427   0.16667   0.00000  Uiso   1.00
O435   O     0.10559   0.87154   0.16666   0.00000  Uiso   1.00
O436   O     0.11774   0.95122   0.09786   0.00000  Uiso   1.00
O437   O     0.12264   0.71498   0.09330   0.00000  Uiso   1.00
O438   O     0.21278   0.95249   0.23855   0.00000  Uiso   1.00
O439   O     0.22774   0.79513   0.16667   0.00000  Uiso   1.00
O440   O     0.22774   0.87154   0.16667   0.00000  Uiso   1.00
O441   O     0.10559   0.79513   0.16666   0.00000  Uiso   1.00
O442   O     0.16667   0.87155   0.09511   0.00000  Uiso   1.00
O443   O     0.16666   0.79512   0.23822   0.00000  Uiso   1.00
O444   O     0.16666   0.87155   0.23822   0.00000  Uiso   1.00
O445   O     0.16667   0.79512   0.09511   0.00000  Uiso   1.00
O446   O     0.21947   0.71222   0.23333   0.00000  Uiso   1.00
Zn447  Zn    0.16667   0.88437   0.16667   0.00000  Uiso   1.00
Zn448  Zn    0.16667   0.78229   0.16667   0.00000  Uiso   1.00
C449   C     0.42011   0.83343   0.16808   0.00000  Uiso   1.00
C450   C     0.35533   0.87368   0.18086   0.00000  Uiso   1.00
C451   C     0.62408   0.83463   0.16582   0.00000  Uiso   1.00
C452   C     0.37591   0.83395   0.16974   0.00000  Uiso   1.00
C453   C     0.52480   0.69032   0.20064   0.00000  Uiso   1.00
C454   C     0.47694   0.97559   0.13077   0.00000  Uiso   1.00
C455   C     0.47603   0.69076   0.13152   0.00000  Uiso   1.00
C456   C     0.52260   0.97588   0.20260   0.00000  Uiso   1.00
C457   C     0.59187   0.71595   0.21132   0.00000  Uiso   1.00
C458   C     0.62401   0.68210   0.23123   0.00000  Uiso   1.00
C459   C     0.46517   0.95366   0.04880   0.00000  Uiso   1.00
C460   C     0.57990   0.83361   0.16616   0.00000  Uiso   1.00
C461   C     0.43429   0.92888   0.01341   0.00000  Uiso   1.00
C462   C     0.41262   0.70706   0.09071   0.00000  Uiso   1.00
C463   C     0.39162   0.74338   0.05858   0.00000  Uiso   1.00
C464   C     0.53159   0.96031   0.28698   0.00000  Uiso   1.00
C465   C     0.56740   0.97413   0.32339   0.00000  Uiso   1.00
C466   C     0.49998   0.83326   0.07299   0.00000  Uiso   1.00
C467   C     0.50024   0.83336   0.26036   0.00000  Uiso   1.00
C468   C     0.50025   0.83315   0.02183   0.00000  Uiso   1.00
C469   C     0.50031   0.83329   0.31154   0.00000  Uiso   1.00
C470   C     0.35384   0.79492   0.15806   0.00000  Uiso   1.00
C471   C     0.64584   0.87377   0.17985   0.00000  Uiso   1.00
C472   C     0.64486   0.79599   0.15268   0.00000  Uiso   1.00
H473   H     0.36911   0.76384   0.15203   0.00000  Uiso   1.00
H474   H     0.49611   0.93800   0.04712   0.00000  Uiso   1.00
H475   H     0.46778   0.98853   0.03513   0.00000  Uiso   1.00
H476   H     0.40345   0.94547   0.01302   0.00000  Uiso   1.00
H477   H     0.44522   0.92895   0.30809   0.00000  Uiso   1.00
H478   H     0.43064   0.89372   0.02580   0.00000  Uiso   1.00
H479   H     0.39997   0.70586   0.12847   0.00000  Uiso   1.00
H480   H     0.40441   0.67508   0.07185   0.00000  Uiso   1.00
H481   H     0.40095   0.74011   0.01933   0.00000  Uiso   1.00
H482   H     0.35728   0.73993   0.05907   0.00000  Uiso   1.00
H483   H     0.40108   0.77712   0.07256   0.00000  Uiso   1.00
H484   H     0.62994   0.90413   0.18996   0.00000  Uiso   1.00
H485   H     0.51929   0.92833   0.30074   0.00000  Uiso   1.00
H486   H     0.50614   0.98552   0.28864   0.00000  Uiso   1.00
H487   H     0.57405   0.67701   0.31963   0.00000  Uiso   1.00
H488   H     0.55903   0.96850   0.02923   0.00000  Uiso   1.00
H489   H     0.59564   0.95419   0.31659   0.00000  Uiso   1.00
H490   H     0.62862   0.76650   0.13873   0.00000  Uiso   1.00
H491   H     0.37214   0.90420   0.19080   0.00000  Uiso   1.00
H492   H     0.60488   0.74917   0.22217   0.00000  Uiso   1.00
H493   H     0.58964   0.71353   0.16963   0.00000  Uiso   1.00
H494   H     0.61443   0.98075   0.22169   0.00000  Uiso   1.00
H495   H     0.65387   0.68846   0.21342   0.00000  Uiso   1.00
H496   H     0.62994   0.68605   0.27217   0.00000  Uiso   1.00
N497   N     0.50000   0.95240   0.16667   0.00000  Uiso   1.00
N498   N     0.50000   0.71427   0.16667   0.00000  Uiso   1.00
O499   O     0.43892   0.87154   0.16666   0.00000  Uiso   1.00
O500   O     0.45108   0.95122   0.09786   0.00000  Uiso   1.00
O501   O     0.45597   0.71498   0.09330   0.00000  Uiso   1.00
O502   O     0.54611   0.95249   0.23855   0.00000  Uiso   1.00
O503   O     0.56108   0.79513   0.16667   0.00000  Uiso   1.00
O504   O     0.56108   0.87154   0.16667   0.00000  Uiso   1.00
O505   O     0.43892   0.79513   0.16666   0.00000  Uiso   1.00
O506   O     0.50000   0.87155   0.09511   0.00000  Uiso   1.00
O507   O     0.50000   0.79512   0.23822   0.00000  Uiso   1.00
O508   O     0.50000   0.87155   0.23822   0.00000  Uiso   1.00
O509   O     0.50000   0.79512   0.09511   0.00000  Uiso   1.00
O510   O     0.55281   0.71222   0.23333   0.00000  Uiso   1.00
Zn511  Zn    0.50000   0.88437   0.16667   0.00000  Uiso   1.00
Zn512  Zn    0.50000   0.78229   0.16667   0.00000  Uiso   1.00
C513   C     0.75345   0.83343   0.16808   0.00000  Uiso   1.00
C514   C     0.68866   0.87368   0.18086   0.00000  Uiso   1.00
C515   C     0.95741   0.83463   0.16582   0.00000  Uiso   1.00
C516   C     0.70924   0.83395   0.16974   0.00000  Uiso   1.00
C517   C     0.85813   0.69032   0.20064   0.00000  Uiso   1.00
C518   C     0.81027   0.97559   0.13077   0.00000  Uiso   1.00
C519   C     0.80936   0.69076   0.13152   0.00000  Uiso   1.00
C520   C     0.85593   0.97588   0.20260   0.00000  Uiso   1.00
C521   C     0.92521   0.71595   0.21132   0.00000  Uiso   1.00
C522   C     0.95734   0.68210   0.23123   0.00000  Uiso   1.00
C523   C     0.79850   0.95366   0.04880   0.00000  Uiso   1.00
C524   C     0.91323   0.83361   0.16616   0.00000  Uiso   1.00
C525   C     0.76762   0.92888   0.01341   0.00000  Uiso   1.00
C526   C     0.74596   0.70706   0.09071   0.00000  Uiso   1.00
C527   C     0.72496   0.74338   0.05858   0.00000  Uiso   1.00
C528   C     0.86492   0.96031   0.28698   0.00000  Uiso   1.00
C529   C     0.90073   0.97413   0.32339   0.00000  Uiso   1.00
C530   C     0.83331   0.83326   0.07299   0.00000  Uiso   1.00
C531   C     0.83357   0.83336   0.26036   0.00000  Uiso   1.00
C532   C     0.83358   0.83315   0.02183   0.00000  Uiso   1.00
C533   C     0.83364   0.83329   0.31154   0.00000  Uiso   1.00
C534   C     0.68718   0.79492   0.15806   0.00000  Uiso   1.00
C535   C     0.97918   0.87377   0.17985   0.00000  Uiso   1.00
C536   C     0.97819   0.79599   0.15268   0.00000  Uiso   1.00
H537   H     0.70244   0.76384   0.15203   0.00000  Uiso   1.00
H538   H     0.82945   0.93800   0.04712   0.00000  Uiso   1.00
H539   H     0.80112   0.98853   0.03513   0.00000  Uiso   1.00
H540   H     0.73679   0.94547   0.01302   0.00000  Uiso   1.00
H541   H     0.77855   0.92895   0.30809   0.00000  Uiso   1.00
H542   H     0.76397   0.89372   0.02580   0.00000  Uiso   1.00
H543   H     0.73331   0.70586   0.12847   0.00000  Uiso   1.00
H544   H     0.73774   0.67508   0.07185   0.00000  Uiso   1.00
H545   H     0.73429   0.74011   0.01933   0.00000  Uiso   1.00
H546   H     0.69061   0.73993   0.05907   0.00000  Uiso   1.00
H547   H     0.73442   0.77712   0.07256   0.00000  Uiso   1.00
H548   H     0.96328   0.90413   0.18996   0.00000  Uiso   1.00
H549   H     0.85262   0.92833   0.30074   0.00000  Uiso   1.00
H550   H     0.83947   0.98552   0.28864   0.00000  Uiso   1.00
H551   H     0.90738   0.67701   0.31963   0.00000  Uiso   1.00
H552   H     0.89236   0.96850   0.02923   0.00000  Uiso   1.00
H553   H     0.92897   0.95419   0.31659   0.00000  Uiso   1.00
H554   H     0.96195   0.76650   0.13873   0.00000  Uiso   1.00
H555   H     0.70547   0.90420   0.19080   0.00000  Uiso   1.00
H556   H     0.93821   0.74917   0.22217   0.00000  Uiso   1.00
H557   H     0.92297   0.71353   0.16963   0.00000  Uiso   1.00
H558   H     0.94776   0.98075   0.22169   0.00000  Uiso   1.00
H559   H     0.98721   0.68846   0.21342   0.00000  Uiso   1.00
H560   H     0.96328   0.68605   0.27217   0.00000  Uiso   1.00
N561   N     0.83333   0.95240   0.16667   0.00000  Uiso   1.00
N562   N     0.83333   0.71427   0.16667   0.00000  Uiso   1.00
O563   O     0.77226   0.87154   0.16666   0.00000  Uiso   1.00
O564   O     0.78441   0.95122   0.09786   0.00000  Uiso   1.00
O565   O     0.78930   0.71498   0.09330   0.00000  Uiso   1.00
O566   O     0.87944   0.95249   0.23855   0.00000  Uiso   1.00
O567   O     0.89441   0.79513   0.16667   0.00000  Uiso   1.00
O568   O     0.89441   0.87154   0.16667   0.00000  Uiso   1.00
O569   O     0.77226   0.79513   0.16666   0.00000  Uiso   1.00
O570   O     0.83334   0.87155   0.09511   0.00000  Uiso   1.00
O571   O     0.83333   0.79512   0.23822   0.00000  Uiso   1.00
O572   O     0.83333   0.87155   0.23822   0.00000  Uiso   1.00
O573   O     0.83334   0.79512   0.09511   0.00000  Uiso   1.00
O574   O     0.88614   0.71222   0.23333   0.00000  Uiso   1.00
Zn575  Zn    0.83333   0.88437   0.16667   0.00000  Uiso   1.00
Zn576  Zn    0.83333   0.78229   0.16667   0.00000  Uiso   1.00
C577   C     0.08678   0.16676   0.50142   0.00000  Uiso   1.00
C578   C     0.02199   0.20701   0.51419   0.00000  Uiso   1.00
C579   C     0.29074   0.16796   0.49915   0.00000  Uiso   1.00
C580   C     0.04257   0.16728   0.50307   0.00000  Uiso   1.00
C581   C     0.19147   0.02365   0.53398   0.00000  Uiso   1.00
C582   C     0.14361   0.30893   0.46410   0.00000  Uiso   1.00
C583   C     0.14269   0.02410   0.46486   0.00000  Uiso   1.00
C584   C     0.18927   0.30922   0.53594   0.00000  Uiso   1.00
C585   C     0.25854   0.04928   0.54466   0.00000  Uiso   1.00
C586   C     0.29067   0.01544   0.56457   0.00000  Uiso   1.00
C587   C     0.13183   0.28699   0.38213   0.00000  Uiso   1.00
C588   C     0.24657   0.16695   0.49949   0.00000  Uiso   1.00
C589   C     0.10096   0.26222   0.34674   0.00000  Uiso   1.00
C590   C     0.07929   0.04039   0.42404   0.00000  Uiso   1.00
C591   C     0.05829   0.07671   0.39191   0.00000  Uiso   1.00
C592   C     0.19825   0.29364   0.62031   0.00000  Uiso   1.00
C593   C     0.23407   0.30747   0.65673   0.00000  Uiso   1.00
C594   C     0.16665   0.16660   0.40632   0.00000  Uiso   1.00
C595   C     0.16691   0.16669   0.59370   0.00000  Uiso   1.00
C596   C     0.16692   0.16648   0.35516   0.00000  Uiso   1.00
C597   C     0.16697   0.16662   0.64488   0.00000  Uiso   1.00
C598   C     0.02051   0.12825   0.49139   0.00000  Uiso   1.00
C599   C     0.31251   0.20710   0.51318   0.00000  Uiso   1.00
C600   C     0.31152   0.12932   0.48602   0.00000  Uiso   1.00
H601   H     0.03577   0.09718   0.48536   0.00000  Uiso   1.00
H602   H     0.16278   0.27133   0.38045   0.00000  Uiso   1.00
H603   H     0.13445   0.32187   0.36846   0.00000  Uiso   1.00
H604   H     0.07012   0.27880   0.34635   0.00000  Uiso   1.00
H605   H     0.11189   0.26228   0.64142   0.00000  Uiso   1.00
H606   H     0.09731   0.22705   0.35914   0.00000  Uiso   1.00
H607   H     0.06664   0.03920   0.46180   0.00000  Uiso   1.00
H608   H     0.07108   0.00841   0.40518   0.00000  Uiso   1.00
H609   H     0.06762   0.07344   0.35266   0.00000  Uiso   1.00
H610   H     0.02395   0.07326   0.39241   0.00000  Uiso   1.00
H611   H     0.06775   0.11045   0.40590   0.00000  Uiso   1.00
H612   H     0.29661   0.23747   0.52329   0.00000  Uiso   1.00
H613   H     0.18595   0.26167   0.63407   0.00000  Uiso   1.00
H614   H     0.17281   0.31886   0.62198   0.00000  Uiso   1.00
H615   H     0.24072   0.01034   0.65296   0.00000  Uiso   1.00
H616   H     0.22569   0.30183   0.36256   0.00000  Uiso   1.00
H617   H     0.26231   0.28753   0.64993   0.00000  Uiso   1.00
H618   H     0.29528   0.09984   0.47207   0.00000  Uiso   1.00
H619   H     0.03880   0.23753   0.52413   0.00000  Uiso   1.00
H620   H     0.27154   0.08250   0.55551   0.00000  Uiso   1.00
H621   H     0.25630   0.04686   0.50296   0.00000  Uiso   1.00
H622   H     0.28110   0.31408   0.55502   0.00000  Uiso   1.00
H623   H     0.32054   0.02179   0.54675   0.00000  Uiso   1.00
H624   H     0.29661   0.01938   0.60550   0.00000  Uiso   1.00
N625   N     0.16667   0.28573   0.50000   0.00000  Uiso   1.00
N626   N     0.16667   0.04760   0.50000   0.00000  Uiso   1.00
O627   O     0.10559   0.20487   0.50000   0.00000  Uiso   1.00
O628   O     0.11774   0.28456   0.43120   0.00000  Uiso   1.00
O629   O     0.12264   0.04831   0.42664   0.00000  Uiso   1.00
O630   O     0.21278   0.28582   0.57188   0.00000  Uiso   1.00
O631   O     0.22774   0.12846   0.50000   0.00000  Uiso   1.00
O632   O     0.22774   0.20487   0.50000   0.00000  Uiso   1.00
O633   O     0.10559   0.12846   0.50000   0.00000  Uiso   1.00
O634   O     0.16667   0.20488   0.42845   0.00000  Uiso   1.00
O635   O     0.16666   0.12845   0.57155   0.00000  Uiso   1.00
O636   O     0.16666   0.20488   0.57155   0.00000  Uiso   1.00
O637   O     0.16667   0.12845   0.42845   0.00000  Uiso   1.00
O638   O     0.21947   0.04555   0.56667   0.00000  Uiso   1.00
Zn639  Zn    0.16667   0.21771   0.50000   0.00000  Uiso   1.00
Zn640  Zn    0.16667   0.11563   0.50000   0.00000  Uiso   1.00
C641   C     0.42011   0.16676   0.50142   0.00000  Uiso   1.00
C642   C     0.35533   0.20701   0.51419   0.00000  Uiso   1.00
C643   C     0.62408   0.16796   0.49915   0.00000  Uiso   1.00
C644   C     0.37591   0.16728   0.50307   0.00000  Uiso   1.00
C645   C     0.52480   0.02365   0.53398   0.00000  Uiso   1.00
C646   C     0.47694   0.30893   0.46410   0.00000  Uiso   1.00
C647   C     0.47603   0.02410   0.46486   0.00000  Uiso   1.00
C648   C     0.52260   0.30922   0.53594   0.00000  Uiso   1.00
C649   C     0.59187   0.04928   0.54466   0.00000  Uiso   1.00
C650   C     0.62401   0.01544   0.56457   0.00000  Uiso   1.00
C651   C     0.46517   0.28699   0.38213   0.00000  Uiso   1.00
C652   C     0.57990   0.16695   0.49949   0.00000  Uiso   1.00
C653   C     0.43429   0.26222   0.34674   0.00000  Uiso   1.00
C654   C     0.41262   0.04039   0.42404   0.00000  Uiso   1.00
C655   C     0.39162   0.07671   0.39191   0.00000  Uiso   1.00
C656   C     0.53159   0.29364   0.62031   0.00000  Uiso   1.00
C657   C     0.56740   0.30747   0.65673   0.00000  Uiso   1.00
C658   C     0.49998   0.16660   0.40632   0.00000  Uiso   1.00
C659   C     0.50024   0.16669   0.59370   0.00000  Uiso   1.00
C660   C     0.50025   0.16648   0.35516   0.00000  Uiso   1.00
C661   C     0.50031   0.16662   0.64488   0.00000  Uiso   1.00
C662   C     0.35384   0.12825   0.49139   0.00000  Uiso   1.00
C663   C     0.64584   0.20710   0.51318   0.00000  Uiso   1.00
C664   C     0.64486   0.12932   0.48602   0.00000  Uiso   1.00
H665   H     0.36911   0.09718   0.48536   0.00000  Uiso   1.00
H666   H     0.49611   0.27133   0.38045   0.00000  Uiso   1.00
H667   H     0.46778   0.32187   0.36846   0.00000  Uiso   1.00
H668   H     0.40345   0.27880   0.34635   0.00000  Uiso   1.00
H669   H     0.44522   0.26228   0.64142   0.00000  Uiso   1.00
H670   H     0.43064   0.22705   0.35914   0.00000  Uiso   1.00
H671   H     0.39997   0.03920   0.46180   0.00000  Uiso   1.00
H672   H     0.40441   0.00841   0.40518   0.00000  Uiso   1.00
H673   H     0.40095   0.07344   0.35266   0.00000  Uiso   1.00
H674   H     0.35728   0.07326   0.39241   0.00000  Uiso   1.00
H675   H     0.40108   0.11045   0.40590   0.00000  Uiso   1.00
H676   H     0.62994   0.23747   0.52329   0.00000  Uiso   1.00
H677   H     0.51929   0.26167   0.63407   0.00000  Uiso   1.00
H678   H     0.50614   0.31886   0.62198   0.00000  Uiso   1.00
H679   H     0.57405   0.01034   0.65296   0.00000  Uiso   1.00
H680   H     0.55903   0.30183   0.36256   0.00000  Uiso   1.00
H681   H     0.59564   0.28753   0.64993   0.00000  Uiso   1.00
H682   H     0.62862   0.09984   0.47207   0.00000  Uiso   1.00
H683   H     0.37214   0.23753   0.52413   0.00000  Uiso   1.00
H684   H     0.60488   0.08250   0.55551   0.00000  Uiso   1.00
H685   H     0.58964   0.04686   0.50296   0.00000  Uiso   1.00
H686   H     0.61443   0.31408   0.55502   0.00000  Uiso   1.00
H687   H     0.65387   0.02179   0.54675   0.00000  Uiso   1.00
H688   H     0.62994   0.01938   0.60550   0.00000  Uiso   1.00
N689   N     0.50000   0.28573   0.50000   0.00000  Uiso   1.00
N690   N     0.50000   0.04760   0.50000   0.00000  Uiso   1.00
O691   O     0.43892   0.20487   0.50000   0.00000  Uiso   1.00
O692   O     0.45108   0.28456   0.43120   0.00000  Uiso   1.00
O693   O     0.45597   0.04831   0.42664   0.00000  Uiso   1.00
O694   O     0.54611   0.28582   0.57188   0.00000  Uiso   1.00
O695   O     0.56108   0.12846   0.50000   0.00000  Uiso   1.00
O696   O     0.56108   0.20487   0.50000   0.00000  Uiso   1.00
O697   O     0.43892   0.12846   0.50000   0.00000  Uiso   1.00
O698   O     0.50000   0.20488   0.42845   0.00000  Uiso   1.00
O699   O     0.50000   0.12845   0.57155   0.00000  Uiso   1.00
O700   O     0.50000   0.20488   0.57155   0.00000  Uiso   1.00
O701   O     0.50000   0.12845   0.42845   0.00000  Uiso   1.00
O702   O     0.55281   0.04555   0.56667   0.00000  Uiso   1.00
Zn703  Zn    0.50000   0.21771   0.50000   0.00000  Uiso   1.00
Zn704  Zn    0.50000   0.11563   0.50000   0.00000  Uiso   1.00
C705   C     0.75345   0.16676   0.50142   0.00000  Uiso   1.00
C706   C     0.68866   0.20701   0.51419   0.00000  Uiso   1.00
C707   C     0.95741   0.16796   0.49915   0.00000  Uiso   1.00
C708   C     0.70924   0.16728   0.50307   0.00000  Uiso   1.00
C709   C     0.85813   0.02365   0.53398   0.00000  Uiso   1.00
C710   C     0.81027   0.30893   0.46410   0.00000  Uiso   1.00
C711   C     0.80936   0.02410   0.46486   0.00000  Uiso   1.00
C712   C     0.85593   0.30922   0.53594   0.00000  Uiso   1.00
C713   C     0.92521   0.04928   0.54466   0.00000  Uiso   1.00
C714   C     0.95734   0.01544   0.56457   0.00000  Uiso   1.00
C715   C     0.79850   0.28699   0.38213   0.00000  Uiso   1.00
C716   C     0.91323   0.16695   0.49949   0.00000  Uiso   1.00
C717   C     0.76762   0.26222   0.34674   0.00000  Uiso   1.00
C718   C     0.74596   0.04039   0.42404   0.00000  Uiso   1.00
C719   C     0.72496   0.07671   0.39191   0.00000  Uiso   1.00
C720   C     0.86492   0.29364   0.62031   0.00000  Uiso   1.00
C721   C     0.90073   0.30747   0.65673   0.00000  Uiso   1.00
C722   C     0.83331   0.16660   0.40632   0.00000  Uiso   1.00
C723   C     0.83357   0.16669   0.59370   0.00000  Uiso   1.00
C724   C     0.83358   0.16648   0.35516   0.00000  Uiso   1.00
C725   C     0.83364   0.16662   0.64488   0.00000  Uiso   1.00
C726   C     0.68718   0.12825   0.49139   0.00000  Uiso   1.00
C727   C     0.97918   0.20710   0.51318   0.00000  Uiso   1.00
C728   C     0.97819   0.12932   0.48602   0.00000  Uiso   1.00
H729   H     0.70244   0.09718   0.48536   0.00000  Uiso   1.00
H730   H     0.82945   0.27133   0.38045   0.00000  Uiso   1.00
H731   H     0.80112   0.32187   0.36846   0.00000  Uiso   1.00
H732   H     0.73679   0.27880   0.34635   0.00000  Uiso   1.00
H733   H     0.77855   0.26228   0.64142   0.00000  Uiso   1.00
H734   H     0.76397   0.22705   0.35914   0.00000  Uiso   1.00
H735   H     0.73331   0.03920   0.46180   0.00000  Uiso   1.00
H736   H     0.73774   0.00841   0.40518   0.00000  Uiso   1.00
H737   H     0.73429   0.07344   0.35266   0.00000  Uiso   1.00
H738   H     0.69061   0.07326   0.39241   0.00000  Uiso   1.00
H739   H     0.73442   0.11045   0.40590   0.00000  Uiso   1.00
H740   H     0.96328   0.23747   0.52329   0.00000  Uiso   1.00
H741   H     0.85262   0.26167   0.63407   0.00000  Uiso   1.00
H742   H     0.83947   0.31886   0.62198   0.00000  Uiso   1.00
H743   H     0.90738   0.01034   0.65296   0.00000  Uiso   1.00
H744   H     0.89236   0.30183   0.36256   0.00000  Uiso   1.00
H745   H     0.92897   0.28753   0.64993   0.00000  Uiso   1.00
H746   H     0.96195   0.09984   0.47207   0.00000  Uiso   1.00
H747   H     0.70547   0.23753   0.52413   0.00000  Uiso   1.00
H748   H     0.93821   0.08250   0.55551   0.00000  Uiso   1.00
H749   H     0.92297   0.04686   0.50296   0.00000  Uiso   1.00
H750   H     0.94776   0.31408   0.55502   0.00000  Uiso   1.00
H751   H     0.98721   0.02179   0.54675   0.00000  Uiso   1.00
H752   H     0.96328   0.01938   0.60550   0.00000  Uiso   1.00
N753   N     0.83333   0.28573   0.50000   0.00000  Uiso   1.00
N754   N     0.83333   0.04760   0.50000   0.00000  Uiso   1.00
O755   O     0.77226   0.20487   0.50000   0.00000  Uiso   1.00
O756   O     0.78441   0.28456   0.43120   0.00000  Uiso   1.00
O757   O     0.78930   0.04831   0.42664   0.00000  Uiso   1.00
O758   O     0.87944   0.28582   0.57188   0.00000  Uiso   1.00
O759   O     0.89441   0.12846   0.50000   0.00000  Uiso   1.00
O760   O     0.89441   0.20487   0.50000   0.00000  Uiso   1.00
O761   O     0.77226   0.12846   0.50000   0.00000  Uiso   1.00
O762   O     0.83334   0.20488   0.42845   0.00000  Uiso   1.00
O763   O     0.83333   0.12845   0.57155   0.00000  Uiso   1.00
O764   O     0.83333   0.20488   0.57155   0.00000  Uiso   1.00
O765   O     0.83334   0.12845   0.42845   0.00000  Uiso   1.00
O766   O     0.88614   0.04555   0.56667   0.00000  Uiso   1.00
Zn767  Zn    0.83333   0.21771   0.50000   0.00000  Uiso   1.00
Zn768  Zn    0.83333   0.11563   0.50000   0.00000  Uiso   1.00
C769   C     0.08678   0.50010   0.50142   0.00000  Uiso   1.00
C770   C     0.02199   0.54034   0.51419   0.00000  Uiso   1.00
C771   C     0.29074   0.50130   0.49915   0.00000  Uiso   1.00
C772   C     0.04257   0.50062   0.50307   0.00000  Uiso   1.00
C773   C     0.19147   0.35698   0.53398   0.00000  Uiso   1.00
C774   C     0.14361   0.64226   0.46410   0.00000  Uiso   1.00
C775   C     0.14269   0.35743   0.46486   0.00000  Uiso   1.00
C776   C     0.18927   0.64255   0.53594   0.00000  Uiso   1.00
C777   C     0.25854   0.38261   0.54466   0.00000  Uiso   1.00
C778   C     0.29067   0.34877   0.56457   0.00000  Uiso   1.00
C779   C     0.13183   0.62033   0.38213   0.00000  Uiso   1.00
C780   C     0.24657   0.50028   0.49949   0.00000  Uiso   1.00
C781   C     0.10096   0.59555   0.34674   0.00000  Uiso   1.00
C782   C     0.07929   0.37372   0.42404   0.00000  Uiso   1.00
C783   C     0.05829   0.41004   0.39191   0.00000  Uiso   1.00
C784   C     0.19825   0.62697   0.62031   0.00000  Uiso   1.00
C785   C     0.23407   0.64080   0.65673   0.00000  Uiso   1.00
C786   C     0.16665   0.49993   0.40632   0.00000  Uiso   1.00
C787   C     0.16691   0.50003   0.59370   0.00000  Uiso   1.00
C788   C     0.16692   0.49982   0.35516   0.00000  Uiso   1.00
C789   C     0.16697   0.49995   0.64488   0.00000  Uiso   1.00
C790   C     0.02051   0.46159   0.49139   0.00000  Uiso   1.00
C791   C     0.31251   0.54044   0.51318   0.00000  Uiso   1.00
C792   C     0.31152   0.46266   0.48602   0.00000  Uiso   1.00
H793   H     0.03577   0.43051   0.48536   0.00000  Uiso   1.00
H794   H     0.16278   0.60467   0.38045   0.00000  Uiso   1.00
H795   H     0.13445   0.65520   0.36846   0.00000  Uiso   1.00
H796   H     0.07012   0.61214   0.34635   0.00000  Uiso   1.00
H797   H     0.11189   0.59562   0.64142   0.00000  Uiso   1.00
H798   H     0.09731   0.56038   0.35914   0.00000  Uiso   1.00
H799   H     0.06664   0.37253   0.46180   0.00000  Uiso   1.00
H800   H     0.07108   0.34175   0.40518   0.00000  Uiso   1.00
H801   H     0.06762   0.40678   0.35266   0.00000  Uiso   1.00
H802   H     0.02395   0.40660   0.39241   0.00000  Uiso   1.00
H803   H     0.06775   0.44378   0.40590   0.00000  Uiso   1.00
H804   H     0.29661   0.57080   0.52329   0.00000  Uiso   1.00
H805   H     0.18595   0.59500   0.63407   0.00000  Uiso   1.00
H806   H     0.17281   0.65219   0.62198   0.00000  Uiso   1.00
H807   H     0.24072   0.34368   0.65296   0.00000  Uiso   1.00
H808   H     0.22569   0.63517   0.36256   0.00000  Uiso   1.00
H809   H     0.26231   0.62086   0.64993   0.00000  Uiso   1.00
H810   H     0.29528   0.43317   0.47207   0.00000  Uiso   1.00
H811   H     0.03880   0.57087   0.52413   0.00000  Uiso   1.00
H812   H     0.27154   0.41583   0.55551   0.00000  Uiso   1.00
H813   H     0.25630   0.38019   0.50296   0.00000  Uiso   1.00
H814   H     0.28110   0.64742   0.55502   0.00000  Uiso   1.00
H815   H     0.32054   0.35513   0.54675   0.00000  Uiso   1.00
H816   H     0.29661   0.35272   0.60550   0.00000  Uiso   1.00
N817   N     0.16667   0.61907   0.50000   0.00000  Uiso   1.00
N818   N     0.16667   0.38093   0.50000   0.00000  Uiso   1.00
O819   O     0.10559   0.53821   0.50000   0.00000  Uiso   1.00
O820   O     0.11774   0.61789   0.43120   0.00000  Uiso   1.00
O821   O     0.12264   0.38165   0.42664   0.00000  Uiso   1.00
O822   O     0.21278   0.61915   0.57188   0.00000  Uiso   1.00
O823   O     0.22774   0.46179   0.50000   0.00000  Uiso   1.00
O824   O     0.22774   0.53821   0.50000   0.00000  Uiso   1.00
O825   O     0.10559   0.46179   0.50000   0.00000  Uiso   1.00
O826   O     0.16667   0.53821   0.42845   0.00000  Uiso   1.00
O827   O     0.16666   0.46179   0.57155   0.00000  Uiso   1.00
O828   O     0.16666   0.53821   0.57155   0.00000  Uiso   1.00
O829   O     0.16667   0.46179   0.42845   0.00000  Uiso   1.00
O830   O     0.21947   0.37888   0.56667   0.00000  Uiso   1.00
Zn831  Zn    0.16667   0.55104   0.50000   0.00000  Uiso   1.00
Zn832  Zn    0.16667   0.44896   0.50000   0.00000  Uiso   1.00
C833   C     0.42011   0.50010   0.50142   0.00000  Uiso   1.00
C834   C     0.35533   0.54034   0.51419   0.00000  Uiso   1.00
C835   C     0.62408   0.50130   0.49915   0.00000  Uiso   1.00
C836   C     0.37591   0.50062   0.50307   0.00000  Uiso   1.00
C837   C     0.52480   0.35698   0.53398   0.00000  Uiso   1.00
C838   C     0.47694   0.64226   0.46410   0.00000  Uiso   1.00
C839   C     0.47603   0.35743   0.46486   0.00000  Uiso   1.00
C840   C     0.52260   0.64255   0.53594   0.00000  Uiso   1.00
C841   C     0.59187   0.38261   0.54466   0.00000  Uiso   1.00
C842   C     0.62401   0.34877   0.56457   0.00000  Uiso   1.00
C843   C     0.46517   0.62033   0.38213   0.00000  Uiso   1.00
C844   C     0.57990   0.50028   0.49949   0.00000  Uiso   1.00
C845   C     0.43429   0.59555   0.34674   0.00000  Uiso   1.00
C846   C     0.41262   0.37372   0.42404   0.00000  Uiso   1.00
C847   C     0.39162   0.41004   0.39191   0.00000  Uiso   1.00
C848   C     0.53159   0.62697   0.62031   0.00000  Uiso   1.00
C849   C     0.56740   0.64080   0.65673   0.00000  Uiso   1.00
C850   C     0.49998   0.49993   0.40632   0.00000  Uiso   1.00
C851   C     0.50024   0.50003   0.59370   0.00000  Uiso   1.00
C852   C     0.50025   0.49982   0.35516   0.00000  Uiso   1.00
C853   C     0.50031   0.49995   0.64488   0.00000  Uiso   1.00
C854   C     0.35384   0.46159   0.49139   0.00000  Uiso   1.00
C855   C     0.64584   0.54044   0.51318   0.00000  Uiso   1.00
C856   C     0.64486   0.46266   0.48602   0.00000  Uiso   1.00
H857   H     0.36911   0.43051   0.48536   0.00000  Uiso   1.00
H858   H     0.49611   0.60467   0.38045   0.00000  Uiso   1.00
H859   H     0.46778   0.65520   0.36846   0.00000  Uiso   1.00
H860   H     0.40345   0.61214   0.34635   0.00000  Uiso   1.00
H861   H     0.44522   0.59562   0.64142   0.00000  Uiso   1.00
H862   H     0.43064   0.56038   0.35914   0.00000  Uiso   1.00
H863   H     0.39997   0.37253   0.46180   0.00000  Uiso   1.00
H864   H     0.40441   0.34175   0.40518   0.00000  Uiso   1.00
H865   H     0.40095   0.40678   0.35266   0.00000  Uiso   1.00
H866   H     0.35728   0.40660   0.39241   0.00000  Uiso   1.00
H867   H     0.40108   0.44378   0.40590   0.00000  Uiso   1.00
H868   H     0.62994   0.57080   0.52329   0.00000  Uiso   1.00
H869   H     0.51929   0.59500   0.63407   0.00000  Uiso   1.00
H870   H     0.50614   0.65219   0.62198   0.00000  Uiso   1.00
H871   H     0.57405   0.34368   0.65296   0.00000  Uiso   1.00
H872   H     0.55903   0.63517   0.36256   0.00000  Uiso   1.00
H873   H     0.59564   0.62086   0.64993   0.00000  Uiso   1.00
H874   H     0.62862   0.43317   0.47207   0.00000  Uiso   1.00
H875   H     0.37214   0.57087   0.52413   0.00000  Uiso   1.00
H876   H     0.60488   0.41583   0.55551   0.00000  Uiso   1.00
H877   H     0.58964   0.38019   0.50296   0.00000  Uiso   1.00
H878   H     0.61443   0.64742   0.55502   0.00000  Uiso   1.00
H879   H     0.65387   0.35513   0.54675   0.00000  Uiso   1.00
H880   H     0.62994   0.35272   0.60550   0.00000  Uiso   1.00
N881   N     0.50000   0.61907   0.50000   0.00000  Uiso   1.00
N882   N     0.50000   0.38093   0.50000   0.00000  Uiso   1.00
O883   O     0.43892   0.53821   0.50000   0.00000  Uiso   1.00
O884   O     0.45108   0.61789   0.43120   0.00000  Uiso   1.00
O885   O     0.45597   0.38165   0.42664   0.00000  Uiso   1.00
O886   O     0.54611   0.61915   0.57188   0.00000  Uiso   1.00
O887   O     0.56108   0.46179   0.50000   0.00000  Uiso   1.00
O888   O     0.56108   0.53821   0.50000   0.00000  Uiso   1.00
O889   O     0.43892   0.46179   0.50000   0.00000  Uiso   1.00
O890   O     0.50000   0.53821   0.42845   0.00000  Uiso   1.00
O891   O     0.50000   0.46179   0.57155   0.00000  Uiso   1.00
O892   O     0.50000   0.53821   0.57155   0.00000  Uiso   1.00
O893   O     0.50000   0.46179   0.42845   0.00000  Uiso   1.00
O894   O     0.55281   0.37888   0.56667   0.00000  Uiso   1.00
Zn895  Zn    0.50000   0.55104   0.50000   0.00000  Uiso   1.00
Zn896  Zn    0.50000   0.44896   0.50000   0.00000  Uiso   1.00
C897   C     0.75345   0.50010   0.50142   0.00000  Uiso   1.00
C898   C     0.68866   0.54034   0.51419   0.00000  Uiso   1.00
C899   C     0.95741   0.50130   0.49915   0.00000  Uiso   1.00
C900   C     0.70924   0.50062   0.50307   0.00000  Uiso   1.00
C901   C     0.85813   0.35698   0.53398   0.00000  Uiso   1.00
C902   C     0.81027   0.64226   0.46410   0.00000  Uiso   1.00
C903   C     0.80936   0.35743   0.46486   0.00000  Uiso   1.00
C904   C     0.85593   0.64255   0.53594   0.00000  Uiso   1.00
C905   C     0.92521   0.38261   0.54466   0.00000  Uiso   1.00
C906   C     0.95734   0.34877   0.56457   0.00000  Uiso   1.00
C907   C     0.79850   0.62033   0.38213   0.00000  Uiso   1.00
C908   C     0.91323   0.50028   0.49949   0.00000  Uiso   1.00
C909   C     0.76762   0.59555   0.34674   0.00000  Uiso   1.00
C910   C     0.74596   0.37372   0.42404   0.00000  Uiso   1.00
C911   C     0.72496   0.41004   0.39191   0.00000  Uiso   1.00
C912   C     0.86492   0.62697   0.62031   0.00000  Uiso   1.00
C913   C     0.90073   0.64080   0.65673   0.00000  Uiso   1.00
C914   C     0.83331   0.49993   0.40632   0.00000  Uiso   1.00
C915   C     0.83357   0.50003   0.59370   0.00000  Uiso   1.00
C916   C     0.83358   0.49982   0.35516   0.00000  Uiso   1.00
C917   C     0.83364   0.49995   0.64488   0.00000  Uiso   1.00
C918   C     0.68718   0.46159   0.49139   0.00000  Uiso   1.00
C919   C     0.97918   0.54044   0.51318   0.00000  Uiso   1.00
C920   C     0.97819   0.46266   0.48602   0.00000  Uiso   1.00
H921   H     0.70244   0.43051   0.48536   0.00000  Uiso   1.00
H922   H     0.82945   0.60467   0.38045   0.00000  Uiso   1.00
H923   H     0.80112   0.65520   0.36846   0.00000  Uiso   1.00
H924   H     0.73679   0.61214   0.34635   0.00000  Uiso   1.00
H925   H     0.77855   0.59562   0.64142   0.00000  Uiso   1.00
H926   H     0.76397   0.56038   0.35914   0.00000  Uiso   1.00
H927   H     0.73331   0.37253   0.46180   0.00000  Uiso   1.00
H928   H     0.73774   0.34175   0.40518   0.00000  Uiso   1.00
H929   H     0.73429   0.40678   0.35266   0.00000  Uiso   1.00
H930   H     0.69061   0.40660   0.39241   0.00000  Uiso   1.00
H931   H     0.73442   0.44378   0.40590   0.00000  Uiso   1.00
H932   H     0.96328   0.57080   0.52329   0.00000  Uiso   1.00
H933   H     0.85262   0.59500   0.63407   0.00000  Uiso   1.00
H934   H     0.83947   0.65219   0.62198   0.00000  Uiso   1.00
H935   H     0.90738   0.34368   0.65296   0.00000  Uiso   1.00
H936   H     0.89236   0.63517   0.36256   0.00000  Uiso   1.00
H937   H     0.92897   0.62086   0.64993   0.00000  Uiso   1.00
H938   H     0.96195   0.43317   0.47207   0.00000  Uiso   1.00
H939   H     0.70547   0.57087   0.52413   0.00000  Uiso   1.00
H940   H     0.93821   0.41583   0.55551   0.00000  Uiso   1.00
H941   H     0.92297   0.38019   0.50296   0.00000  Uiso   1.00
H942   H     0.94776   0.64742   0.55502   0.00000  Uiso   1.00
H943   H     0.98721   0.35513   0.54675   0.00000  Uiso   1.00
H944   H     0.96328   0.35272   0.60550   0.00000  Uiso   1.00
N945   N     0.83333   0.61907   0.50000   0.00000  Uiso   1.00
N946   N     0.83333   0.38093   0.50000   0.00000  Uiso   1.00
O947   O     0.77226   0.53821   0.50000   0.00000  Uiso   1.00
O948   O     0.78441   0.61789   0.43120   0.00000  Uiso   1.00
O949   O     0.78930   0.38165   0.42664   0.00000  Uiso   1.00
O950   O     0.87944   0.61915   0.57188   0.00000  Uiso   1.00
O951   O     0.89441   0.46179   0.50000   0.00000  Uiso   1.00
O952   O     0.89441   0.53821   0.50000   0.00000  Uiso   1.00
O953   O     0.77226   0.46179   0.50000   0.00000  Uiso   1.00
O954   O     0.83334   0.53821   0.42845   0.00000  Uiso   1.00
O955   O     0.83333   0.46179   0.57155   0.00000  Uiso   1.00
O956   O     0.83333   0.53821   0.57155   0.00000  Uiso   1.00
O957   O     0.83334   0.46179   0.42845   0.00000  Uiso   1.00
O958   O     0.88614   0.37888   0.56667   0.00000  Uiso   1.00
Zn959  Zn    0.83333   0.55104   0.50000   0.00000  Uiso   1.00
Zn960  Zn    0.83333   0.44896   0.50000   0.00000  Uiso   1.00
C961   C     0.08678   0.83343   0.50142   0.00000  Uiso   1.00
C962   C     0.02199   0.87368   0.51419   0.00000  Uiso   1.00
C963   C     0.29074   0.83463   0.49915   0.00000  Uiso   1.00
C964   C     0.04257   0.83395   0.50307   0.00000  Uiso   1.00
C965   C     0.19147   0.69032   0.53398   0.00000  Uiso   1.00
C966   C     0.14361   0.97559   0.46410   0.00000  Uiso   1.00
C967   C     0.14269   0.69076   0.46486   0.00000  Uiso   1.00
C968   C     0.18927   0.97588   0.53594   0.00000  Uiso   1.00
C969   C     0.25854   0.71595   0.54466   0.00000  Uiso   1.00
C970   C     0.29067   0.68210   0.56457   0.00000  Uiso   1.00
C971   C     0.13183   0.95366   0.38213   0.00000  Uiso   1.00
C972   C     0.24657   0.83361   0.49949   0.00000  Uiso   1.00
C973   C     0.10096   0.92888   0.34674   0.00000  Uiso   1.00
C974   C     0.07929   0.70706   0.42404   0.00000  Uiso   1.00
C975   C     0.05829   0.74338   0.39191   0.00000  Uiso   1.00
C976   C     0.19825   0.96031   0.62031   0.00000  Uiso   1.00
C977   C     0.23407   0.97413   0.65673   0.00000  Uiso   1.00
C978   C     0.16665   0.83326   0.40632   0.00000  Uiso   1.00
C979   C     0.16691   0.83336   0.59370   0.00000  Uiso   1.00
C980   C     0.16692   0.83315   0.35516   0.00000  Uiso   1.00
C981   C     0.16697   0.83329   0.64488   0.00000  Uiso   1.00
C982   C     0.02051   0.79492   0.49139   0.00000  Uiso   1.00
C983   C     0.31251   0.87377   0.51318   0.00000  Uiso   1.00
C984   C     0.31152   0.79599   0.48602   0.00000  Uiso   1.00
H985   H     0.03577   0.76384   0.48536   0.00000  Uiso   1.00
H986   H     0.16278   0.93800   0.38045   0.00000  Uiso   1.00
H987   H     0.13445   0.98853   0.36846   0.00000  Uiso   1.00
H988   H     0.07012   0.94547   0.34635   0.00000  Uiso   1.00
H989   H     0.11189   0.92895   0.64142   0.00000  Uiso   1.00
H990   H     0.09731   0.89372   0.35914   0.00000  Uiso   1.00
H991   H     0.06664   0.70586   0.46180   0.00000  Uiso   1.00
H992   H     0.07108   0.67508   0.40518   0.00000  Uiso   1.00
H993   H     0.06762   0.74011   0.35266   0.00000  Uiso   1.00
H994   H     0.02395   0.73993   0.39241   0.00000  Uiso   1.00
H995   H     0.06775   0.77712   0.40590   0.00000  Uiso   1.00
H996   H     0.29661   0.90413   0.52329   0.00000  Uiso   1.00
H997   H     0.18595   0.92833   0.63407   0.00000  Uiso   1.00
H998   H     0.17281   0.98552   0.62198   0.00000  Uiso   1.00
H999   H     0.24072   0.67701   0.65296   0.00000  Uiso   1.00
H1000  H     0.22569   0.96850   0.36256   0.00000  Uiso   1.00
H1001  H     0.26231   0.95419   0.64993   0.00000  Uiso   1.00
H1002  H     0.29528   0.76650   0.47207   0.00000  Uiso   1.00
H1003  H     0.03880   0.90420   0.52413   0.00000  Uiso   1.00
H1004  H     0.27154   0.74917   0.55551   0.00000  Uiso   1.00
H1005  H     0.25630   0.71353   0.50296   0.00000  Uiso   1.00
H1006  H     0.28110   0.98075   0.55502   0.00000  Uiso   1.00
H1007  H     0.32054   0.68846   0.54675   0.00000  Uiso   1.00
H1008  H     0.29661   0.68605   0.60550   0.00000  Uiso   1.00
N1009  N     0.16667   0.95240   0.50000   0.00000  Uiso   1.00
N1010  N     0.16667   0.71427   0.50000   0.00000  Uiso   1.00
O1011  O     0.10559   0.87154   0.50000   0.00000  Uiso   1.00
O1012  O     0.11774   0.95122   0.43120   0.00000  Uiso   1.00
O1013  O     0.12264   0.71498   0.42664   0.00000  Uiso   1.00
O1014  O     0.21278   0.95249   0.57188   0.00000  Uiso   1.00
O1015  O     0.22774   0.79513   0.50000   0.00000  Uiso   1.00
O1016  O     0.22774   0.87154   0.50000   0.00000  Uiso   1.00
O1017  O     0.10559   0.79513   0.50000   0.00000  Uiso   1.00
O1018  O     0.16667   0.87155   0.42845   0.00000  Uiso   1.00
O1019  O     0.16666   0.79512   0.57155   0.00000  Uiso   1.00
O1020  O     0.16666   0.87155   0.57155   0.00000  Uiso   1.00
O1021  O     0.16667   0.79512   0.42845   0.00000  Uiso   1.00
O1022  O     0.21947   0.71222   0.56667   0.00000  Uiso   1.00
Zn1023 Zn    0.16667   0.88437   0.50000   0.00000  Uiso   1.00
Zn1024 Zn    0.16667   0.78229   0.50000   0.00000  Uiso   1.00
C1025  C     0.42011   0.83343   0.50142   0.00000  Uiso   1.00
C1026  C     0.35533   0.87368   0.51419   0.00000  Uiso   1.00
C1027  C     0.62408   0.83463   0.49915   0.00000  Uiso   1.00
C1028  C     0.37591   0.83395   0.50307   0.00000  Uiso   1.00
C1029  C     0.52480   0.69032   0.53398   0.00000  Uiso   1.00
C1030  C     0.47694   0.97559   0.46410   0.00000  Uiso   1.00
C1031  C     0.47603   0.69076   0.46486   0.00000  Uiso   1.00
C1032  C     0.52260   0.97588   0.53594   0.00000  Uiso   1.00
C1033  C     0.59187   0.71595   0.54466   0.00000  Uiso   1.00
C1034  C     0.62401   0.68210   0.56457   0.00000  Uiso   1.00
C1035  C     0.46517   0.95366   0.38213   0.00000  Uiso   1.00
C1036  C     0.57990   0.83361   0.49949   0.00000  Uiso   1.00
C1037  C     0.43429   0.92888   0.34674   0.00000  Uiso   1.00
C1038  C     0.41262   0.70706   0.42404   0.00000  Uiso   1.00
C1039  C     0.39162   0.74338   0.39191   0.00000  Uiso   1.00
C1040  C     0.53159   0.96031   0.62031   0.00000  Uiso   1.00
C1041  C     0.56740   0.97413   0.65673   0.00000  Uiso   1.00
C1042  C     0.49998   0.83326   0.40632   0.00000  Uiso   1.00
C1043  C     0.50024   0.83336   0.59370   0.00000  Uiso   1.00
C1044  C     0.50025   0.83315   0.35516   0.00000  Uiso   1.00
C1045  C     0.50031   0.83329   0.64488   0.00000  Uiso   1.00
C1046  C     0.35384   0.79492   0.49139   0.00000  Uiso   1.00
C1047  C     0.64584   0.87377   0.51318   0.00000  Uiso   1.00
C1048  C     0.64486   0.79599   0.48602   0.00000  Uiso   1.00
H1049  H     0.36911   0.76384   0.48536   0.00000  Uiso   1.00
H1050  H     0.49611   0.93800   0.38045   0.00000  Uiso   1.00
H1051  H     0.46778   0.98853   0.36846   0.00000  Uiso   1.00
H1052  H     0.40345   0.94547   0.34635   0.00000  Uiso   1.00
H1053  H     0.44522   0.92895   0.64142   0.00000  Uiso   1.00
H1054  H     0.43064   0.89372   0.35914   0.00000  Uiso   1.00
H1055  H     0.39997   0.70586   0.46180   0.00000  Uiso   1.00
H1056  H     0.40441   0.67508   0.40518   0.00000  Uiso   1.00
H1057  H     0.40095   0.74011   0.35266   0.00000  Uiso   1.00
H1058  H     0.35728   0.73993   0.39241   0.00000  Uiso   1.00
H1059  H     0.40108   0.77712   0.40590   0.00000  Uiso   1.00
H1060  H     0.62994   0.90413   0.52329   0.00000  Uiso   1.00
H1061  H     0.51929   0.92833   0.63407   0.00000  Uiso   1.00
H1062  H     0.50614   0.98552   0.62198   0.00000  Uiso   1.00
H1063  H     0.57405   0.67701   0.65296   0.00000  Uiso   1.00
H1064  H     0.55903   0.96850   0.36256   0.00000  Uiso   1.00
H1065  H     0.59564   0.95419   0.64993   0.00000  Uiso   1.00
H1066  H     0.62862   0.76650   0.47207   0.00000  Uiso   1.00
H1067  H     0.37214   0.90420   0.52413   0.00000  Uiso   1.00
H1068  H     0.60488   0.74917   0.55551   0.00000  Uiso   1.00
H1069  H     0.58964   0.71353   0.50296   0.00000  Uiso   1.00
H1070  H     0.61443   0.98075   0.55502   0.00000  Uiso   1.00
H1071  H     0.65387   0.68846   0.54675   0.00000  Uiso   1.00
H1072  H     0.62994   0.68605   0.60550   0.00000  Uiso   1.00
N1073  N     0.50000   0.95240   0.50000   0.00000  Uiso   1.00
N1074  N     0.50000   0.71427   0.50000   0.00000  Uiso   1.00
O1075  O     0.43892   0.87154   0.50000   0.00000  Uiso   1.00
O1076  O     0.45108   0.95122   0.43120   0.00000  Uiso   1.00
O1077  O     0.45597   0.71498   0.42664   0.00000  Uiso   1.00
O1078  O     0.54611   0.95249   0.57188   0.00000  Uiso   1.00
O1079  O     0.56108   0.79513   0.50000   0.00000  Uiso   1.00
O1080  O     0.56108   0.87154   0.50000   0.00000  Uiso   1.00
O1081  O     0.43892   0.79513   0.50000   0.00000  Uiso   1.00
O1082  O     0.50000   0.87155   0.42845   0.00000  Uiso   1.00
O1083  O     0.50000   0.79512   0.57155   0.00000  Uiso   1.00
O1084  O     0.50000   0.87155   0.57155   0.00000  Uiso   1.00
O1085  O     0.50000   0.79512   0.42845   0.00000  Uiso   1.00
O1086  O     0.55281   0.71222   0.56667   0.00000  Uiso   1.00
Zn1087 Zn    0.50000   0.88437   0.50000   0.00000  Uiso   1.00
Zn1088 Zn    0.50000   0.78229   0.50000   0.00000  Uiso   1.00
C1089  C     0.75345   0.83343   0.50142   0.00000  Uiso   1.00
C1090  C     0.68866   0.87368   0.51419   0.00000  Uiso   1.00
C1091  C     0.95741   0.83463   0.49915   0.00000  Uiso   1.00
C1092  C     0.70924   0.83395   0.50307   0.00000  Uiso   1.00
C1093  C     0.85813   0.69032   0.53398   0.00000  Uiso   1.00
C1094  C     0.81027   0.97559   0.46410   0.00000  Uiso   1.00
C1095  C     0.80936   0.69076   0.46486   0.00000  Uiso   1.00
C1096  C     0.85593   0.97588   0.53594   0.00000  Uiso   1.00
C1097  C     0.92521   0.71595   0.54466   0.00000  Uiso   1.00
C1098  C     0.95734   0.68210   0.56457   0.00000  Uiso   1.00
C1099  C     0.79850   0.95366   0.38213   0.00000  Uiso   1.00
C1100  C     0.91323   0.83361   0.49949   0.00000  Uiso   1.00
C1101  C     0.76762   0.92888   0.34674   0.00000  Uiso   1.00
C1102  C     0.74596   0.70706   0.42404   0.00000  Uiso   1.00
C1103  C     0.72496   0.74338   0.39191   0.00000  Uiso   1.00
C1104  C     0.86492   0.96031   0.62031   0.00000  Uiso   1.00
C1105  C     0.90073   0.97413   0.65673   0.00000  Uiso   1.00
C1106  C     0.83331   0.83326   0.40632   0.00000  Uiso   1.00
C1107  C     0.83357   0.83336   0.59370   0.00000  Uiso   1.00
C1108  C     0.83358   0.83315   0.35516   0.00000  Uiso   1.00
C1109  C     0.83364   0.83329   0.64488   0.00000  Uiso   1.00
C1110  C     0.68718   0.79492   0.49139   0.00000  Uiso   1.00
C1111  C     0.97918   0.87377   0.51318   0.00000  Uiso   1.00
C1112  C     0.97819   0.79599   0.48602   0.00000  Uiso   1.00
H1113  H     0.70244   0.76384   0.48536   0.00000  Uiso   1.00
H1114  H     0.82945   0.93800   0.38045   0.00000  Uiso   1.00
H1115  H     0.80112   0.98853   0.36846   0.00000  Uiso   1.00
H1116  H     0.73679   0.94547   0.34635   0.00000  Uiso   1.00
H1117  H     0.77855   0.92895   0.64142   0.00000  Uiso   1.00
H1118  H     0.76397   0.89372   0.35914   0.00000  Uiso   1.00
H1119  H     0.73331   0.70586   0.46180   0.00000  Uiso   1.00
H1120  H     0.73774   0.67508   0.40518   0.00000  Uiso   1.00
H1121  H     0.73429   0.74011   0.35266   0.00000  Uiso   1.00
H1122  H     0.69061   0.73993   0.39241   0.00000  Uiso   1.00
H1123  H     0.73442   0.77712   0.40590   0.00000  Uiso   1.00
H1124  H     0.96328   0.90413   0.52329   0.00000  Uiso   1.00
H1125  H     0.85262   0.92833   0.63407   0.00000  Uiso   1.00
H1126  H     0.83947   0.98552   0.62198   0.00000  Uiso   1.00
H1127  H     0.90738   0.67701   0.65296   0.00000  Uiso   1.00
H1128  H     0.89236   0.96850   0.36256   0.00000  Uiso   1.00
H1129  H     0.92897   0.95419   0.64993   0.00000  Uiso   1.00
H1130  H     0.96195   0.76650   0.47207   0.00000  Uiso   1.00
H1131  H     0.70547   0.90420   0.52413   0.00000  Uiso   1.00
H1132  H     0.93821   0.74917   0.55551   0.00000  Uiso   1.00
H1133  H     0.92297   0.71353   0.50296   0.00000  Uiso   1.00
H1134  H     0.94776   0.98075   0.55502   0.00000  Uiso   1.00
H1135  H     0.98721   0.68846   0.54675   0.00000  Uiso   1.00
H1136  H     0.96328   0.68605   0.60550   0.00000  Uiso   1.00
N1137  N     0.83333   0.95240   0.50000   0.00000  Uiso   1.00
N1138  N     0.83333   0.71427   0.50000   0.00000  Uiso   1.00
O1139  O     0.77226   0.87154   0.50000   0.00000  Uiso   1.00
O1140  O     0.78441   0.95122   0.43120   0.00000  Uiso   1.00
O1141  O     0.78930   0.71498   0.42664   0.00000  Uiso   1.00
O1142  O     0.87944   0.95249   0.57188   0.00000  Uiso   1.00
O1143  O     0.89441   0.79513   0.50000   0.00000  Uiso   1.00
O1144  O     0.89441   0.87154   0.50000   0.00000  Uiso   1.00
O1145  O     0.77226   0.79513   0.50000   0.00000  Uiso   1.00
O1146  O     0.83334   0.87155   0.42845   0.00000  Uiso   1.00
O1147  O     0.83333   0.79512   0.57155   0.00000  Uiso   1.00
O1148  O     0.83333   0.87155   0.57155   0.00000  Uiso   1.00
O1149  O     0.83334   0.79512   0.42845   0.00000  Uiso   1.00
O1150  O     0.88614   0.71222   0.56667   0.00000  Uiso   1.00
Zn1151 Zn    0.83333   0.88437   0.50000   0.00000  Uiso   1.00
Zn1152 Zn    0.83333   0.78229   0.50000   0.00000  Uiso   1.00
C1153  C     0.08678   0.16676   0.83475   0.00000  Uiso   1.00
C1154  C     0.02199   0.20701   0.84752   0.00000  Uiso   1.00
C1155  C     0.29074   0.16796   0.83248   0.00000  Uiso   1.00
C1156  C     0.04257   0.16728   0.83640   0.00000  Uiso   1.00
C1157  C     0.19147   0.02365   0.86731   0.00000  Uiso   1.00
C1158  C     0.14361   0.30893   0.79744   0.00000  Uiso   1.00
C1159  C     0.14269   0.02410   0.79819   0.00000  Uiso   1.00
C1160  C     0.18927   0.30922   0.86927   0.00000  Uiso   1.00
C1161  C     0.25854   0.04928   0.87799   0.00000  Uiso   1.00
C1162  C     0.29067   0.01544   0.89790   0.00000  Uiso   1.00
C1163  C     0.13183   0.28699   0.71546   0.00000  Uiso   1.00
C1164  C     0.24657   0.16695   0.83283   0.00000  Uiso   1.00
C1165  C     0.10096   0.26222   0.68007   0.00000  Uiso   1.00
C1166  C     0.07929   0.04039   0.75737   0.00000  Uiso   1.00
C1167  C     0.05829   0.07671   0.72524   0.00000  Uiso   1.00
C1168  C     0.19825   0.29364   0.95364   0.00000  Uiso   1.00
C1169  C     0.23407   0.30747   0.99006   0.00000  Uiso   1.00
C1170  C     0.16665   0.16660   0.73965   0.00000  Uiso   1.00
C1171  C     0.16691   0.16669   0.92703   0.00000  Uiso   1.00
C1172  C     0.16692   0.16648   0.68850   0.00000  Uiso   1.00
C1173  C     0.16697   0.16662   0.97821   0.00000  Uiso   1.00
C1174  C     0.02051   0.12825   0.82473   0.00000  Uiso   1.00
C1175  C     0.31251   0.20710   0.84652   0.00000  Uiso   1.00
C1176  C     0.31152   0.12932   0.81935   0.00000  Uiso   1.00
H1177  H     0.03577   0.09718   0.81869   0.00000  Uiso   1.00
H1178  H     0.16278   0.27133   0.71378   0.00000  Uiso   1.00
H1179  H     0.13445   0.32187   0.70180   0.00000  Uiso   1.00
H1180  H     0.07012   0.27880   0.67969   0.00000  Uiso   1.00
H1181  H     0.11189   0.26228   0.97476   0.00000  Uiso   1.00
H1182  H     0.09731   0.22705   0.69247   0.00000  Uiso   1.00
H1183  H     0.06664   0.03920   0.79514   0.00000  Uiso   1.00
H1184  H     0.07108   0.00841   0.73851   0.00000  Uiso   1.00
H1185  H     0.06762   0.07344   0.68600   0.00000  Uiso   1.00
H1186  H     0.02395   0.07326   0.72574   0.00000  Uiso   1.00
H1187  H     0.06775   0.11045   0.73923   0.00000  Uiso   1.00
H1188  H     0.29661   0.23747   0.85662   0.00000  Uiso   1.00
H1189  H     0.18595   0.26167   0.96741   0.00000  Uiso   1.00
H1190  H     0.17281   0.31886   0.95531   0.00000  Uiso   1.00
H1191  H     0.24072   0.01034   0.98629   0.00000  Uiso   1.00
H1192  H     0.22569   0.30183   0.69590   0.00000  Uiso   1.00
H1193  H     0.26231   0.28753   0.98326   0.00000  Uiso   1.00
H1194  H     0.29528   0.09984   0.80540   0.00000  Uiso   1.00
H1195  H     0.03880   0.23753   0.85746   0.00000  Uiso   1.00
H1196  H     0.27154   0.08250   0.88884   0.00000  Uiso   1.00
H1197  H     0.25630   0.04686   0.83630   0.00000  Uiso   1.00
H1198  H     0.28110   0.31408   0.88836   0.00000  Uiso   1.00
H1199  H     0.32054   0.02179   0.88008   0.00000  Uiso   1.00
H1200  H     0.29661   0.01938   0.93883   0.00000  Uiso   1.00
N1201  N     0.16667   0.28573   0.83333   0.00000  Uiso   1.00
N1202  N     0.16667   0.04760   0.83333   0.00000  Uiso   1.00
O1203  O     0.10559   0.20487   0.83333   0.00000  Uiso   1.00
O1204  O     0.11774   0.28456   0.76453   0.00000  Uiso   1.00
O1205  O     0.12264   0.04831   0.75997   0.00000  Uiso   1.00
O1206  O     0.21278   0.28582   0.90521   0.00000  Uiso   1.00
O1207  O     0.22774   0.12846   0.83334   0.00000  Uiso   1.00
O1208  O     0.22774   0.20487   0.83334   0.00000  Uiso   1.00
O1209  O     0.10559   0.12846   0.83333   0.00000  Uiso   1.00
O1210  O     0.16667   0.20488   0.76178   0.00000  Uiso   1.00
O1211  O     0.16666   0.12845   0.90489   0.00000  Uiso   1.00
O1212  O     0.16666   0.20488   0.90489   0.00000  Uiso   1.00
O1213  O     0.16667   0.12845   0.76178   0.00000  Uiso   1.00
O1214  O     0.21947   0.04555   0.90000   0.00000  Uiso   1.00
Zn1215 Zn    0.16667   0.21771   0.83333   0.00000  Uiso   1.00
Zn1216 Zn    0.16667   0.11563   0.83333   0.00000  Uiso   1.00
C1217  C     0.42011   0.16676   0.83475   0.00000  Uiso   1.00
C1218  C     0.35533   0.20701   0.84752   0.00000  Uiso   1.00
C1219  C     0.62408   0.16796   0.83248   0.00000  Uiso   1.00
C1220  C     0.37591   0.16728   0.83640   0.00000  Uiso   1.00
C1221  C     0.52480   0.02365   0.86731   0.00000  Uiso   1.00
C1222  C     0.47694   0.30893   0.79744   0.00000  Uiso   1.00
C1223  C     0.47603   0.02410   0.79819   0.00000  Uiso   1.00
C1224  C     0.52260   0.30922   0.86927   0.00000  Uiso   1.00
C1225  C     0.59187   0.04928   0.87799   0.00000  Uiso   1.00
C1226  C     0.62401   0.01544   0.89790   0.00000  Uiso   1.00
C1227  C     0.46517   0.28699   0.71546   0.00000  Uiso   1.00
C1228  C     0.57990   0.16695   0.83283   0.00000  Uiso   1.00
C1229  C     0.43429   0.26222   0.68007   0.00000  Uiso   1.00
C1230  C     0.41262   0.04039   0.75737   0.00000  Uiso   1.00
C1231  C     0.39162   0.07671   0.72524   0.00000  Uiso   1.00
C1232  C     0.53159   0.29364   0.95364   0.00000  Uiso   1.00
C1233  C     0.56740   0.30747   0.99006   0.00000  Uiso   1.00
C1234  C     0.49998   0.16660   0.73965   0.00000  Uiso   1.00
C1235  C     0.50024   0.16669   0.92703   0.00000  Uiso   1.00
C1236  C     0.50025   0.16648   0.68850   0.00000  Uiso   1.00
C1237  C     0.50031   0.16662   0.97821   0.00000  Uiso   1.00
C1238  C     0.35384   0.12825   0.82473   0.00000  Uiso   1.00
C1239  C     0.64584   0.20710   0.84652   0.00000  Uiso   1.00
C1240  C     0.64486   0.12932   0.81935   0.00000  Uiso   1.00
H1241  H     0.36911   0.09718   0.81869   0.00000  Uiso   1.00
H1242  H     0.49611   0.27133   0.71378   0.00000  Uiso   1.00
H1243  H     0.46778   0.32187   0.70180   0.00000  Uiso   1.00
H1244  H     0.40345   0.27880   0.67969   0.00000  Uiso   1.00
H1245  H     0.44522   0.26228   0.97476   0.00000  Uiso   1.00
H1246  H     0.43064   0.22705   0.69247   0.00000  Uiso   1.00
H1247  H     0.39997   0.03920   0.79514   0.00000  Uiso   1.00
H1248  H     0.40441   0.00841   0.73851   0.00000  Uiso   1.00
H1249  H     0.40095   0.07344   0.68600   0.00000  Uiso   1.00
H1250  H     0.35728   0.07326   0.72574   0.00000  Uiso   1.00
H1251  H     0.40108   0.11045   0.73923   0.00000  Uiso   1.00
H1252  H     0.62994   0.23747   0.85662   0.00000  Uiso   1.00
H1253  H     0.51929   0.26167   0.96741   0.00000  Uiso   1.00
H1254  H     0.50614   0.31886   0.95531   0.00000  Uiso   1.00
H1255  H     0.57405   0.01034   0.98629   0.00000  Uiso   1.00
H1256  H     0.55903   0.30183   0.69590   0.00000  Uiso   1.00
H1257  H     0.59564   0.28753   0.98326   0.00000  Uiso   1.00
H1258  H     0.62862   0.09984   0.80540   0.00000  Uiso   1.00
H1259  H     0.37214   0.23753   0.85746   0.00000  Uiso   1.00
H1260  H     0.60488   0.08250   0.88884   0.00000  Uiso   1.00
H1261  H     0.58964   0.04686   0.83630   0.00000  Uiso   1.00
H1262  H     0.61443   0.31408   0.88836   0.00000  Uiso   1.00
H1263  H     0.65387   0.02179   0.88008   0.00000  Uiso   1.00
H1264  H     0.62994   0.01938   0.93883   0.00000  Uiso   1.00
N1265  N     0.50000   0.28573   0.83333   0.00000  Uiso   1.00
N1266  N     0.50000   0.04760   0.83333   0.00000  Uiso   1.00
O1267  O     0.43892   0.20487   0.83333   0.00000  Uiso   1.00
O1268  O     0.45108   0.28456   0.76453   0.00000  Uiso   1.00
O1269  O     0.45597   0.04831   0.75997   0.00000  Uiso   1.00
O1270  O     0.54611   0.28582   0.90521   0.00000  Uiso   1.00
O1271  O     0.56108   0.12846   0.83334   0.00000  Uiso   1.00
O1272  O     0.56108   0.20487   0.83334   0.00000  Uiso   1.00
O1273  O     0.43892   0.12846   0.83333   0.00000  Uiso   1.00
O1274  O     0.50000   0.20488   0.76178   0.00000  Uiso   1.00
O1275  O     0.50000   0.12845   0.90489   0.00000  Uiso   1.00
O1276  O     0.50000   0.20488   0.90489   0.00000  Uiso   1.00
O1277  O     0.50000   0.12845   0.76178   0.00000  Uiso   1.00
O1278  O     0.55281   0.04555   0.90000   0.00000  Uiso   1.00
Zn1279 Zn    0.50000   0.21771   0.83333   0.00000  Uiso   1.00
Zn1280 Zn    0.50000   0.11563   0.83333   0.00000  Uiso   1.00
C1281  C     0.75345   0.16676   0.83475   0.00000  Uiso   1.00
C1282  C     0.68866   0.20701   0.84752   0.00000  Uiso   1.00
C1283  C     0.95741   0.16796   0.83248   0.00000  Uiso   1.00
C1284  C     0.70924   0.16728   0.83640   0.00000  Uiso   1.00
C1285  C     0.85813   0.02365   0.86731   0.00000  Uiso   1.00
C1286  C     0.81027   0.30893   0.79744   0.00000  Uiso   1.00
C1287  C     0.80936   0.02410   0.79819   0.00000  Uiso   1.00
C1288  C     0.85593   0.30922   0.86927   0.00000  Uiso   1.00
C1289  C     0.92521   0.04928   0.87799   0.00000  Uiso   1.00
C1290  C     0.95734   0.01544   0.89790   0.00000  Uiso   1.00
C1291  C     0.79850   0.28699   0.71546   0.00000  Uiso   1.00
C1292  C     0.91323   0.16695   0.83283   0.00000  Uiso   1.00
C1293  C     0.76762   0.26222   0.68007   0.00000  Uiso   1.00
C1294  C     0.74596   0.04039   0.75737   0.00000  Uiso   1.00
C1295  C     0.72496   0.07671   0.72524   0.00000  Uiso   1.00
C1296  C     0.86492   0.29364   0.95364   0.00000  Uiso   1.00
C1297  C     0.90073   0.30747   0.99006   0.00000  Uiso   1.00
C1298  C     0.83331   0.16660   0.73965   0.00000  Uiso   1.00
C1299  C     0.83357   0.16669   0.92703   0.00000  Uiso   1.00
C1300  C     0.83358   0.16648   0.68850   0.00000  Uiso   1.00
C1301  C     0.83364   0.16662   0.97821   0.00000  Uiso   1.00
C1302  C     0.68718   0.12825   0.82473   0.00000  Uiso   1.00
C1303  C     0.97918   0.20710   0.84652   0.00000  Uiso   1.00
C1304  C     0.97819   0.12932   0.81935   0.00000  Uiso   1.00
H1305  H     0.70244   0.09718   0.81869   0.00000  Uiso   1.00
H1306  H     0.82945   0.27133   0.71378   0.00000  Uiso   1.00
H1307  H     0.80112   0.32187   0.70180   0.00000  Uiso   1.00
H1308  H     0.73679   0.27880   0.67969   0.00000  Uiso   1.00
H1309  H     0.77855   0.26228   0.97476   0.00000  Uiso   1.00
H1310  H     0.76397   0.22705   0.69247   0.00000  Uiso   1.00
H1311  H     0.73331   0.03920   0.79514   0.00000  Uiso   1.00
H1312  H     0.73774   0.00841   0.73851   0.00000  Uiso   1.00
H1313  H     0.73429   0.07344   0.68600   0.00000  Uiso   1.00
H1314  H     0.69061   0.07326   0.72574   0.00000  Uiso   1.00
H1315  H     0.73442   0.11045   0.73923   0.00000  Uiso   1.00
H1316  H     0.96328   0.23747   0.85662   0.00000  Uiso   1.00
H1317  H     0.85262   0.26167   0.96741   0.00000  Uiso   1.00
H1318  H     0.83947   0.31886   0.95531   0.00000  Uiso   1.00
H1319  H     0.90738   0.01034   0.98629   0.00000  Uiso   1.00
H1320  H     0.89236   0.30183   0.69590   0.00000  Uiso   1.00
H1321  H     0.92897   0.28753   0.98326   0.00000  Uiso   1.00
H1322  H     0.96195   0.09984   0.80540   0.00000  Uiso   1.00
H1323  H     0.70547   0.23753   0.85746   0.00000  Uiso   1.00
H1324  H     0.93821   0.08250   0.88884   0.00000  Uiso   1.00
H1325  H     0.92297   0.04686   0.83630   0.00000  Uiso   1.00
H1326  H     0.94776   0.31408   0.88836   0.00000  Uiso   1.00
H1327  H     0.98721   0.02179   0.88008   0.00000  Uiso   1.00
H1328  H     0.96328   0.01938   0.93883   0.00000  Uiso   1.00
N1329  N     0.83333   0.28573   0.83333   0.00000  Uiso   1.00
N1330  N     0.83333   0.04760   0.83333   0.00000  Uiso   1.00
O1331  O     0.77226   0.20487   0.83333   0.00000  Uiso   1.00
O1332  O     0.78441   0.28456   0.76453   0.00000  Uiso   1.00
O1333  O     0.78930   0.04831   0.75997   0.00000  Uiso   1.00
O1334  O     0.87944   0.28582   0.90521   0.00000  Uiso   1.00
O1335  O     0.89441   0.12846   0.83334   0.00000  Uiso   1.00
O1336  O     0.89441   0.20487   0.83334   0.00000  Uiso   1.00
O1337  O     0.77226   0.12846   0.83333   0.00000  Uiso   1.00
O1338  O     0.83334   0.20488   0.76178   0.00000  Uiso   1.00
O1339  O     0.83333   0.12845   0.90489   0.00000  Uiso   1.00
O1340  O     0.83333   0.20488   0.90489   0.00000  Uiso   1.00
O1341  O     0.83334   0.12845   0.76178   0.00000  Uiso   1.00
O1342  O     0.88614   0.04555   0.90000   0.00000  Uiso   1.00
Zn1343 Zn    0.83333   0.21771   0.83333   0.00000  Uiso   1.00
Zn1344 Zn    0.83333   0.11563   0.83333   0.00000  Uiso   1.00
C1345  C     0.08678   0.50010   0.83475   0.00000  Uiso   1.00
C1346  C     0.02199   0.54034   0.84752   0.00000  Uiso   1.00
C1347  C     0.29074   0.50130   0.83248   0.00000  Uiso   1.00
C1348  C     0.04257   0.50062   0.83640   0.00000  Uiso   1.00
C1349  C     0.19147   0.35698   0.86731   0.00000  Uiso   1.00
C1350  C     0.14361   0.64226   0.79744   0.00000  Uiso   1.00
C1351  C     0.14269   0.35743   0.79819   0.00000  Uiso   1.00
C1352  C     0.18927   0.64255   0.86927   0.00000  Uiso   1.00
C1353  C     0.25854   0.38261   0.87799   0.00000  Uiso   1.00
C1354  C     0.29067   0.34877   0.89790   0.00000  Uiso   1.00
C1355  C     0.13183   0.62033   0.71546   0.00000  Uiso   1.00
C1356  C     0.24657   0.50028   0.83283   0.00000  Uiso   1.00
C1357  C     0.10096   0.59555   0.68007   0.00000  Uiso   1.00
C1358  C     0.07929   0.37372   0.75737   0.00000  Uiso   1.00
C1359  C     0.05829   0.41004   0.72524   0.00000  Uiso   1.00
C1360  C     0.19825   0.62697   0.95364   0.00000  Uiso   1.00
C1361  C     0.23407   0.64080   0.99006   0.00000  Uiso   1.00
C1362  C     0.16665   0.49993   0.73965   0.00000  Uiso   1.00
C1363  C     0.16691   0.50003   0.92703   0.00000  Uiso   1.00
C1364  C     0.16692   0.49982   0.68850   0.00000  Uiso   1.00
C1365  C     0.16697   0.49995   0.97821   0.00000  Uiso   1.00
C1366  C     0.02051   0.46159   0.82473   0.00000  Uiso   1.00
C1367  C     0.31251   0.54044   0.84652   0.00000  Uiso   1.00
C1368  C     0.31152   0.46266   0.81935   0.00000  Uiso   1.00
H1369  H     0.03577   0.43051   0.81869   0.00000  Uiso   1.00
H1370  H     0.16278   0.60467   0.71378   0.00000  Uiso   1.00
H1371  H     0.13445   0.65520   0.70180   0.00000  Uiso   1.00
H1372  H     0.07012   0.61214   0.67969   0.00000  Uiso   1.00
H1373  H     0.11189   0.59562   0.97476   0.00000  Uiso   1.00
H1374  H     0.09731   0.56038   0.69247   0.00000  Uiso   1.00
H1375  H     0.06664   0.37253   0.79514   0.00000  Uiso   1.00
H1376  H     0.07108   0.34175   0.73851   0.00000  Uiso   1.00
H1377  H     0.06762   0.40678   0.68600   0.00000  Uiso   1.00
H1378  H     0.02395   0.40660   0.72574   0.00000  Uiso   1.00
H1379  H     0.06775   0.44378   0.73923   0.00000  Uiso   1.00
H1380  H     0.29661   0.57080   0.85662   0.00000  Uiso   1.00
H1381  H     0.18595   0.59500   0.96741   0.00000  Uiso   1.00
H1382  H     0.17281   0.65219   0.95531   0.00000  Uiso   1.00
H1383  H     0.24072   0.34368   0.98629   0.00000  Uiso   1.00
H1384  H     0.22569   0.63517   0.69590   0.00000  Uiso   1.00
H1385  H     0.26231   0.62086   0.98326   0.00000  Uiso   1.00
H1386  H     0.29528   0.43317   0.80540   0.00000  Uiso   1.00
H1387  H     0.03880   0.57087   0.85746   0.00000  Uiso   1.00
H1388  H     0.27154   0.41583   0.88884   0.00000  Uiso   1.00
H1389  H     0.25630   0.38019   0.83630   0.00000  Uiso   1.00
H1390  H     0.28110   0.64742   0.88836   0.00000  Uiso   1.00
H1391  H     0.32054   0.35513   0.88008   0.00000  Uiso   1.00
H1392  H     0.29661   0.35272   0.93883   0.00000  Uiso   1.00
N1393  N     0.16667   0.61907   0.83333   0.00000  Uiso   1.00
N1394  N     0.16667   0.38093   0.83333   0.00000  Uiso   1.00
O1395  O     0.10559   0.53821   0.83333   0.00000  Uiso   1.00
O1396  O     0.11774   0.61789   0.76453   0.00000  Uiso   1.00
O1397  O     0.12264   0.38165   0.75997   0.00000  Uiso   1.00
O1398  O     0.21278   0.61915   0.90521   0.00000  Uiso   1.00
O1399  O     0.22774   0.46179   0.83334   0.00000  Uiso   1.00
O1400  O     0.22774   0.53821   0.83334   0.00000  Uiso   1.00
O1401  O     0.10559   0.46179   0.83333   0.00000  Uiso   1.00
O1402  O     0.16667   0.53821   0.76178   0.00000  Uiso   1.00
O1403  O     0.16666   0.46179   0.90489   0.00000  Uiso   1.00
O1404  O     0.16666   0.53821   0.90489   0.00000  Uiso   1.00
O1405  O     0.16667   0.46179   0.76178   0.00000  Uiso   1.00
O1406  O     0.21947   0.37888   0.90000   0.00000  Uiso   1.00
Zn1407 Zn    0.16667   0.55104   0.83333   0.00000  Uiso   1.00
Zn1408 Zn    0.16667   0.44896   0.83333   0.00000  Uiso   1.00
C1409  C     0.42011   0.50010   0.83475   0.00000  Uiso   1.00
C1410  C     0.35533   0.54034   0.84752   0.00000  Uiso   1.00
C1411  C     0.62408   0.50130   0.83248   0.00000  Uiso   1.00
C1412  C     0.37591   0.50062   0.83640   0.00000  Uiso   1.00
C1413  C     0.52480   0.35698   0.86731   0.00000  Uiso   1.00
C1414  C     0.47694   0.64226   0.79744   0.00000  Uiso   1.00
C1415  C     0.47603   0.35743   0.79819   0.00000  Uiso   1.00
C1416  C     0.52260   0.64255   0.86927   0.00000  Uiso   1.00
C1417  C     0.59187   0.38261   0.87799   0.00000  Uiso   1.00
C1418  C     0.62401   0.34877   0.89790   0.00000  Uiso   1.00
C1419  C     0.46517   0.62033   0.71546   0.00000  Uiso   1.00
C1420  C     0.57990   0.50028   0.83283   0.00000  Uiso   1.00
C1421  C     0.43429   0.59555   0.68007   0.00000  Uiso   1.00
C1422  C     0.41262   0.37372   0.75737   0.00000  Uiso   1.00
C1423  C     0.39162   0.41004   0.72524   0.00000  Uiso   1.00
C1424  C     0.53159   0.62697   0.95364   0.00000  Uiso   1.00
C1425  C     0.56740   0.64080   0.99006   0.00000  Uiso   1.00
C1426  C     0.49998   0.49993   0.73965   0.00000  Uiso   1.00
C1427  C     0.50024   0.50003   0.92703   0.00000  Uiso   1.00
C1428  C     0.50025   0.49982   0.68850   0.00000  Uiso   1.00
C1429  C     0.50031   0.49995   0.97821   0.00000  Uiso   1.00
C1430  C     0.35384   0.46159   0.82473   0.00000  Uiso   1.00
C1431  C     0.64584   0.54044   0.84652   0.00000  Uiso   1.00
C1432  C     0.64486   0.46266   0.81935   0.00000  Uiso   1.00
H1433  H     0.36911   0.43051   0.81869   0.00000  Uiso   1.00
H1434  H     0.49611   0.60467   0.71378   0.00000  Uiso   1.00
H1435  H     0.46778   0.65520   0.70180   0.00000  Uiso   1.00
H1436  H     0.40345   0.61214   0.67969   0.00000  Uiso   1.00
H1437  H     0.44522   0.59562   0.97476   0.00000  Uiso   1.00
H1438  H     0.43064   0.56038   0.69247   0.00000  Uiso   1.00
H1439  H     0.39997   0.37253   0.79514   0.00000  Uiso   1.00
H1440  H     0.40441   0.34175   0.73851   0.00000  Uiso   1.00
H1441  H     0.40095   0.40678   0.68600   0.00000  Uiso   1.00
H1442  H     0.35728   0.40660   0.72574   0.00000  Uiso   1.00
H1443  H     0.40108   0.44378   0.73923   0.00000  Uiso   1.00
H1444  H     0.62994   0.57080   0.85662   0.00000  Uiso   1.00
H1445  H     0.51929   0.59500   0.96741   0.00000  Uiso   1.00
H1446  H     0.50614   0.65219   0.95531   0.00000  Uiso   1.00
H1447  H     0.57405   0.34368   0.98629   0.00000  Uiso   1.00
H1448  H     0.55903   0.63517   0.69590   0.00000  Uiso   1.00
H1449  H     0.59564   0.62086   0.98326   0.00000  Uiso   1.00
H1450  H     0.62862   0.43317   0.80540   0.00000  Uiso   1.00
H1451  H     0.37214   0.57087   0.85746   0.00000  Uiso   1.00
H1452  H     0.60488   0.41583   0.88884   0.00000  Uiso   1.00
H1453  H     0.58964   0.38019   0.83630   0.00000  Uiso   1.00
H1454  H     0.61443   0.64742   0.88836   0.00000  Uiso   1.00
H1455  H     0.65387   0.35513   0.88008   0.00000  Uiso   1.00
H1456  H     0.62994   0.35272   0.93883   0.00000  Uiso   1.00
N1457  N     0.50000   0.61907   0.83333   0.00000  Uiso   1.00
N1458  N     0.50000   0.38093   0.83333   0.00000  Uiso   1.00
O1459  O     0.43892   0.53821   0.83333   0.00000  Uiso   1.00
O1460  O     0.45108   0.61789   0.76453   0.00000  Uiso   1.00
O1461  O     0.45597   0.38165   0.75997   0.00000  Uiso   1.00
O1462  O     0.54611   0.61915   0.90521   0.00000  Uiso   1.00
O1463  O     0.56108   0.46179   0.83334   0.00000  Uiso   1.00
O1464  O     0.56108   0.53821   0.83334   0.00000  Uiso   1.00
O1465  O     0.43892   0.46179   0.83333   0.00000  Uiso   1.00
O1466  O     0.50000   0.53821   0.76178   0.00000  Uiso   1.00
O1467  O     0.50000   0.46179   0.90489   0.00000  Uiso   1.00
O1468  O     0.50000   0.53821   0.90489   0.00000  Uiso   1.00
O1469  O     0.50000   0.46179   0.76178   0.00000  Uiso   1.00
O1470  O     0.55281   0.37888   0.90000   0.00000  Uiso   1.00
Zn1471 Zn    0.50000   0.55104   0.83333   0.00000  Uiso   1.00
Zn1472 Zn    0.50000   0.44896   0.83333   0.00000  Uiso   1.00
C1473  C     0.75345   0.50010   0.83475   0.00000  Uiso   1.00
C1474  C     0.68866   0.54034   0.84752   0.00000  Uiso   1.00
C1475  C     0.95741   0.50130   0.83248   0.00000  Uiso   1.00
C1476  C     0.70924   0.50062   0.83640   0.00000  Uiso   1.00
C1477  C     0.85813   0.35698   0.86731   0.00000  Uiso   1.00
C1478  C     0.81027   0.64226   0.79744   0.00000  Uiso   1.00
C1479  C     0.80936   0.35743   0.79819   0.00000  Uiso   1.00
C1480  C     0.85593   0.64255   0.86927   0.00000  Uiso   1.00
C1481  C     0.92521   0.38261   0.87799   0.00000  Uiso   1.00
C1482  C     0.95734   0.34877   0.89790   0.00000  Uiso   1.00
C1483  C     0.79850   0.62033   0.71546   0.00000  Uiso   1.00
C1484  C     0.91323   0.50028   0.83283   0.00000  Uiso   1.00
C1485  C     0.76762   0.59555   0.68007   0.00000  Uiso   1.00
C1486  C     0.74596   0.37372   0.75737   0.00000  Uiso   1.00
C1487  C     0.72496   0.41004   0.72524   0.00000  Uiso   1.00
C1488  C     0.86492   0.62697   0.95364   0.00000  Uiso   1.00
C1489  C     0.90073   0.64080   0.99006   0.00000  Uiso   1.00
C1490  C     0.83331   0.49993   0.73965   0.00000  Uiso   1.00
C1491  C     0.83357   0.50003   0.92703   0.00000  Uiso   1.00
C1492  C     0.83358   0.49982   0.68850   0.00000  Uiso   1.00
C1493  C     0.83364   0.49995   0.97821   0.00000  Uiso   1.00
C1494  C     0.68718   0.46159   0.82473   0.00000  Uiso   1.00
C1495  C     0.97918   0.54044   0.84652   0.00000  Uiso   1.00
C1496  C     0.97819   0.46266   0.81935   0.00000  Uiso   1.00
H1497  H     0.70244   0.43051   0.81869   0.00000  Uiso   1.00
H1498  H     0.82945   0.60467   0.71378   0.00000  Uiso   1.00
H1499  H     0.80112   0.65520   0.70180   0.00000  Uiso   1.00
H1500  H     0.73679   0.61214   0.67969   0.00000  Uiso   1.00
H1501  H     0.77855   0.59562   0.97476   0.00000  Uiso   1.00
H1502  H     0.76397   0.56038   0.69247   0.00000  Uiso   1.00
H1503  H     0.73331   0.37253   0.79514   0.00000  Uiso   1.00
H1504  H     0.73774   0.34175   0.73851   0.00000  Uiso   1.00
H1505  H     0.73429   0.40678   0.68600   0.00000  Uiso   1.00
H1506  H     0.69061   0.40660   0.72574   0.00000  Uiso   1.00
H1507  H     0.73442   0.44378   0.73923   0.00000  Uiso   1.00
H1508  H     0.96328   0.57080   0.85662   0.00000  Uiso   1.00
H1509  H     0.85262   0.59500   0.96741   0.00000  Uiso   1.00
H1510  H     0.83947   0.65219   0.95531   0.00000  Uiso   1.00
H1511  H     0.90738   0.34368   0.98629   0.00000  Uiso   1.00
H1512  H     0.89236   0.63517   0.69590   0.00000  Uiso   1.00
H1513  H     0.92897   0.62086   0.98326   0.00000  Uiso   1.00
H1514  H     0.96195   0.43317   0.80540   0.00000  Uiso   1.00
H1515  H     0.70547   0.57087   0.85746   0.00000  Uiso   1.00
H1516  H     0.93821   0.41583   0.88884   0.00000  Uiso   1.00
H1517  H     0.92297   0.38019   0.83630   0.00000  Uiso   1.00
H1518  H     0.94776   0.64742   0.88836   0.00000  Uiso   1.00
H1519  H     0.98721   0.35513   0.88008   0.00000  Uiso   1.00
H1520  H     0.96328   0.35272   0.93883   0.00000  Uiso   1.00
N1521  N     0.83333   0.61907   0.83333   0.00000  Uiso   1.00
N1522  N     0.83333   0.38093   0.83333   0.00000  Uiso   1.00
O1523  O     0.77226   0.53821   0.83333   0.00000  Uiso   1.00
O1524  O     0.78441   0.61789   0.76453   0.00000  Uiso   1.00
O1525  O     0.78930   0.38165   0.75997   0.00000  Uiso   1.00
O1526  O     0.87944   0.61915   0.90521   0.00000  Uiso   1.00
O1527  O     0.89441   0.46179   0.83334   0.00000  Uiso   1.00
O1528  O     0.89441   0.53821   0.83334   0.00000  Uiso   1.00
O1529  O     0.77226   0.46179   0.83333   0.00000  Uiso   1.00
O1530  O     0.83334   0.53821   0.76178   0.00000  Uiso   1.00
O1531  O     0.83333   0.46179   0.90489   0.00000  Uiso   1.00
O1532  O     0.83333   0.53821   0.90489   0.00000  Uiso   1.00
O1533  O     0.83334   0.46179   0.76178   0.00000  Uiso   1.00
O1534  O     0.88614   0.37888   0.90000   0.00000  Uiso   1.00
Zn1535 Zn    0.83333   0.55104   0.83333   0.00000  Uiso   1.00
Zn1536 Zn    0.83333   0.44896   0.83333   0.00000  Uiso   1.00
C1537  C     0.08678   0.83343   0.83475   0.00000  Uiso   1.00
C1538  C     0.02199   0.87368   0.84752   0.00000  Uiso   1.00
C1539  C     0.29074   0.83463   0.83248   0.00000  Uiso   1.00
C1540  C     0.04257   0.83395   0.83640   0.00000  Uiso   1.00
C1541  C     0.19147   0.69032   0.86731   0.00000  Uiso   1.00
C1542  C     0.14361   0.97559   0.79744   0.00000  Uiso   1.00
C1543  C     0.14269   0.69076   0.79819   0.00000  Uiso   1.00
C1544  C     0.18927   0.97588   0.86927   0.00000  Uiso   1.00
C1545  C     0.25854   0.71595   0.87799   0.00000  Uiso   1.00
C1546  C     0.29067   0.68210   0.89790   0.00000  Uiso   1.00
C1547  C     0.13183   0.95366   0.71546   0.00000  Uiso   1.00
C1548  C     0.24657   0.83361   0.83283   0.00000  Uiso   1.00
C1549  C     0.10096   0.92888   0.68007   0.00000  Uiso   1.00
C1550  C     0.07929   0.70706   0.75737   0.00000  Uiso   1.00
C1551  C     0.05829   0.74338   0.72524   0.00000  Uiso   1.00
C1552  C     0.19825   0.96031   0.95364   0.00000  Uiso   1.00
C1553  C     0.23407   0.97413   0.99006   0.00000  Uiso   1.00
C1554  C     0.16665   0.83326   0.73965   0.00000  Uiso   1.00
C1555  C     0.16691   0.83336   0.92703   0.00000  Uiso   1.00
C1556  C     0.16692   0.83315   0.68850   0.00000  Uiso   1.00
C1557  C     0.16697   0.83329   0.97821   0.00000  Uiso   1.00
C1558  C     0.02051   0.79492   0.82473   0.00000  Uiso   1.00
C1559  C     0.31251   0.87377   0.84652   0.00000  Uiso   1.00
C1560  C     0.31152   0.79599   0.81935   0.00000  Uiso   1.00
H1561  H     0.03577   0.76384   0.81869   0.00000  Uiso   1.00
H1562  H     0.16278   0.93800   0.71378   0.00000  Uiso   1.00
H1563  H     0.13445   0.98853   0.70180   0.00000  Uiso   1.00
H1564  H     0.07012   0.94547   0.67969   0.00000  Uiso   1.00
H1565  H     0.11189   0.92895   0.97476   0.00000  Uiso   1.00
H1566  H     0.09731   0.89372   0.69247   0.00000  Uiso   1.00
H1567  H     0.06664   0.70586   0.79514   0.00000  Uiso   1.00
H1568  H     0.07108   0.67508   0.73851   0.00000  Uiso   1.00
H1569  H     0.06762   0.74011   0.68600   0.00000  Uiso   1.00
H1570  H     0.02395   0.73993   0.72574   0.00000  Uiso   1.00
H1571  H     0.06775   0.77712   0.73923   0.00000  Uiso   1.00
H1572  H     0.29661   0.90413   0.85662   0.00000  Uiso   1.00
H1573  H     0.18595   0.92833   0.96741   0.00000  Uiso   1.00
H1574  H     0.17281   0.98552   0.95531   0.00000  Uiso   1.00
H1575  H     0.24072   0.67701   0.98629   0.00000  Uiso   1.00
H1576  H     0.22569   0.96850   0.69590   0.00000  Uiso   1.00
H1577  H     0.26231   0.95419   0.98326   0.00000  Uiso   1.00
H1578  H     0.29528   0.76650   0.80540   0.00000  Uiso   1.00
H1579  H     0.03880   0.90420   0.85746   0.00000  Uiso   1.00
H1580  H     0.27154   0.74917   0.88884   0.00000  Uiso   1.00
H1581  H     0.25630   0.71353   0.83630   0.00000  Uiso   1.00
H1582  H     0.28110   0.98075   0.88836   0.00000  Uiso   1.00
H1583  H     0.32054   0.68846   0.88008   0.00000  Uiso   1.00
H1584  H     0.29661   0.68605   0.93883   0.00000  Uiso   1.00
N1585  N     0.16667   0.95240   0.83333   0.00000  Uiso   1.00
N1586  N     0.16667   0.71427   0.83333   0.00000  Uiso   1.00
O1587  O     0.10559   0.87154   0.83333   0.00000  Uiso   1.00
O1588  O     0.11774   0.95122   0.76453   0.00000  Uiso   1.00
O1589  O     0.12264   0.71498   0.75997   0.00000  Uiso   1.00
O1590  O     0.21278   0.95249   0.90521   0.00000  Uiso   1.00
O1591  O     0.22774   0.79513   0.83334   0.00000  Uiso   1.00
O1592  O     0.22774   0.87154   0.83334   0.00000  Uiso   1.00
O1593  O     0.10559   0.79513   0.83333   0.00000  Uiso   1.00
O1594  O     0.16667   0.87155   0.76178   0.00000  Uiso   1.00
O1595  O     0.16666   0.79512   0.90489   0.00000  Uiso   1.00
O1596  O     0.16666   0.87155   0.90489   0.00000  Uiso   1.00
O1597  O     0.16667   0.79512   0.76178   0.00000  Uiso   1.00
O1598  O     0.21947   0.71222   0.90000   0.00000  Uiso   1.00
Zn1599 Zn    0.16667   0.88437   0.83333   0.00000  Uiso   1.00
Zn1600 Zn    0.16667   0.78229   0.83333   0.00000  Uiso   1.00
C1601  C     0.42011   0.83343   0.83475   0.00000  Uiso   1.00
C1602  C     0.35533   0.87368   0.84752   0.00000  Uiso   1.00
C1603  C     0.62408   0.83463   0.83248   0.00000  Uiso   1.00
C1604  C     0.37591   0.83395   0.83640   0.00000  Uiso   1.00
C1605  C     0.52480   0.69032   0.86731   0.00000  Uiso   1.00
C1606  C     0.47694   0.97559   0.79744   0.00000  Uiso   1.00
C1607  C     0.47603   0.69076   0.79819   0.00000  Uiso   1.00
C1608  C     0.52260   0.97588   0.86927   0.00000  Uiso   1.00
C1609  C     0.59187   0.71595   0.87799   0.00000  Uiso   1.00
C1610  C     0.62401   0.68210   0.89790   0.00000  Uiso   1.00
C1611  C     0.46517   0.95366   0.71546   0.00000  Uiso   1.00
C1612  C     0.57990   0.83361   0.83283   0.00000  Uiso   1.00
C1613  C     0.43429   0.92888   0.68007   0.00000  Uiso   1.00
C1614  C     0.41262   0.70706   0.75737   0.00000  Uiso   1.00
C1615  C     0.39162   0.74338   0.72524   0.00000  Uiso   1.00
C1616  C     0.53159   0.96031   0.95364   0.00000  Uiso   1.00
C1617  C     0.56740   0.97413   0.99006   0.00000  Uiso   1.00
C1618  C     0.49998   0.83326   0.73965   0.00000  Uiso   1.00
C1619  C     0.50024   0.83336   0.92703   0.00000  Uiso   1.00
C1620  C     0.50025   0.83315   0.68850   0.00000  Uiso   1.00
C1621  C     0.50031   0.83329   0.97821   0.00000  Uiso   1.00
C1622  C     0.35384   0.79492   0.82473   0.00000  Uiso   1.00
C1623  C     0.64584   0.87377   0.84652   0.00000  Uiso   1.00
C1624  C     0.64486   0.79599   0.81935   0.00000  Uiso   1.00
H1625  H     0.36911   0.76384   0.81869   0.00000  Uiso   1.00
H1626  H     0.49611   0.93800   0.71378   0.00000  Uiso   1.00
H1627  H     0.46778   0.98853   0.70180   0.00000  Uiso   1.00
H1628  H     0.40345   0.94547   0.67969   0.00000  Uiso   1.00
H1629  H     0.44522   0.92895   0.97476   0.00000  Uiso   1.00
H1630  H     0.43064   0.89372   0.69247   0.00000  Uiso   1.00
H1631  H     0.39997   0.70586   0.79514   0.00000  Uiso   1.00
H1632  H     0.40441   0.67508   0.73851   0.00000  Uiso   1.00
H1633  H     0.40095   0.74011   0.68600   0.00000  Uiso   1.00
H1634  H     0.35728   0.73993   0.72574   0.00000  Uiso   1.00
H1635  H     0.40108   0.77712   0.73923   0.00000  Uiso   1.00
H1636  H     0.62994   0.90413   0.85662   0.00000  Uiso   1.00
H1637  H     0.51929   0.92833   0.96741   0.00000  Uiso   1.00
H1638  H     0.50614   0.98552   0.95531   0.00000  Uiso   1.00
H1639  H     0.57405   0.67701   0.98629   0.00000  Uiso   1.00
H1640  H     0.55903   0.96850   0.69590   0.00000  Uiso   1.00
H1641  H     0.59564   0.95419   0.98326   0.00000  Uiso   1.00
H1642  H     0.62862   0.76650   0.80540   0.00000  Uiso   1.00
H1643  H     0.37214   0.90420   0.85746   0.00000  Uiso   1.00
H1644  H     0.60488   0.74917   0.88884   0.00000  Uiso   1.00
H1645  H     0.58964   0.71353   0.83630   0.00000  Uiso   1.00
H1646  H     0.61443   0.98075   0.88836   0.00000  Uiso   1.00
H1647  H     0.65387   0.68846   0.88008   0.00000  Uiso   1.00
H1648  H     0.62994   0.68605   0.93883   0.00000  Uiso   1.00
N1649  N     0.50000   0.95240   0.83333   0.00000  Uiso   1.00
N1650  N     0.50000   0.71427   0.83333   0.00000  Uiso   1.00
O1651  O     0.43892   0.87154   0.83333   0.00000  Uiso   1.00
O1652  O     0.45108   0.95122   0.76453   0.00000  Uiso   1.00
O1653  O     0.45597   0.71498   0.75997   0.00000  Uiso   1.00
O1654  O     0.54611   0.95249   0.90521   0.00000  Uiso   1.00
O1655  O     0.56108   0.79513   0.83334   0.00000  Uiso   1.00
O1656  O     0.56108   0.87154   0.83334   0.00000  Uiso   1.00
O1657  O     0.43892   0.79513   0.83333   0.00000  Uiso   1.00
O1658  O     0.50000   0.87155   0.76178   0.00000  Uiso   1.00
O1659  O     0.50000   0.79512   0.90489   0.00000  Uiso   1.00
O1660  O     0.50000   0.87155   0.90489   0.00000  Uiso   1.00
O1661  O     0.50000   0.79512   0.76178   0.00000  Uiso   1.00
O1662  O     0.55281   0.71222   0.90000   0.00000  Uiso   1.00
Zn1663 Zn    0.50000   0.88437   0.83333   0.00000  Uiso   1.00
Zn1664 Zn    0.50000   0.78229   0.83333   0.00000  Uiso   1.00
C1665  C     0.75345   0.83343   0.83475   0.00000  Uiso   1.00
C1666  C     0.68866   0.87368   0.84752   0.00000  Uiso   1.00
C1667  C     0.95741   0.83463   0.83248   0.00000  Uiso   1.00
C1668  C     0.70924   0.83395   0.83640   0.00000  Uiso   1.00
C1669  C     0.85813   0.69032   0.86731   0.00000  Uiso   1.00
C1670  C     0.81027   0.97559   0.79744   0.00000  Uiso   1.00
C1671  C     0.80936   0.69076   0.79819   0.00000  Uiso   1.00
C1672  C     0.85593   0.97588   0.86927   0.00000  Uiso   1.00
C1673  C     0.92521   0.71595   0.87799   0.00000  Uiso   1.00
C1674  C     0.95734   0.68210   0.89790   0.00000  Uiso   1.00
C1675  C     0.79850   0.95366   0.71546   0.00000  Uiso   1.00
C1676  C     0.91323   0.83361   0.83283   0.00000  Uiso   1.00
C1677  C     0.76762   0.92888   0.68007   0.00000  Uiso   1.00
C1678  C     0.74596   0.70706   0.75737   0.00000  Uiso   1.00
C1679  C     0.72496   0.74338   0.72524   0.00000  Uiso   1.00
C1680  C     0.86492   0.96031   0.95364   0.00000  Uiso   1.00
C1681  C     0.90073   0.97413   0.99006   0.00000  Uiso   1.00
C1682  C     0.83331   0.83326   0.73965   0.00000  Uiso   1.00
C1683  C     0.83357   0.83336   0.92703   0.00000  Uiso   1.00
C1684  C     0.83358   0.83315   0.68850   0.00000  Uiso   1.00
C1685  C     0.83364   0.83329   0.97821   0.00000  Uiso   1.00
C1686  C     0.68718   0.79492   0.82473   0.00000  Uiso   1.00
C1687  C     0.97918   0.87377   0.84652   0.00000  Uiso   1.00
C1688  C     0.97819   0.79599   0.81935   0.00000  Uiso   1.00
H1689  H     0.70244   0.76384   0.81869   0.00000  Uiso   1.00
H1690  H     0.82945   0.93800   0.71378   0.00000  Uiso   1.00
H1691  H     0.80112   0.98853   0.70180   0.00000  Uiso   1.00
H1692  H     0.73679   0.94547   0.67969   0.00000  Uiso   1.00
H1693  H     0.77855   0.92895   0.97476   0.00000  Uiso   1.00
H1694  H     0.76397   0.89372   0.69247   0.00000  Uiso   1.00
H1695  H     0.73331   0.70586   0.79514   0.00000  Uiso   1.00
H1696  H     0.73774   0.67508   0.73851   0.00000  Uiso   1.00
H1697  H     0.73429   0.74011   0.68600   0.00000  Uiso   1.00
H1698  H     0.69061   0.73993   0.72574   0.00000  Uiso   1.00
H1699  H     0.73442   0.77712   0.73923   0.00000  Uiso   1.00
H1700  H     0.96328   0.90413   0.85662   0.00000  Uiso   1.00
H1701  H     0.85262   0.92833   0.96741   0.00000  Uiso   1.00
H1702  H     0.83947   0.98552   0.95531   0.00000  Uiso   1.00
H1703  H     0.90738   0.67701   0.98629   0.00000  Uiso   1.00
H1704  H     0.89236   0.96850   0.69590   0.00000  Uiso   1.00
H1705  H     0.92897   0.95419   0.98326   0.00000  Uiso   1.00
H1706  H     0.96195   0.76650   0.80540   0.00000  Uiso   1.00
H1707  H     0.70547   0.90420   0.85746   0.00000  Uiso   1.00
H1708  H     0.93821   0.74917   0.88884   0.00000  Uiso   1.00
H1709  H     0.92297   0.71353   0.83630   0.00000  Uiso   1.00
H1710  H     0.94776   0.98075   0.88836   0.00000  Uiso   1.00
H1711  H     0.98721   0.68846   0.88008   0.00000  Uiso   1.00
H1712  H     0.96328   0.68605   0.93883   0.00000  Uiso   1.00
N1713  N     0.83333   0.95240   0.83333   0.00000  Uiso   1.00
N1714  N     0.83333   0.71427   0.83333   0.00000  Uiso   1.00
O1715  O     0.77226   0.87154   0.83333   0.00000  Uiso   1.00
O1716  O     0.78441   0.95122   0.76453   0.00000  Uiso   1.00
O1717  O     0.78930   0.71498   0.75997   0.00000  Uiso   1.00
O1718  O     0.87944   0.95249   0.90521   0.00000  Uiso   1.00
O1719  O     0.89441   0.79513   0.83334   0.00000  Uiso   1.00
O1720  O     0.89441   0.87154   0.83334   0.00000  Uiso   1.00
O1721  O     0.77226   0.79513   0.83333   0.00000  Uiso   1.00
O1722  O     0.83334   0.87155   0.76178   0.00000  Uiso   1.00
O1723  O     0.83333   0.79512   0.90489   0.00000  Uiso   1.00
O1724  O     0.83333   0.87155   0.90489   0.00000  Uiso   1.00
O1725  O     0.83334   0.79512   0.76178   0.00000  Uiso   1.00
O1726  O     0.88614   0.71222   0.90000   0.00000  Uiso   1.00
Zn1727 Zn    0.83333   0.88437   0.83333   0.00000  Uiso   1.00
Zn1728 Zn    0.83333   0.78229   0.83333   0.00000  Uiso   1.00
loop_
_geom_bond_atom_site_label_1
_geom_bond_atom_site_label_2
_geom_bond_distance
_geom_bond_site_symmetry_2
_ccdc_geom_bond_type
C1     O57     1.297   .     A
C1     C4      1.426   .     S
C1     O51     1.289   .     A
C2     C4      1.399   .     A
C2     H43     1.084   .     S
C2     C151    1.377   1_455 S
C3     C24     1.389   .     A
C3     C12     1.422   .     S
C3     C23     1.401   .     A
C4     C22     1.389   .     A
C5     O62     1.384   .     S
C5     N50     1.381   .     A
C5     C392    1.429   1_545 S
C6     O52     1.383   .     S
C6     N49     1.373   .     A
C6     C199    1.449   .     S
C7     O53     1.387   .     S
C7     N50     1.374   .     A
C7     C390    1.449   1_545 S
C8     O54     1.384   .     S
C8     N49     1.365   .     A
C8     C197    1.429   .     S
C9     H45     1.116   .     S
C9     C10     1.525   .     S
C9     O62     1.420   .     S
C9     H44     1.107   .     S
C10    H48     1.108   .     S
C10    H47     1.111   .     S
C10    H430    1.105   1_545 S
C11    O52     1.413   .     S
C11    H27     1.109   .     S
C11    C13     1.524   .     S
C11    H26     1.105   .     S
C12    O56     1.286   .     A
C12    O55     1.298   .     A
C13    H28     1.110   .     S
C13    H30     1.110   .     S
C13    H1181   1.109   1_554 S
C14    H32     1.103   .     S
C14    O53     1.412   .     S
C14    H31     1.109   .     S
C14    C15     1.524   .     S
C15    H34     1.111   .     S
C15    H35     1.110   .     S
C15    H33     1.111   .     S
C16    H37     1.104   .     S
C16    O54     1.419   .     S
C16    H38     1.117   .     S
C16    C17     1.525   .     S
C17    H41     1.111   .     S
C17    H231    1.107   .     S
C17    H616    1.109   .     S
C18    O61     1.285   .     A
C18    O58     1.285   .     A
C18    C20     1.369   .     S
C19    O60     1.286   .     A
C19    C21     1.369   .     S
C19    O59     1.284   .     A
C20    C1173   1.167   1_554 S
C21    C596    1.167   .     S
C22    H25     1.067   .     S
C22    C152    1.363   1_455 S
C23    H36     1.083   .     S
C23    C66     1.377   .     S
C24    H42     1.078   .     S
C24    C86     1.363   .     S
H29    C589    1.109   .     S
H39    C401    1.107   1_545 S
H40    C1169   1.109   1_554 S
H46    C202    1.105   .     S
N49    Zn63    2.031   .     S
N50    Zn64    2.031   .     S
O51    Zn63    2.001   .     S
O55    Zn64    2.001   .     S
O56    Zn63    2.004   .     S
O57    Zn64    2.004   .     S
O58    Zn63    1.951   .     S
O59    Zn64    1.951   .     S
O60    Zn63    1.953   .     S
O61    Zn64    1.953   .     S
C65    O121    1.297   .     A
C65    C68     1.426   .     S
C65    O115    1.289   .     A
C66    C68     1.399   .     A
C66    H107    1.084   .     S
C67    C88     1.389   .     A
C67    C76     1.422   .     S
C67    C87     1.401   .     A
C68    C86     1.389   .     A
C69    O126    1.384   .     S
C69    N114    1.381   .     A
C69    C456    1.429   1_545 S
C70    O116    1.383   .     S
C70    N113    1.373   .     A
C70    C263    1.449   .     S
C71    O117    1.387   .     S
C71    N114    1.374   .     A
C71    C454    1.449   1_545 S
C72    O118    1.384   .     S
C72    N113    1.365   .     A
C72    C261    1.429   .     S
C73    H109    1.116   .     S
C73    C74     1.525   .     S
C73    O126    1.420   .     S
C73    H108    1.107   .     S
C74    H112    1.108   .     S
C74    H111    1.111   .     S
C74    H494    1.105   1_545 S
C75    O116    1.413   .     S
C75    H91     1.109   .     S
C75    C77     1.524   .     S
C75    H90     1.105   .     S
C76    O120    1.286   .     A
C76    O119    1.298   .     A
C77    H92     1.110   .     S
C77    H94     1.110   .     S
C77    H1245   1.109   1_554 S
C78    H96     1.103   .     S
C78    O117    1.412   .     S
C78    H95     1.109   .     S
C78    C79     1.524   .     S
C79    H98     1.111   .     S
C79    H99     1.110   .     S
C79    H97     1.111   .     S
C80    H101    1.104   .     S
C80    O118    1.419   .     S
C80    H102    1.117   .     S
C80    C81     1.525   .     S
C81    H105    1.111   .     S
C81    H295    1.107   .     S
C81    H680    1.109   .     S
C82    O125    1.285   .     A
C82    O122    1.285   .     A
C82    C84     1.369   .     S
C83    O124    1.286   .     A
C83    C85     1.369   .     S
C83    O123    1.284   .     A
C84    C1237   1.167   1_554 S
C85    C660    1.167   .     S
C86    H89     1.067   .     S
C87    H100    1.083   .     S
C87    C130    1.377   .     S
C88    H106    1.078   .     S
C88    C150    1.363   .     S
H93    C653    1.109   .     S
H103   C465    1.107   1_545 S
H104   C1233   1.109   1_554 S
H110   C266    1.105   .     S
N113   Zn127   2.031   .     S
N114   Zn128   2.031   .     S
O115   Zn127   2.001   .     S
O119   Zn128   2.001   .     S
O120   Zn127   2.004   .     S
O121   Zn128   2.004   .     S
O122   Zn127   1.951   .     S
O123   Zn128   1.951   .     S
O124   Zn127   1.953   .     S
O125   Zn128   1.953   .     S
C129   O185    1.297   .     A
C129   C132    1.426   .     S
C129   O179    1.289   .     A
C130   C132    1.399   .     A
C130   H171    1.084   .     S
C131   C152    1.389   .     A
C131   C140    1.422   .     S
C131   C151    1.401   .     A
C132   C150    1.389   .     A
C133   O190    1.384   .     S
C133   N178    1.381   .     A
C133   C520    1.429   1_545 S
C134   O180    1.383   .     S
C134   N177    1.373   .     A
C134   C327    1.449   .     S
C135   O181    1.387   .     S
C135   N178    1.374   .     A
C135   C518    1.449   1_545 S
C136   O182    1.384   .     S
C136   N177    1.365   .     A
C136   C325    1.429   .     S
C137   H173    1.116   .     S
C137   C138    1.525   .     S
C137   O190    1.420   .     S
C137   H172    1.107   .     S
C138   H176    1.108   .     S
C138   H175    1.111   .     S
C138   H558    1.105   1_545 S
C139   O180    1.413   .     S
C139   H155    1.109   .     S
C139   C141    1.524   .     S
C139   H154    1.105   .     S
C140   O184    1.286   .     A
C140   O183    1.298   .     A
C141   H156    1.110   .     S
C141   H158    1.110   .     S
C141   H1309   1.109   1_554 S
C142   H160    1.103   .     S
C142   O181    1.412   .     S
C142   H159    1.109   .     S
C142   C143    1.524   .     S
C143   H162    1.111   .     S
C143   H163    1.110   .     S
C143   H161    1.111   .     S
C144   H165    1.104   .     S
C144   O182    1.419   .     S
C144   H166    1.117   .     S
C144   C145    1.525   .     S
C145   H169    1.111   .     S
C145   H359    1.107   .     S
C145   H744    1.109   .     S
C146   O189    1.285   .     A
C146   O186    1.285   .     A
C146   C148    1.369   .     S
C147   O188    1.286   .     A
C147   C149    1.369   .     S
C147   O187    1.284   .     A
C148   C1301   1.167   1_554 S
C149   C724    1.167   .     S
C150   H153    1.067   .     S
C151   H164    1.083   .     S
C151   C2      1.377   1_655 S
C152   H170    1.078   .     S
C152   C22     1.363   1_655 S
H157   C717    1.109   .     S
H167   C529    1.107   1_545 S
H168   C1297   1.109   1_554 S
H174   C330    1.105   .     S
N177   Zn191   2.031   .     S
N178   Zn192   2.031   .     S
O179   Zn191   2.001   .     S
O183   Zn192   2.001   .     S
O184   Zn191   2.004   .     S
O185   Zn192   2.004   .     S
O186   Zn191   1.951   .     S
O187   Zn192   1.951   .     S
O188   Zn191   1.953   .     S
O189   Zn192   1.953   .     S
C193   O249    1.297   .     A
C193   C196    1.426   .     S
C193   O243    1.289   .     A
C194   C196    1.399   .     A
C194   H235    1.084   .     S
C194   C343    1.377   1_455 S
C195   C216    1.389   .     A
C195   C204    1.422   .     S
C195   C215    1.401   .     A
C196   C214    1.389   .     A
C197   O254    1.384   .     S
C197   N242    1.381   .     A
C198   O244    1.383   .     S
C198   N241    1.373   .     A
C198   C391    1.449   .     S
C199   O245    1.387   .     S
C199   N242    1.374   .     A
C200   O246    1.384   .     S
C200   N241    1.365   .     A
C200   C389    1.429   .     S
C201   H237    1.116   .     S
C201   C202    1.525   .     S
C201   O254    1.420   .     S
C201   H236    1.107   .     S
C202   H240    1.108   .     S
C202   H239    1.111   .     S
C203   O244    1.413   .     S
C203   H219    1.109   .     S
C203   C205    1.524   .     S
C203   H218    1.105   .     S
C204   O248    1.286   .     A
C204   O247    1.298   .     A
C205   H220    1.110   .     S
C205   H222    1.110   .     S
C205   H1373   1.109   1_554 S
C206   H224    1.103   .     S
C206   O245    1.412   .     S
C206   H223    1.109   .     S
C206   C207    1.524   .     S
C207   H226    1.111   .     S
C207   H227    1.110   .     S
C207   H225    1.111   .     S
C208   H229    1.104   .     S
C208   O246    1.419   .     S
C208   H230    1.117   .     S
C208   C209    1.525   .     S
C209   H233    1.111   .     S
C209   H423    1.107   .     S
C209   H808    1.109   .     S
C210   O253    1.285   .     A
C210   O250    1.285   .     A
C210   C212    1.369   .     S
C211   O252    1.286   .     A
C211   C213    1.369   .     S
C211   O251    1.284   .     A
C212   C1365   1.167   1_554 S
C213   C788    1.167   .     S
C214   H217    1.067   .     S
C214   C344    1.363   1_455 S
C215   H228    1.083   .     S
C215   C258    1.377   .     S
C216   H234    1.078   .     S
C216   C278    1.363   .     S
H221   C781    1.109   .     S
H232   C1361   1.109   1_554 S
H238   C394    1.105   .     S
N241   Zn255   2.031   .     S
N242   Zn256   2.031   .     S
O243   Zn255   2.001   .     S
O247   Zn256   2.001   .     S
O248   Zn255   2.004   .     S
O249   Zn256   2.004   .     S
O250   Zn255   1.951   .     S
O251   Zn256   1.951   .     S
O252   Zn255   1.953   .     S
O253   Zn256   1.953   .     S
C257   O313    1.297   .     A
C257   C260    1.426   .     S
C257   O307    1.289   .     A
C258   C260    1.399   .     A
C258   H299    1.084   .     S
C259   C280    1.389   .     A
C259   C268    1.422   .     S
C259   C279    1.401   .     A
C260   C278    1.389   .     A
C261   O318    1.384   .     S
C261   N306    1.381   .     A
C262   O308    1.383   .     S
C262   N305    1.373   .     A
C262   C455    1.449   .     S
C263   O309    1.387   .     S
C263   N306    1.374   .     A
C264   O310    1.384   .     S
C264   N305    1.365   .     A
C264   C453    1.429   .     S
C265   H301    1.116   .     S
C265   C266    1.525   .     S
C265   O318    1.420   .     S
C265   H300    1.107   .     S
C266   H304    1.108   .     S
C266   H303    1.111   .     S
C267   O308    1.413   .     S
C267   H283    1.109   .     S
C267   C269    1.524   .     S
C267   H282    1.105   .     S
C268   O312    1.286   .     A
C268   O311    1.298   .     A
C269   H284    1.110   .     S
C269   H286    1.110   .     S
C269   H1437   1.109   1_554 S
C270   H288    1.103   .     S
C270   O309    1.412   .     S
C270   H287    1.109   .     S
C270   C271    1.524   .     S
C271   H290    1.111   .     S
C271   H291    1.110   .     S
C271   H289    1.111   .     S
C272   H293    1.104   .     S
C272   O310    1.419   .     S
C272   H294    1.117   .     S
C272   C273    1.525   .     S
C273   H297    1.111   .     S
C273   H487    1.107   .     S
C273   H872    1.109   .     S
C274   O317    1.285   .     A
C274   O314    1.285   .     A
C274   C276    1.369   .     S
C275   O316    1.286   .     A
C275   C277    1.369   .     S
C275   O315    1.284   .     A
C276   C1429   1.167   1_554 S
C277   C852    1.167   .     S
C278   H281    1.067   .     S
C279   H292    1.083   .     S
C279   C322    1.377   .     S
C280   H298    1.078   .     S
C280   C342    1.363   .     S
H285   C845    1.109   .     S
H296   C1425   1.109   1_554 S
H302   C458    1.105   .     S
N305   Zn319   2.031   .     S
N306   Zn320   2.031   .     S
O307   Zn319   2.001   .     S
O311   Zn320   2.001   .     S
O312   Zn319   2.004   .     S
O313   Zn320   2.004   .     S
O314   Zn319   1.951   .     S
O315   Zn320   1.951   .     S
O316   Zn319   1.953   .     S
O317   Zn320   1.953   .     S
C321   O377    1.297   .     A
C321   C324    1.426   .     S
C321   O371    1.289   .     A
C322   C324    1.399   .     A
C322   H363    1.084   .     S
C323   C344    1.389   .     A
C323   C332    1.422   .     S
C323   C343    1.401   .     A
C324   C342    1.389   .     A
C325   O382    1.384   .     S
C325   N370    1.381   .     A
C326   O372    1.383   .     S
C326   N369    1.373   .     A
C326   C519    1.449   .     S
C327   O373    1.387   .     S
C327   N370    1.374   .     A
C328   O374    1.384   .     S
C328   N369    1.365   .     A
C328   C517    1.429   .     S
C329   H365    1.116   .     S
C329   C330    1.525   .     S
C329   O382    1.420   .     S
C329   H364    1.107   .     S
C330   H368    1.108   .     S
C330   H367    1.111   .     S
C331   O372    1.413   .     S
C331   H347    1.109   .     S
C331   C333    1.524   .     S
C331   H346    1.105   .     S
C332   O376    1.286   .     A
C332   O375    1.298   .     A
C333   H348    1.110   .     S
C333   H350    1.110   .     S
C333   H1501   1.109   1_554 S
C334   H352    1.103   .     S
C334   O373    1.412   .     S
C334   H351    1.109   .     S
C334   C335    1.524   .     S
C335   H354    1.111   .     S
C335   H355    1.110   .     S
C335   H353    1.111   .     S
C336   H357    1.104   .     S
C336   O374    1.419   .     S
C336   H358    1.117   .     S
C336   C337    1.525   .     S
C337   H361    1.111   .     S
C337   H551    1.107   .     S
C337   H936    1.109   .     S
C338   O381    1.285   .     A
C338   O378    1.285   .     A
C338   C340    1.369   .     S
C339   O380    1.286   .     A
C339   C341    1.369   .     S
C339   O379    1.284   .     A
C340   C1493   1.167   1_554 S
C341   C916    1.167   .     S
C342   H345    1.067   .     S
C343   H356    1.083   .     S
C343   C194    1.377   1_655 S
C344   H362    1.078   .     S
C344   C214    1.363   1_655 S
H349   C909    1.109   .     S
H360   C1489   1.109   1_554 S
H366   C522    1.105   .     S
N369   Zn383   2.031   .     S
N370   Zn384   2.031   .     S
O371   Zn383   2.001   .     S
O375   Zn384   2.001   .     S
O376   Zn383   2.004   .     S
O377   Zn384   2.004   .     S
O378   Zn383   1.951   .     S
O379   Zn384   1.951   .     S
O380   Zn383   1.953   .     S
O381   Zn384   1.953   .     S
C385   O441    1.297   .     A
C385   C388    1.426   .     S
C385   O435    1.289   .     A
C386   C388    1.399   .     A
C386   H427    1.084   .     S
C386   C535    1.377   1_455 S
C387   C408    1.389   .     A
C387   C396    1.422   .     S
C387   C407    1.401   .     A
C388   C406    1.389   .     A
C389   O446    1.384   .     S
C389   N434    1.381   .     A
C390   O436    1.383   .     S
C390   N433    1.373   .     A
C390   C7      1.449   1_565 S
C391   O437    1.387   .     S
C391   N434    1.374   .     A
C392   O438    1.384   .     S
C392   N433    1.365   .     A
C392   C5      1.429   1_565 S
C393   H429    1.116   .     S
C393   C394    1.525   .     S
C393   O446    1.420   .     S
C393   H428    1.107   .     S
C394   H432    1.108   .     S
C394   H431    1.111   .     S
C395   O436    1.413   .     S
C395   H411    1.109   .     S
C395   C397    1.524   .     S
C395   H410    1.105   .     S
C396   O440    1.286   .     A
C396   O439    1.298   .     A
C397   H412    1.110   .     S
C397   H414    1.110   .     S
C397   H1565   1.109   1_554 S
C398   H416    1.103   .     S
C398   O437    1.412   .     S
C398   H415    1.109   .     S
C398   C399    1.524   .     S
C399   H418    1.111   .     S
C399   H419    1.110   .     S
C399   H417    1.111   .     S
C400   H421    1.104   .     S
C400   O438    1.419   .     S
C400   H422    1.117   .     S
C400   C401    1.525   .     S
C401   H425    1.111   .     S
C401   H39     1.107   1_565 S
C401   H1000   1.109   .     S
C402   O445    1.285   .     A
C402   O442    1.285   .     A
C402   C404    1.369   .     S
C403   O444    1.286   .     A
C403   C405    1.369   .     S
C403   O443    1.284   .     A
C404   C1557   1.167   1_554 S
C405   C980    1.167   .     S
C406   H409    1.067   .     S
C406   C536    1.363   1_455 S
C407   H420    1.083   .     S
C407   C450    1.377   .     S
C408   H426    1.078   .     S
C408   C470    1.363   .     S
H413   C973    1.109   .     S
H424   C1553   1.109   1_554 S
H430   C10     1.105   1_565 S
N433   Zn447   2.031   .     S
N434   Zn448   2.031   .     S
O435   Zn447   2.001   .     S
O439   Zn448   2.001   .     S
O440   Zn447   2.004   .     S
O441   Zn448   2.004   .     S
O442   Zn447   1.951   .     S
O443   Zn448   1.951   .     S
O444   Zn447   1.953   .     S
O445   Zn448   1.953   .     S
C449   O505    1.297   .     A
C449   C452    1.426   .     S
C449   O499    1.289   .     A
C450   C452    1.399   .     A
C450   H491    1.084   .     S
C451   C472    1.389   .     A
C451   C460    1.422   .     S
C451   C471    1.401   .     A
C452   C470    1.389   .     A
C453   O510    1.384   .     S
C453   N498    1.381   .     A
C454   O500    1.383   .     S
C454   N497    1.373   .     A
C454   C71     1.449   1_565 S
C455   O501    1.387   .     S
C455   N498    1.374   .     A
C456   O502    1.384   .     S
C456   N497    1.365   .     A
C456   C69     1.429   1_565 S
C457   H493    1.116   .     S
C457   C458    1.525   .     S
C457   O510    1.420   .     S
C457   H492    1.107   .     S
C458   H496    1.108   .     S
C458   H495    1.111   .     S
C459   O500    1.413   .     S
C459   H475    1.109   .     S
C459   C461    1.524   .     S
C459   H474    1.105   .     S
C460   O504    1.286   .     A
C460   O503    1.298   .     A
C461   H476    1.110   .     S
C461   H478    1.110   .     S
C461   H1629   1.109   1_554 S
C462   H480    1.103   .     S
C462   O501    1.412   .     S
C462   H479    1.109   .     S
C462   C463    1.524   .     S
C463   H482    1.111   .     S
C463   H483    1.110   .     S
C463   H481    1.111   .     S
C464   H485    1.104   .     S
C464   O502    1.419   .     S
C464   H486    1.117   .     S
C464   C465    1.525   .     S
C465   H489    1.111   .     S
C465   H103    1.107   1_565 S
C465   H1064   1.109   .     S
C466   O509    1.285   .     A
C466   O506    1.285   .     A
C466   C468    1.369   .     S
C467   O508    1.286   .     A
C467   C469    1.369   .     S
C467   O507    1.284   .     A
C468   C1621   1.167   1_554 S
C469   C1044   1.167   .     S
C470   H473    1.067   .     S
C471   H484    1.083   .     S
C471   C514    1.377   .     S
C472   H490    1.078   .     S
C472   C534    1.363   .     S
H477   C1037   1.109   .     S
H488   C1617   1.109   1_554 S
H494   C74     1.105   1_565 S
N497   Zn511   2.031   .     S
N498   Zn512   2.031   .     S
O499   Zn511   2.001   .     S
O503   Zn512   2.001   .     S
O504   Zn511   2.004   .     S
O505   Zn512   2.004   .     S
O506   Zn511   1.951   .     S
O507   Zn512   1.951   .     S
O508   Zn511   1.953   .     S
O509   Zn512   1.953   .     S
C513   O569    1.297   .     A
C513   C516    1.426   .     S
C513   O563    1.289   .     A
C514   C516    1.399   .     A
C514   H555    1.084   .     S
C515   C536    1.389   .     A
C515   C524    1.422   .     S
C515   C535    1.401   .     A
C516   C534    1.389   .     A
C517   O574    1.384   .     S
C517   N562    1.381   .     A
C518   O564    1.383   .     S
C518   N561    1.373   .     A
C518   C135    1.449   1_565 S
C519   O565    1.387   .     S
C519   N562    1.374   .     A
C520   O566    1.384   .     S
C520   N561    1.365   .     A
C520   C133    1.429   1_565 S
C521   H557    1.116   .     S
C521   C522    1.525   .     S
C521   O574    1.420   .     S
C521   H556    1.107   .     S
C522   H560    1.108   .     S
C522   H559    1.111   .     S
C523   O564    1.413   .     S
C523   H539    1.109   .     S
C523   C525    1.524   .     S
C523   H538    1.105   .     S
C524   O568    1.286   .     A
C524   O567    1.298   .     A
C525   H540    1.110   .     S
C525   H542    1.110   .     S
C525   H1693   1.109   1_554 S
C526   H544    1.103   .     S
C526   O565    1.412   .     S
C526   H543    1.109   .     S
C526   C527    1.524   .     S
C527   H546    1.111   .     S
C527   H547    1.110   .     S
C527   H545    1.111   .     S
C528   H549    1.104   .     S
C528   O566    1.419   .     S
C528   H550    1.117   .     S
C528   C529    1.525   .     S
C529   H553    1.111   .     S
C529   H167    1.107   1_565 S
C529   H1128   1.109   .     S
C530   O573    1.285   .     A
C530   O570    1.285   .     A
C530   C532    1.369   .     S
C531   O572    1.286   .     A
C531   C533    1.369   .     S
C531   O571    1.284   .     A
C532   C1685   1.167   1_554 S
C533   C1108   1.167   .     S
C534   H537    1.067   .     S
C535   H548    1.083   .     S
C535   C386    1.377   1_655 S
C536   H554    1.078   .     S
C536   C406    1.363   1_655 S
H541   C1101   1.109   .     S
H552   C1681   1.109   1_554 S
H558   C138    1.105   1_565 S
N561   Zn575   2.031   .     S
N562   Zn576   2.031   .     S
O563   Zn575   2.001   .     S
O567   Zn576   2.001   .     S
O568   Zn575   2.004   .     S
O569   Zn576   2.004   .     S
O570   Zn575   1.951   .     S
O571   Zn576   1.951   .     S
O572   Zn575   1.953   .     S
O573   Zn576   1.953   .     S
C577   O633    1.297   .     A
C577   C580    1.426   .     S
C577   O627    1.289   .     A
C578   C580    1.399   .     A
C578   H619    1.084   .     S
C578   C727    1.377   1_455 S
C579   C600    1.389   .     A
C579   C588    1.422   .     S
C579   C599    1.401   .     A
C580   C598    1.389   .     A
C581   O638    1.384   .     S
C581   N626    1.381   .     A
C581   C968    1.429   1_545 S
C582   O628    1.383   .     S
C582   N625    1.373   .     A
C582   C775    1.449   .     S
C583   O629    1.387   .     S
C583   N626    1.374   .     A
C583   C966    1.449   1_545 S
C584   O630    1.384   .     S
C584   N625    1.365   .     A
C584   C773    1.429   .     S
C585   H621    1.116   .     S
C585   C586    1.525   .     S
C585   O638    1.420   .     S
C585   H620    1.107   .     S
C586   H624    1.108   .     S
C586   H623    1.111   .     S
C586   H1006   1.105   1_545 S
C587   O628    1.413   .     S
C587   H603    1.109   .     S
C587   C589    1.524   .     S
C587   H602    1.105   .     S
C588   O632    1.286   .     A
C588   O631    1.298   .     A
C589   H604    1.110   .     S
C589   H606    1.110   .     S
C590   H608    1.103   .     S
C590   O629    1.412   .     S
C590   H607    1.109   .     S
C590   C591    1.524   .     S
C591   H610    1.111   .     S
C591   H611    1.110   .     S
C591   H609    1.111   .     S
C592   H613    1.104   .     S
C592   O630    1.419   .     S
C592   H614    1.117   .     S
C592   C593    1.525   .     S
C593   H617    1.111   .     S
C593   H807    1.107   .     S
C593   H1192   1.109   .     S
C594   O637    1.285   .     A
C594   O634    1.285   .     A
C594   C596    1.369   .     S
C595   O636    1.286   .     A
C595   C597    1.369   .     S
C595   O635    1.284   .     A
C597   C1172   1.167   .     S
C598   H601    1.067   .     S
C598   C728    1.363   1_455 S
C599   H612    1.083   .     S
C599   C642    1.377   .     S
C600   H618    1.078   .     S
C600   C662    1.363   .     S
H605   C1165   1.109   .     S
H615   C977    1.107   1_545 S
H622   C778    1.105   .     S
N625   Zn639   2.031   .     S
N626   Zn640   2.031   .     S
O627   Zn639   2.001   .     S
O631   Zn640   2.001   .     S
O632   Zn639   2.004   .     S
O633   Zn640   2.004   .     S
O634   Zn639   1.951   .     S
O635   Zn640   1.951   .     S
O636   Zn639   1.953   .     S
O637   Zn640   1.953   .     S
C641   O697    1.297   .     A
C641   C644    1.426   .     S
C641   O691    1.289   .     A
C642   C644    1.399   .     A
C642   H683    1.084   .     S
C643   C664    1.389   .     A
C643   C652    1.422   .     S
C643   C663    1.401   .     A
C644   C662    1.389   .     A
C645   O702    1.384   .     S
C645   N690    1.381   .     A
C645   C1032   1.429   1_545 S
C646   O692    1.383   .     S
C646   N689    1.373   .     A
C646   C839    1.449   .     S
C647   O693    1.387   .     S
C647   N690    1.374   .     A
C647   C1030   1.449   1_545 S
C648   O694    1.384   .     S
C648   N689    1.365   .     A
C648   C837    1.429   .     S
C649   H685    1.116   .     S
C649   C650    1.525   .     S
C649   O702    1.420   .     S
C649   H684    1.107   .     S
C650   H688    1.108   .     S
C650   H687    1.111   .     S
C650   H1070   1.105   1_545 S
C651   O692    1.413   .     S
C651   H667    1.109   .     S
C651   C653    1.524   .     S
C651   H666    1.105   .     S
C652   O696    1.286   .     A
C652   O695    1.298   .     A
C653   H668    1.110   .     S
C653   H670    1.110   .     S
C654   H672    1.103   .     S
C654   O693    1.412   .     S
C654   H671    1.109   .     S
C654   C655    1.524   .     S
C655   H674    1.111   .     S
C655   H675    1.110   .     S
C655   H673    1.111   .     S
C656   H677    1.104   .     S
C656   O694    1.419   .     S
C656   H678    1.117   .     S
C656   C657    1.525   .     S
C657   H681    1.111   .     S
C657   H871    1.107   .     S
C657   H1256   1.109   .     S
C658   O701    1.285   .     A
C658   O698    1.285   .     A
C658   C660    1.369   .     S
C659   O700    1.286   .     A
C659   C661    1.369   .     S
C659   O699    1.284   .     A
C661   C1236   1.167   .     S
C662   H665    1.067   .     S
C663   H676    1.083   .     S
C663   C706    1.377   .     S
C664   H682    1.078   .     S
C664   C726    1.363   .     S
H669   C1229   1.109   .     S
H679   C1041   1.107   1_545 S
H686   C842    1.105   .     S
N689   Zn703   2.031   .     S
N690   Zn704   2.031   .     S
O691   Zn703   2.001   .     S
O695   Zn704   2.001   .     S
O696   Zn703   2.004   .     S
O697   Zn704   2.004   .     S
O698   Zn703   1.951   .     S
O699   Zn704   1.951   .     S
O700   Zn703   1.953   .     S
O701   Zn704   1.953   .     S
C705   O761    1.297   .     A
C705   C708    1.426   .     S
C705   O755    1.289   .     A
C706   C708    1.399   .     A
C706   H747    1.084   .     S
C707   C728    1.389   .     A
C707   C716    1.422   .     S
C707   C727    1.401   .     A
C708   C726    1.389   .     A
C709   O766    1.384   .     S
C709   N754    1.381   .     A
C709   C1096   1.429   1_545 S
C710   O756    1.383   .     S
C710   N753    1.373   .     A
C710   C903    1.449   .     S
C711   O757    1.387   .     S
C711   N754    1.374   .     A
C711   C1094   1.449   1_545 S
C712   O758    1.384   .     S
C712   N753    1.365   .     A
C712   C901    1.429   .     S
C713   H749    1.116   .     S
C713   C714    1.525   .     S
C713   O766    1.420   .     S
C713   H748    1.107   .     S
C714   H752    1.108   .     S
C714   H751    1.111   .     S
C714   H1134   1.105   1_545 S
C715   O756    1.413   .     S
C715   H731    1.109   .     S
C715   C717    1.524   .     S
C715   H730    1.105   .     S
C716   O760    1.286   .     A
C716   O759    1.298   .     A
C717   H732    1.110   .     S
C717   H734    1.110   .     S
C718   H736    1.103   .     S
C718   O757    1.412   .     S
C718   H735    1.109   .     S
C718   C719    1.524   .     S
C719   H738    1.111   .     S
C719   H739    1.110   .     S
C719   H737    1.111   .     S
C720   H741    1.104   .     S
C720   O758    1.419   .     S
C720   H742    1.117   .     S
C720   C721    1.525   .     S
C721   H745    1.111   .     S
C721   H935    1.107   .     S
C721   H1320   1.109   .     S
C722   O765    1.285   .     A
C722   O762    1.285   .     A
C722   C724    1.369   .     S
C723   O764    1.286   .     A
C723   C725    1.369   .     S
C723   O763    1.284   .     A
C725   C1300   1.167   .     S
C726   H729    1.067   .     S
C727   H740    1.083   .     S
C727   C578    1.377   1_655 S
C728   H746    1.078   .     S
C728   C598    1.363   1_655 S
H733   C1293   1.109   .     S
H743   C1105   1.107   1_545 S
H750   C906    1.105   .     S
N753   Zn767   2.031   .     S
N754   Zn768   2.031   .     S
O755   Zn767   2.001   .     S
O759   Zn768   2.001   .     S
O760   Zn767   2.004   .     S
O761   Zn768   2.004   .     S
O762   Zn767   1.951   .     S
O763   Zn768   1.951   .     S
O764   Zn767   1.953   .     S
O765   Zn768   1.953   .     S
C769   O825    1.297   .     A
C769   C772    1.426   .     S
C769   O819    1.289   .     A
C770   C772    1.399   .     A
C770   H811    1.084   .     S
C770   C919    1.377   1_455 S
C771   C792    1.389   .     A
C771   C780    1.422   .     S
C771   C791    1.401   .     A
C772   C790    1.389   .     A
C773   O830    1.384   .     S
C773   N818    1.381   .     A
C774   O820    1.383   .     S
C774   N817    1.373   .     A
C774   C967    1.449   .     S
C775   O821    1.387   .     S
C775   N818    1.374   .     A
C776   O822    1.384   .     S
C776   N817    1.365   .     A
C776   C965    1.429   .     S
C777   H813    1.116   .     S
C777   C778    1.525   .     S
C777   O830    1.420   .     S
C777   H812    1.107   .     S
C778   H816    1.108   .     S
C778   H815    1.111   .     S
C779   O820    1.413   .     S
C779   H795    1.109   .     S
C779   C781    1.524   .     S
C779   H794    1.105   .     S
C780   O824    1.286   .     A
C780   O823    1.298   .     A
C781   H796    1.110   .     S
C781   H798    1.110   .     S
C782   H800    1.103   .     S
C782   O821    1.412   .     S
C782   H799    1.109   .     S
C782   C783    1.524   .     S
C783   H802    1.111   .     S
C783   H803    1.110   .     S
C783   H801    1.111   .     S
C784   H805    1.104   .     S
C784   O822    1.419   .     S
C784   H806    1.117   .     S
C784   C785    1.525   .     S
C785   H809    1.111   .     S
C785   H999    1.107   .     S
C785   H1384   1.109   .     S
C786   O829    1.285   .     A
C786   O826    1.285   .     A
C786   C788    1.369   .     S
C787   O828    1.286   .     A
C787   C789    1.369   .     S
C787   O827    1.284   .     A
C789   C1364   1.167   .     S
C790   H793    1.067   .     S
C790   C920    1.363   1_455 S
C791   H804    1.083   .     S
C791   C834    1.377   .     S
C792   H810    1.078   .     S
C792   C854    1.363   .     S
H797   C1357   1.109   .     S
H814   C970    1.105   .     S
N817   Zn831   2.031   .     S
N818   Zn832   2.031   .     S
O819   Zn831   2.001   .     S
O823   Zn832   2.001   .     S
O824   Zn831   2.004   .     S
O825   Zn832   2.004   .     S
O826   Zn831   1.951   .     S
O827   Zn832   1.951   .     S
O828   Zn831   1.953   .     S
O829   Zn832   1.953   .     S
C833   O889    1.297   .     A
C833   C836    1.426   .     S
C833   O883    1.289   .     A
C834   C836    1.399   .     A
C834   H875    1.084   .     S
C835   C856    1.389   .     A
C835   C844    1.422   .     S
C835   C855    1.401   .     A
C836   C854    1.389   .     A
C837   O894    1.384   .     S
C837   N882    1.381   .     A
C838   O884    1.383   .     S
C838   N881    1.373   .     A
C838   C1031   1.449   .     S
C839   O885    1.387   .     S
C839   N882    1.374   .     A
C840   O886    1.384   .     S
C840   N881    1.365   .     A
C840   C1029   1.429   .     S
C841   H877    1.116   .     S
C841   C842    1.525   .     S
C841   O894    1.420   .     S
C841   H876    1.107   .     S
C842   H880    1.108   .     S
C842   H879    1.111   .     S
C843   O884    1.413   .     S
C843   H859    1.109   .     S
C843   C845    1.524   .     S
C843   H858    1.105   .     S
C844   O888    1.286   .     A
C844   O887    1.298   .     A
C845   H860    1.110   .     S
C845   H862    1.110   .     S
C846   H864    1.103   .     S
C846   O885    1.412   .     S
C846   H863    1.109   .     S
C846   C847    1.524   .     S
C847   H866    1.111   .     S
C847   H867    1.110   .     S
C847   H865    1.111   .     S
C848   H869    1.104   .     S
C848   O886    1.419   .     S
C848   H870    1.117   .     S
C848   C849    1.525   .     S
C849   H873    1.111   .     S
C849   H1063   1.107   .     S
C849   H1448   1.109   .     S
C850   O893    1.285   .     A
C850   O890    1.285   .     A
C850   C852    1.369   .     S
C851   O892    1.286   .     A
C851   C853    1.369   .     S
C851   O891    1.284   .     A
C853   C1428   1.167   .     S
C854   H857    1.067   .     S
C855   H868    1.083   .     S
C855   C898    1.377   .     S
C856   H874    1.078   .     S
C856   C918    1.363   .     S
H861   C1421   1.109   .     S
H878   C1034   1.105   .     S
N881   Zn895   2.031   .     S
N882   Zn896   2.031   .     S
O883   Zn895   2.001   .     S
O887   Zn896   2.001   .     S
O888   Zn895   2.004   .     S
O889   Zn896   2.004   .     S
O890   Zn895   1.951   .     S
O891   Zn896   1.951   .     S
O892   Zn895   1.953   .     S
O893   Zn896   1.953   .     S
C897   O953    1.297   .     A
C897   C900    1.426   .     S
C897   O947    1.289   .     A
C898   C900    1.399   .     A
C898   H939    1.084   .     S
C899   C920    1.389   .     A
C899   C908    1.422   .     S
C899   C919    1.401   .     A
C900   C918    1.389   .     A
C901   O958    1.384   .     S
C901   N946    1.381   .     A
C902   O948    1.383   .     S
C902   N945    1.373   .     A
C902   C1095   1.449   .     S
C903   O949    1.387   .     S
C903   N946    1.374   .     A
C904   O950    1.384   .     S
C904   N945    1.365   .     A
C904   C1093   1.429   .     S
C905   H941    1.116   .     S
C905   C906    1.525   .     S
C905   O958    1.420   .     S
C905   H940    1.107   .     S
C906   H944    1.108   .     S
C906   H943    1.111   .     S
C907   O948    1.413   .     S
C907   H923    1.109   .     S
C907   C909    1.524   .     S
C907   H922    1.105   .     S
C908   O952    1.286   .     A
C908   O951    1.298   .     A
C909   H924    1.110   .     S
C909   H926    1.110   .     S
C910   H928    1.103   .     S
C910   O949    1.412   .     S
C910   H927    1.109   .     S
C910   C911    1.524   .     S
C911   H930    1.111   .     S
C911   H931    1.110   .     S
C911   H929    1.111   .     S
C912   H933    1.104   .     S
C912   O950    1.419   .     S
C912   H934    1.117   .     S
C912   C913    1.525   .     S
C913   H937    1.111   .     S
C913   H1127   1.107   .     S
C913   H1512   1.109   .     S
C914   O957    1.285   .     A
C914   O954    1.285   .     A
C914   C916    1.369   .     S
C915   O956    1.286   .     A
C915   C917    1.369   .     S
C915   O955    1.284   .     A
C917   C1492   1.167   .     S
C918   H921    1.067   .     S
C919   H932    1.083   .     S
C919   C770    1.377   1_655 S
C920   H938    1.078   .     S
C920   C790    1.363   1_655 S
H925   C1485   1.109   .     S
H942   C1098   1.105   .     S
N945   Zn959   2.031   .     S
N946   Zn960   2.031   .     S
O947   Zn959   2.001   .     S
O951   Zn960   2.001   .     S
O952   Zn959   2.004   .     S
O953   Zn960   2.004   .     S
O954   Zn959   1.951   .     S
O955   Zn960   1.951   .     S
O956   Zn959   1.953   .     S
O957   Zn960   1.953   .     S
C961   O1017   1.297   .     A
C961   C964    1.426   .     S
C961   O1011   1.289   .     A
C962   C964    1.399   .     A
C962   H1003   1.084   .     S
C962   C1111   1.377   1_455 S
C963   C984    1.389   .     A
C963   C972    1.422   .     S
C963   C983    1.401   .     A
C964   C982    1.389   .     A
C965   O1022   1.384   .     S
C965   N1010   1.381   .     A
C966   O1012   1.383   .     S
C966   N1009   1.373   .     A
C966   C583    1.449   1_565 S
C967   O1013   1.387   .     S
C967   N1010   1.374   .     A
C968   O1014   1.384   .     S
C968   N1009   1.365   .     A
C968   C581    1.429   1_565 S
C969   H1005   1.116   .     S
C969   C970    1.525   .     S
C969   O1022   1.420   .     S
C969   H1004   1.107   .     S
C970   H1008   1.108   .     S
C970   H1007   1.111   .     S
C971   O1012   1.413   .     S
C971   H987    1.109   .     S
C971   C973    1.524   .     S
C971   H986    1.105   .     S
C972   O1016   1.286   .     A
C972   O1015   1.298   .     A
C973   H988    1.110   .     S
C973   H990    1.110   .     S
C974   H992    1.103   .     S
C974   O1013   1.412   .     S
C974   H991    1.109   .     S
C974   C975    1.524   .     S
C975   H994    1.111   .     S
C975   H995    1.110   .     S
C975   H993    1.111   .     S
C976   H997    1.104   .     S
C976   O1014   1.419   .     S
C976   H998    1.117   .     S
C976   C977    1.525   .     S
C977   H1001   1.111   .     S
C977   H615    1.107   1_565 S
C977   H1576   1.109   .     S
C978   O1021   1.285   .     A
C978   O1018   1.285   .     A
C978   C980    1.369   .     S
C979   O1020   1.286   .     A
C979   C981    1.369   .     S
C979   O1019   1.284   .     A
C981   C1556   1.167   .     S
C982   H985    1.067   .     S
C982   C1112   1.363   1_455 S
C983   H996    1.083   .     S
C983   C1026   1.377   .     S
C984   H1002   1.078   .     S
C984   C1046   1.363   .     S
H989   C1549   1.109   .     S
H1006  C586    1.105   1_565 S
N1009  Zn1023  2.031   .     S
N1010  Zn1024  2.031   .     S
O1011  Zn1023  2.001   .     S
O1015  Zn1024  2.001   .     S
O1016  Zn1023  2.004   .     S
O1017  Zn1024  2.004   .     S
O1018  Zn1023  1.951   .     S
O1019  Zn1024  1.951   .     S
O1020  Zn1023  1.953   .     S
O1021  Zn1024  1.953   .     S
C1025  O1081   1.297   .     A
C1025  C1028   1.426   .     S
C1025  O1075   1.289   .     A
C1026  C1028   1.399   .     A
C1026  H1067   1.084   .     S
C1027  C1048   1.389   .     A
C1027  C1036   1.422   .     S
C1027  C1047   1.401   .     A
C1028  C1046   1.389   .     A
C1029  O1086   1.384   .     S
C1029  N1074   1.381   .     A
C1030  O1076   1.383   .     S
C1030  N1073   1.373   .     A
C1030  C647    1.449   1_565 S
C1031  O1077   1.387   .     S
C1031  N1074   1.374   .     A
C1032  O1078   1.384   .     S
C1032  N1073   1.365   .     A
C1032  C645    1.429   1_565 S
C1033  H1069   1.116   .     S
C1033  C1034   1.525   .     S
C1033  O1086   1.420   .     S
C1033  H1068   1.107   .     S
C1034  H1072   1.108   .     S
C1034  H1071   1.111   .     S
C1035  O1076   1.413   .     S
C1035  H1051   1.109   .     S
C1035  C1037   1.524   .     S
C1035  H1050   1.105   .     S
C1036  O1080   1.286   .     A
C1036  O1079   1.298   .     A
C1037  H1052   1.110   .     S
C1037  H1054   1.110   .     S
C1038  H1056   1.103   .     S
C1038  O1077   1.412   .     S
C1038  H1055   1.109   .     S
C1038  C1039   1.524   .     S
C1039  H1058   1.111   .     S
C1039  H1059   1.110   .     S
C1039  H1057   1.111   .     S
C1040  H1061   1.104   .     S
C1040  O1078   1.419   .     S
C1040  H1062   1.117   .     S
C1040  C1041   1.525   .     S
C1041  H1065   1.111   .     S
C1041  H679    1.107   1_565 S
C1041  H1640   1.109   .     S
C1042  O1085   1.285   .     A
C1042  O1082   1.285   .     A
C1042  C1044   1.369   .     S
C1043  O1084   1.286   .     A
C1043  C1045   1.369   .     S
C1043  O1083   1.284   .     A
C1045  C1620   1.167   .     S
C1046  H1049   1.067   .     S
C1047  H1060   1.083   .     S
C1047  C1090   1.377   .     S
C1048  H1066   1.078   .     S
C1048  C1110   1.363   .     S
H1053  C1613   1.109   .     S
H1070  C650    1.105   1_565 S
N1073  Zn1087  2.031   .     S
N1074  Zn1088  2.031   .     S
O1075  Zn1087  2.001   .     S
O1079  Zn1088  2.001   .     S
O1080  Zn1087  2.004   .     S
O1081  Zn1088  2.004   .     S
O1082  Zn1087  1.951   .     S
O1083  Zn1088  1.951   .     S
O1084  Zn1087  1.953   .     S
O1085  Zn1088  1.953   .     S
C1089  O1145   1.297   .     A
C1089  C1092   1.426   .     S
C1089  O1139   1.289   .     A
C1090  C1092   1.399   .     A
C1090  H1131   1.084   .     S
C1091  C1112   1.389   .     A
C1091  C1100   1.422   .     S
C1091  C1111   1.401   .     A
C1092  C1110   1.389   .     A
C1093  O1150   1.384   .     S
C1093  N1138   1.381   .     A
C1094  O1140   1.383   .     S
C1094  N1137   1.373   .     A
C1094  C711    1.449   1_565 S
C1095  O1141   1.387   .     S
C1095  N1138   1.374   .     A
C1096  O1142   1.384   .     S
C1096  N1137   1.365   .     A
C1096  C709    1.429   1_565 S
C1097  H1133   1.116   .     S
C1097  C1098   1.525   .     S
C1097  O1150   1.420   .     S
C1097  H1132   1.107   .     S
C1098  H1136   1.108   .     S
C1098  H1135   1.111   .     S
C1099  O1140   1.413   .     S
C1099  H1115   1.109   .     S
C1099  C1101   1.524   .     S
C1099  H1114   1.105   .     S
C1100  O1144   1.286   .     A
C1100  O1143   1.298   .     A
C1101  H1116   1.110   .     S
C1101  H1118   1.110   .     S
C1102  H1120   1.103   .     S
C1102  O1141   1.412   .     S
C1102  H1119   1.109   .     S
C1102  C1103   1.524   .     S
C1103  H1122   1.111   .     S
C1103  H1123   1.110   .     S
C1103  H1121   1.111   .     S
C1104  H1125   1.104   .     S
C1104  O1142   1.419   .     S
C1104  H1126   1.117   .     S
C1104  C1105   1.525   .     S
C1105  H1129   1.111   .     S
C1105  H743    1.107   1_565 S
C1105  H1704   1.109   .     S
C1106  O1149   1.285   .     A
C1106  O1146   1.285   .     A
C1106  C1108   1.369   .     S
C1107  O1148   1.286   .     A
C1107  C1109   1.369   .     S
C1107  O1147   1.284   .     A
C1109  C1684   1.167   .     S
C1110  H1113   1.067   .     S
C1111  H1124   1.083   .     S
C1111  C962    1.377   1_655 S
C1112  H1130   1.078   .     S
C1112  C982    1.363   1_655 S
H1117  C1677   1.109   .     S
H1134  C714    1.105   1_565 S
N1137  Zn1151  2.031   .     S
N1138  Zn1152  2.031   .     S
O1139  Zn1151  2.001   .     S
O1143  Zn1152  2.001   .     S
O1144  Zn1151  2.004   .     S
O1145  Zn1152  2.004   .     S
O1146  Zn1151  1.951   .     S
O1147  Zn1152  1.951   .     S
O1148  Zn1151  1.953   .     S
O1149  Zn1152  1.953   .     S
C1153  O1209   1.297   .     A
C1153  C1156   1.426   .     S
C1153  O1203   1.289   .     A
C1154  C1156   1.399   .     A
C1154  H1195   1.084   .     S
C1154  C1303   1.377   1_455 S
C1155  C1176   1.389   .     A
C1155  C1164   1.422   .     S
C1155  C1175   1.401   .     A
C1156  C1174   1.389   .     A
C1157  O1214   1.384   .     S
C1157  N1202   1.381   .     A
C1157  C1544   1.429   1_545 S
C1158  O1204   1.383   .     S
C1158  N1201   1.373   .     A
C1158  C1351   1.449   .     S
C1159  O1205   1.387   .     S
C1159  N1202   1.374   .     A
C1159  C1542   1.449   1_545 S
C1160  O1206   1.384   .     S
C1160  N1201   1.365   .     A
C1160  C1349   1.429   .     S
C1161  H1197   1.116   .     S
C1161  C1162   1.525   .     S
C1161  O1214   1.420   .     S
C1161  H1196   1.107   .     S
C1162  H1200   1.108   .     S
C1162  H1199   1.111   .     S
C1162  H1582   1.105   1_545 S
C1163  O1204   1.413   .     S
C1163  H1179   1.109   .     S
C1163  C1165   1.524   .     S
C1163  H1178   1.105   .     S
C1164  O1208   1.286   .     A
C1164  O1207   1.298   .     A
C1165  H1180   1.110   .     S
C1165  H1182   1.110   .     S
C1166  H1184   1.103   .     S
C1166  O1205   1.412   .     S
C1166  H1183   1.109   .     S
C1166  C1167   1.524   .     S
C1167  H1186   1.111   .     S
C1167  H1187   1.110   .     S
C1167  H1185   1.111   .     S
C1168  H1189   1.104   .     S
C1168  O1206   1.419   .     S
C1168  H1190   1.117   .     S
C1168  C1169   1.525   .     S
C1169  H1193   1.111   .     S
C1169  H1383   1.107   .     S
C1169  H40     1.109   1_556 S
C1170  O1213   1.285   .     A
C1170  O1210   1.285   .     A
C1170  C1172   1.369   .     S
C1171  O1212   1.286   .     A
C1171  C1173   1.369   .     S
C1171  O1211   1.284   .     A
C1173  C20     1.167   1_556 S
C1174  H1177   1.067   .     S
C1174  C1304   1.363   1_455 S
C1175  H1188   1.083   .     S
C1175  C1218   1.377   .     S
C1176  H1194   1.078   .     S
C1176  C1238   1.363   .     S
H1181  C13     1.109   1_556 S
H1191  C1553   1.107   1_545 S
H1198  C1354   1.105   .     S
N1201  Zn1215  2.031   .     S
N1202  Zn1216  2.031   .     S
O1203  Zn1215  2.001   .     S
O1207  Zn1216  2.001   .     S
O1208  Zn1215  2.004   .     S
O1209  Zn1216  2.004   .     S
O1210  Zn1215  1.951   .     S
O1211  Zn1216  1.951   .     S
O1212  Zn1215  1.953   .     S
O1213  Zn1216  1.953   .     S
C1217  O1273   1.297   .     A
C1217  C1220   1.426   .     S
C1217  O1267   1.289   .     A
C1218  C1220   1.399   .     A
C1218  H1259   1.084   .     S
C1219  C1240   1.389   .     A
C1219  C1228   1.422   .     S
C1219  C1239   1.401   .     A
C1220  C1238   1.389   .     A
C1221  O1278   1.384   .     S
C1221  N1266   1.381   .     A
C1221  C1608   1.429   1_545 S
C1222  O1268   1.383   .     S
C1222  N1265   1.373   .     A
C1222  C1415   1.449   .     S
C1223  O1269   1.387   .     S
C1223  N1266   1.374   .     A
C1223  C1606   1.449   1_545 S
C1224  O1270   1.384   .     S
C1224  N1265   1.365   .     A
C1224  C1413   1.429   .     S
C1225  H1261   1.116   .     S
C1225  C1226   1.525   .     S
C1225  O1278   1.420   .     S
C1225  H1260   1.107   .     S
C1226  H1264   1.108   .     S
C1226  H1263   1.111   .     S
C1226  H1646   1.105   1_545 S
C1227  O1268   1.413   .     S
C1227  H1243   1.109   .     S
C1227  C1229   1.524   .     S
C1227  H1242   1.105   .     S
C1228  O1272   1.286   .     A
C1228  O1271   1.298   .     A
C1229  H1244   1.110   .     S
C1229  H1246   1.110   .     S
C1230  H1248   1.103   .     S
C1230  O1269   1.412   .     S
C1230  H1247   1.109   .     S
C1230  C1231   1.524   .     S
C1231  H1250   1.111   .     S
C1231  H1251   1.110   .     S
C1231  H1249   1.111   .     S
C1232  H1253   1.104   .     S
C1232  O1270   1.419   .     S
C1232  H1254   1.117   .     S
C1232  C1233   1.525   .     S
C1233  H1257   1.111   .     S
C1233  H1447   1.107   .     S
C1233  H104    1.109   1_556 S
C1234  O1277   1.285   .     A
C1234  O1274   1.285   .     A
C1234  C1236   1.369   .     S
C1235  O1276   1.286   .     A
C1235  C1237   1.369   .     S
C1235  O1275   1.284   .     A
C1237  C84     1.167   1_556 S
C1238  H1241   1.067   .     S
C1239  H1252   1.083   .     S
C1239  C1282   1.377   .     S
C1240  H1258   1.078   .     S
C1240  C1302   1.363   .     S
H1245  C77     1.109   1_556 S
H1255  C1617   1.107   1_545 S
H1262  C1418   1.105   .     S
N1265  Zn1279  2.031   .     S
N1266  Zn1280  2.031   .     S
O1267  Zn1279  2.001   .     S
O1271  Zn1280  2.001   .     S
O1272  Zn1279  2.004   .     S
O1273  Zn1280  2.004   .     S
O1274  Zn1279  1.951   .     S
O1275  Zn1280  1.951   .     S
O1276  Zn1279  1.953   .     S
O1277  Zn1280  1.953   .     S
C1281  O1337   1.297   .     A
C1281  C1284   1.426   .     S
C1281  O1331   1.289   .     A
C1282  C1284   1.399   .     A
C1282  H1323   1.084   .     S
C1283  C1304   1.389   .     A
C1283  C1292   1.422   .     S
C1283  C1303   1.401   .     A
C1284  C1302   1.389   .     A
C1285  O1342   1.384   .     S
C1285  N1330   1.381   .     A
C1285  C1672   1.429   1_545 S
C1286  O1332   1.383   .     S
C1286  N1329   1.373   .     A
C1286  C1479   1.449   .     S
C1287  O1333   1.387   .     S
C1287  N1330   1.374   .     A
C1287  C1670   1.449   1_545 S
C1288  O1334   1.384   .     S
C1288  N1329   1.365   .     A
C1288  C1477   1.429   .     S
C1289  H1325   1.116   .     S
C1289  C1290   1.525   .     S
C1289  O1342   1.420   .     S
C1289  H1324   1.107   .     S
C1290  H1328   1.108   .     S
C1290  H1327   1.111   .     S
C1290  H1710   1.105   1_545 S
C1291  O1332   1.413   .     S
C1291  H1307   1.109   .     S
C1291  C1293   1.524   .     S
C1291  H1306   1.105   .     S
C1292  O1336   1.286   .     A
C1292  O1335   1.298   .     A
C1293  H1308   1.110   .     S
C1293  H1310   1.110   .     S
C1294  H1312   1.103   .     S
C1294  O1333   1.412   .     S
C1294  H1311   1.109   .     S
C1294  C1295   1.524   .     S
C1295  H1314   1.111   .     S
C1295  H1315   1.110   .     S
C1295  H1313   1.111   .     S
C1296  H1317   1.104   .     S
C1296  O1334   1.419   .     S
C1296  H1318   1.117   .     S
C1296  C1297   1.525   .     S
C1297  H1321   1.111   .     S
C1297  H1511   1.107   .     S
C1297  H168    1.109   1_556 S
C1298  O1341   1.285   .     A
C1298  O1338   1.285   .     A
C1298  C1300   1.369   .     S
C1299  O1340   1.286   .     A
C1299  C1301   1.369   .     S
C1299  O1339   1.284   .     A
C1301  C148    1.167   1_556 S
C1302  H1305   1.067   .     S
C1303  H1316   1.083   .     S
C1303  C1154   1.377   1_655 S
C1304  H1322   1.078   .     S
C1304  C1174   1.363   1_655 S
H1309  C141    1.109   1_556 S
H1319  C1681   1.107   1_545 S
H1326  C1482   1.105   .     S
N1329  Zn1343  2.031   .     S
N1330  Zn1344  2.031   .     S
O1331  Zn1343  2.001   .     S
O1335  Zn1344  2.001   .     S
O1336  Zn1343  2.004   .     S
O1337  Zn1344  2.004   .     S
O1338  Zn1343  1.951   .     S
O1339  Zn1344  1.951   .     S
O1340  Zn1343  1.953   .     S
O1341  Zn1344  1.953   .     S
C1345  O1401   1.297   .     A
C1345  C1348   1.426   .     S
C1345  O1395   1.289   .     A
C1346  C1348   1.399   .     A
C1346  H1387   1.084   .     S
C1346  C1495   1.377   1_455 S
C1347  C1368   1.389   .     A
C1347  C1356   1.422   .     S
C1347  C1367   1.401   .     A
C1348  C1366   1.389   .     A
C1349  O1406   1.384   .     S
C1349  N1394   1.381   .     A
C1350  O1396   1.383   .     S
C1350  N1393   1.373   .     A
C1350  C1543   1.449   .     S
C1351  O1397   1.387   .     S
C1351  N1394   1.374   .     A
C1352  O1398   1.384   .     S
C1352  N1393   1.365   .     A
C1352  C1541   1.429   .     S
C1353  H1389   1.116   .     S
C1353  C1354   1.525   .     S
C1353  O1406   1.420   .     S
C1353  H1388   1.107   .     S
C1354  H1392   1.108   .     S
C1354  H1391   1.111   .     S
C1355  O1396   1.413   .     S
C1355  H1371   1.109   .     S
C1355  C1357   1.524   .     S
C1355  H1370   1.105   .     S
C1356  O1400   1.286   .     A
C1356  O1399   1.298   .     A
C1357  H1372   1.110   .     S
C1357  H1374   1.110   .     S
C1358  H1376   1.103   .     S
C1358  O1397   1.412   .     S
C1358  H1375   1.109   .     S
C1358  C1359   1.524   .     S
C1359  H1378   1.111   .     S
C1359  H1379   1.110   .     S
C1359  H1377   1.111   .     S
C1360  H1381   1.104   .     S
C1360  O1398   1.419   .     S
C1360  H1382   1.117   .     S
C1360  C1361   1.525   .     S
C1361  H1385   1.111   .     S
C1361  H1575   1.107   .     S
C1361  H232    1.109   1_556 S
C1362  O1405   1.285   .     A
C1362  O1402   1.285   .     A
C1362  C1364   1.369   .     S
C1363  O1404   1.286   .     A
C1363  C1365   1.369   .     S
C1363  O1403   1.284   .     A
C1365  C212    1.167   1_556 S
C1366  H1369   1.067   .     S
C1366  C1496   1.363   1_455 S
C1367  H1380   1.083   .     S
C1367  C1410   1.377   .     S
C1368  H1386   1.078   .     S
C1368  C1430   1.363   .     S
H1373  C205    1.109   1_556 S
H1390  C1546   1.105   .     S
N1393  Zn1407  2.031   .     S
N1394  Zn1408  2.031   .     S
O1395  Zn1407  2.001   .     S
O1399  Zn1408  2.001   .     S
O1400  Zn1407  2.004   .     S
O1401  Zn1408  2.004   .     S
O1402  Zn1407  1.951   .     S
O1403  Zn1408  1.951   .     S
O1404  Zn1407  1.953   .     S
O1405  Zn1408  1.953   .     S
C1409  O1465   1.297   .     A
C1409  C1412   1.426   .     S
C1409  O1459   1.289   .     A
C1410  C1412   1.399   .     A
C1410  H1451   1.084   .     S
C1411  C1432   1.389   .     A
C1411  C1420   1.422   .     S
C1411  C1431   1.401   .     A
C1412  C1430   1.389   .     A
C1413  O1470   1.384   .     S
C1413  N1458   1.381   .     A
C1414  O1460   1.383   .     S
C1414  N1457   1.373   .     A
C1414  C1607   1.449   .     S
C1415  O1461   1.387   .     S
C1415  N1458   1.374   .     A
C1416  O1462   1.384   .     S
C1416  N1457   1.365   .     A
C1416  C1605   1.429   .     S
C1417  H1453   1.116   .     S
C1417  C1418   1.525   .     S
C1417  O1470   1.420   .     S
C1417  H1452   1.107   .     S
C1418  H1456   1.108   .     S
C1418  H1455   1.111   .     S
C1419  O1460   1.413   .     S
C1419  H1435   1.109   .     S
C1419  C1421   1.524   .     S
C1419  H1434   1.105   .     S
C1420  O1464   1.286   .     A
C1420  O1463   1.298   .     A
C1421  H1436   1.110   .     S
C1421  H1438   1.110   .     S
C1422  H1440   1.103   .     S
C1422  O1461   1.412   .     S
C1422  H1439   1.109   .     S
C1422  C1423   1.524   .     S
C1423  H1442   1.111   .     S
C1423  H1443   1.110   .     S
C1423  H1441   1.111   .     S
C1424  H1445   1.104   .     S
C1424  O1462   1.419   .     S
C1424  H1446   1.117   .     S
C1424  C1425   1.525   .     S
C1425  H1449   1.111   .     S
C1425  H1639   1.107   .     S
C1425  H296    1.109   1_556 S
C1426  O1469   1.285   .     A
C1426  O1466   1.285   .     A
C1426  C1428   1.369   .     S
C1427  O1468   1.286   .     A
C1427  C1429   1.369   .     S
C1427  O1467   1.284   .     A
C1429  C276    1.167   1_556 S
C1430  H1433   1.067   .     S
C1431  H1444   1.083   .     S
C1431  C1474   1.377   .     S
C1432  H1450   1.078   .     S
C1432  C1494   1.363   .     S
H1437  C269    1.109   1_556 S
H1454  C1610   1.105   .     S
N1457  Zn1471  2.031   .     S
N1458  Zn1472  2.031   .     S
O1459  Zn1471  2.001   .     S
O1463  Zn1472  2.001   .     S
O1464  Zn1471  2.004   .     S
O1465  Zn1472  2.004   .     S
O1466  Zn1471  1.951   .     S
O1467  Zn1472  1.951   .     S
O1468  Zn1471  1.953   .     S
O1469  Zn1472  1.953   .     S
C1473  O1529   1.297   .     A
C1473  C1476   1.426   .     S
C1473  O1523   1.289   .     A
C1474  C1476   1.399   .     A
C1474  H1515   1.084   .     S
C1475  C1496   1.389   .     A
C1475  C1484   1.422   .     S
C1475  C1495   1.401   .     A
C1476  C1494   1.389   .     A
C1477  O1534   1.384   .     S
C1477  N1522   1.381   .     A
C1478  O1524   1.383   .     S
C1478  N1521   1.373   .     A
C1478  C1671   1.449   .     S
C1479  O1525   1.387   .     S
C1479  N1522   1.374   .     A
C1480  O1526   1.384   .     S
C1480  N1521   1.365   .     A
C1480  C1669   1.429   .     S
C1481  H1517   1.116   .     S
C1481  C1482   1.525   .     S
C1481  O1534   1.420   .     S
C1481  H1516   1.107   .     S
C1482  H1520   1.108   .     S
C1482  H1519   1.111   .     S
C1483  O1524   1.413   .     S
C1483  H1499   1.109   .     S
C1483  C1485   1.524   .     S
C1483  H1498   1.105   .     S
C1484  O1528   1.286   .     A
C1484  O1527   1.298   .     A
C1485  H1500   1.110   .     S
C1485  H1502   1.110   .     S
C1486  H1504   1.103   .     S
C1486  O1525   1.412   .     S
C1486  H1503   1.109   .     S
C1486  C1487   1.524   .     S
C1487  H1506   1.111   .     S
C1487  H1507   1.110   .     S
C1487  H1505   1.111   .     S
C1488  H1509   1.104   .     S
C1488  O1526   1.419   .     S
C1488  H1510   1.117   .     S
C1488  C1489   1.525   .     S
C1489  H1513   1.111   .     S
C1489  H1703   1.107   .     S
C1489  H360    1.109   1_556 S
C1490  O1533   1.285   .     A
C1490  O1530   1.285   .     A
C1490  C1492   1.369   .     S
C1491  O1532   1.286   .     A
C1491  C1493   1.369   .     S
C1491  O1531   1.284   .     A
C1493  C340    1.167   1_556 S
C1494  H1497   1.067   .     S
C1495  H1508   1.083   .     S
C1495  C1346   1.377   1_655 S
C1496  H1514   1.078   .     S
C1496  C1366   1.363   1_655 S
H1501  C333    1.109   1_556 S
H1518  C1674   1.105   .     S
N1521  Zn1535  2.031   .     S
N1522  Zn1536  2.031   .     S
O1523  Zn1535  2.001   .     S
O1527  Zn1536  2.001   .     S
O1528  Zn1535  2.004   .     S
O1529  Zn1536  2.004   .     S
O1530  Zn1535  1.951   .     S
O1531  Zn1536  1.951   .     S
O1532  Zn1535  1.953   .     S
O1533  Zn1536  1.953   .     S
C1537  O1593   1.297   .     A
C1537  C1540   1.426   .     S
C1537  O1587   1.289   .     A
C1538  C1540   1.399   .     A
C1538  H1579   1.084   .     S
C1538  C1687   1.377   1_455 S
C1539  C1560   1.389   .     A
C1539  C1548   1.422   .     S
C1539  C1559   1.401   .     A
C1540  C1558   1.389   .     A
C1541  O1598   1.384   .     S
C1541  N1586   1.381   .     A
C1542  O1588   1.383   .     S
C1542  N1585   1.373   .     A
C1542  C1159   1.449   1_565 S
C1543  O1589   1.387   .     S
C1543  N1586   1.374   .     A
C1544  O1590   1.384   .     S
C1544  N1585   1.365   .     A
C1544  C1157   1.429   1_565 S
C1545  H1581   1.116   .     S
C1545  C1546   1.525   .     S
C1545  O1598   1.420   .     S
C1545  H1580   1.107   .     S
C1546  H1584   1.108   .     S
C1546  H1583   1.111   .     S
C1547  O1588   1.413   .     S
C1547  H1563   1.109   .     S
C1547  C1549   1.524   .     S
C1547  H1562   1.105   .     S
C1548  O1592   1.286   .     A
C1548  O1591   1.298   .     A
C1549  H1564   1.110   .     S
C1549  H1566   1.110   .     S
C1550  H1568   1.103   .     S
C1550  O1589   1.412   .     S
C1550  H1567   1.109   .     S
C1550  C1551   1.524   .     S
C1551  H1570   1.111   .     S
C1551  H1571   1.110   .     S
C1551  H1569   1.111   .     S
C1552  H1573   1.104   .     S
C1552  O1590   1.419   .     S
C1552  H1574   1.117   .     S
C1552  C1553   1.525   .     S
C1553  H1577   1.111   .     S
C1553  H1191   1.107   1_565 S
C1553  H424    1.109   1_556 S
C1554  O1597   1.285   .     A
C1554  O1594   1.285   .     A
C1554  C1556   1.369   .     S
C1555  O1596   1.286   .     A
C1555  C1557   1.369   .     S
C1555  O1595   1.284   .     A
C1557  C404    1.167   1_556 S
C1558  H1561   1.067   .     S
C1558  C1688   1.363   1_455 S
C1559  H1572   1.083   .     S
C1559  C1602   1.377   .     S
C1560  H1578   1.078   .     S
C1560  C1622   1.363   .     S
H1565  C397    1.109   1_556 S
H1582  C1162   1.105   1_565 S
N1585  Zn1599  2.031   .     S
N1586  Zn1600  2.031   .     S
O1587  Zn1599  2.001   .     S
O1591  Zn1600  2.001   .     S
O1592  Zn1599  2.004   .     S
O1593  Zn1600  2.004   .     S
O1594  Zn1599  1.951   .     S
O1595  Zn1600  1.951   .     S
O1596  Zn1599  1.953   .     S
O1597  Zn1600  1.953   .     S
C1601  O1657   1.297   .     A
C1601  C1604   1.426   .     S
C1601  O1651   1.289   .     A
C1602  C1604   1.399   .     A
C1602  H1643   1.084   .     S
C1603  C1624   1.389   .     A
C1603  C1612   1.422   .     S
C1603  C1623   1.401   .     A
C1604  C1622   1.389   .     A
C1605  O1662   1.384   .     S
C1605  N1650   1.381   .     A
C1606  O1652   1.383   .     S
C1606  N1649   1.373   .     A
C1606  C1223   1.449   1_565 S
C1607  O1653   1.387   .     S
C1607  N1650   1.374   .     A
C1608  O1654   1.384   .     S
C1608  N1649   1.365   .     A
C1608  C1221   1.429   1_565 S
C1609  H1645   1.116   .     S
C1609  C1610   1.525   .     S
C1609  O1662   1.420   .     S
C1609  H1644   1.107   .     S
C1610  H1648   1.108   .     S
C1610  H1647   1.111   .     S
C1611  O1652   1.413   .     S
C1611  H1627   1.109   .     S
C1611  C1613   1.524   .     S
C1611  H1626   1.105   .     S
C1612  O1656   1.286   .     A
C1612  O1655   1.298   .     A
C1613  H1628   1.110   .     S
C1613  H1630   1.110   .     S
C1614  H1632   1.103   .     S
C1614  O1653   1.412   .     S
C1614  H1631   1.109   .     S
C1614  C1615   1.524   .     S
C1615  H1634   1.111   .     S
C1615  H1635   1.110   .     S
C1615  H1633   1.111   .     S
C1616  H1637   1.104   .     S
C1616  O1654   1.419   .     S
C1616  H1638   1.117   .     S
C1616  C1617   1.525   .     S
C1617  H1641   1.111   .     S
C1617  H1255   1.107   1_565 S
C1617  H488    1.109   1_556 S
C1618  O1661   1.285   .     A
C1618  O1658   1.285   .     A
C1618  C1620   1.369   .     S
C1619  O1660   1.286   .     A
C1619  C1621   1.369   .     S
C1619  O1659   1.284   .     A
C1621  C468    1.167   1_556 S
C1622  H1625   1.067   .     S
C1623  H1636   1.083   .     S
C1623  C1666   1.377   .     S
C1624  H1642   1.078   .     S
C1624  C1686   1.363   .     S
H1629  C461    1.109   1_556 S
H1646  C1226   1.105   1_565 S
N1649  Zn1663  2.031   .     S
N1650  Zn1664  2.031   .     S
O1651  Zn1663  2.001   .     S
O1655  Zn1664  2.001   .     S
O1656  Zn1663  2.004   .     S
O1657  Zn1664  2.004   .     S
O1658  Zn1663  1.951   .     S
O1659  Zn1664  1.951   .     S
O1660  Zn1663  1.953   .     S
O1661  Zn1664  1.953   .     S
C1665  O1721   1.297   .     A
C1665  C1668   1.426   .     S
C1665  O1715   1.289   .     A
C1666  C1668   1.399   .     A
C1666  H1707   1.084   .     S
C1667  C1688   1.389   .     A
C1667  C1676   1.422   .     S
C1667  C1687   1.401   .     A
C1668  C1686   1.389   .     A
C1669  O1726   1.384   .     S
C1669  N1714   1.381   .     A
C1670  O1716   1.383   .     S
C1670  N1713   1.373   .     A
C1670  C1287   1.449   1_565 S
C1671  O1717   1.387   .     S
C1671  N1714   1.374   .     A
C1672  O1718   1.384   .     S
C1672  N1713   1.365   .     A
C1672  C1285   1.429   1_565 S
C1673  H1709   1.116   .     S
C1673  C1674   1.525   .     S
C1673  O1726   1.420   .     S
C1673  H1708   1.107   .     S
C1674  H1712   1.108   .     S
C1674  H1711   1.111   .     S
C1675  O1716   1.413   .     S
C1675  H1691   1.109   .     S
C1675  C1677   1.524   .     S
C1675  H1690   1.105   .     S
C1676  O1720   1.286   .     A
C1676  O1719   1.298   .     A
C1677  H1692   1.110   .     S
C1677  H1694   1.110   .     S
C1678  H1696   1.103   .     S
C1678  O1717   1.412   .     S
C1678  H1695   1.109   .     S
C1678  C1679   1.524   .     S
C1679  H1698   1.111   .     S
C1679  H1699   1.110   .     S
C1679  H1697   1.111   .     S
C1680  H1701   1.104   .     S
C1680  O1718   1.419   .     S
C1680  H1702   1.117   .     S
C1680  C1681   1.525   .     S
C1681  H1705   1.111   .     S
C1681  H1319   1.107   1_565 S
C1681  H552    1.109   1_556 S
C1682  O1725   1.285   .     A
C1682  O1722   1.285   .     A
C1682  C1684   1.369   .     S
C1683  O1724   1.286   .     A
C1683  C1685   1.369   .     S
C1683  O1723   1.284   .     A
C1685  C532    1.167   1_556 S
C1686  H1689   1.067   .     S
C1687  H1700   1.083   .     S
C1687  C1538   1.377   1_655 S
C1688  H1706   1.078   .     S
C1688  C1558   1.363   1_655 S
H1693  C525    1.109   1_556 S
H1710  C1290   1.105   1_565 S
N1713  Zn1727  2.031   .     S
N1714  Zn1728  2.031   .     S
O1715  Zn1727  2.001   .     S
O1719  Zn1728  2.001   .     S
O1720  Zn1727  2.004   .     S
O1721  Zn1728  2.004   .     S
O1722  Zn1727  1.951   .     S
O1723  Zn1728  1.951   .     S
O1724  Zn1727  1.953   .     S
O1725  Zn1728  1.953   .     S
