data_str_m3_o1_o18_pcu_sym.38
_audit_creation_date              2020-01-03
_audit_creation_method            'Materials Studio'
_symmetry_space_group_name_H-M    'P1'
_symmetry_Int_Tables_number       1
_symmetry_cell_setting            triclinic
loop_
_symmetry_equiv_pos_as_xyz
  x,y,z
_cell_length_a                    30.1530
_cell_length_b                    31.6447
_cell_length_c                    30.9541
_cell_angle_alpha                 92.2689
_cell_angle_beta                  66.3219
_cell_angle_gamma                 89.9373
loop_
_atom_site_label
_atom_site_type_symbol
_atom_site_fract_x
_atom_site_fract_y
_atom_site_fract_z
_atom_site_U_iso_or_equiv
_atom_site_adp_type
_atom_site_occupancy
C1     C     0.16670   0.24632   0.24991   0.00000  Uiso   1.00
C2     C     0.18393   0.31033   0.20641   0.00000  Uiso   1.00
C3     C     0.16649   0.04285   0.25056   0.00000  Uiso   1.00
C4     C     0.16684   0.29048   0.24944   0.00000  Uiso   1.00
C5     C     0.31978   0.13598   0.22527   0.00000  Uiso   1.00
C6     C     0.01356   0.19736   0.27473   0.00000  Uiso   1.00
C7     C     0.03424   0.13618   0.22489   0.00000  Uiso   1.00
C8     C     0.29910   0.19715   0.27511   0.00000  Uiso   1.00
C9     C     0.13585   0.16555   0.33810   0.00000  Uiso   1.00
C10    C     0.19749   0.16778   0.16190   0.00000  Uiso   1.00
C11    C     0.11611   0.16406   0.38972   0.00000  Uiso   1.00
C12    C     0.16664   0.08701   0.25009   0.00000  Uiso   1.00
C13    C     0.21721   0.16927   0.11027   0.00000  Uiso   1.00
C14    C     0.05673   0.18788   0.46601   0.00000  Uiso   1.00
C15    C     0.27659   0.14544   0.03399   0.00000  Uiso   1.00
C16    C     0.06902   0.17769   0.41839   0.00000  Uiso   1.00
C17    C     0.26430   0.15565   0.08160   0.00000  Uiso   1.00
C18    C     0.14762   0.15326   0.41053   0.00000  Uiso   1.00
C19    C     0.18570   0.18005   0.08947   0.00000  Uiso   1.00
C20    C     0.13571   0.16144   0.45862   0.00000  Uiso   1.00
C21    C     0.19760   0.17187   0.04138   0.00000  Uiso   1.00
C22    C     0.09118   0.18276   0.48528   0.00000  Uiso   1.00
C23    C     0.12188   0.20561   0.04297   0.00000  Uiso   1.00
C24    C     0.24213   0.15055   0.01473   0.00000  Uiso   1.00
C25    C     0.17002   0.15514   0.47861   0.00000  Uiso   1.00
C26    C     0.16329   0.17817   0.02140   0.00000  Uiso   1.00
C27    C     0.30828   0.10207   0.19756   0.00000  Uiso   1.00
C28    C     0.32234   0.10626   0.14903   0.00000  Uiso   1.00
C29    C     0.32066   0.07167   0.12021   0.00000  Uiso   1.00
C30    C     0.30634   0.03230   0.13957   0.00000  Uiso   1.00
C31    C     0.29390   0.02750   0.18768   0.00000  Uiso   1.00
C32    C     0.29477   0.06222   0.21666   0.00000  Uiso   1.00
C33    C     0.02504   0.23126   0.30246   0.00000  Uiso   1.00
C34    C     0.21143   0.12770   0.45704   0.00000  Uiso   1.00
C35    C     0.03857   0.27111   0.28337   0.00000  Uiso   1.00
C36    C     0.03944   0.30581   0.31237   0.00000  Uiso   1.00
C37    C     0.02696   0.30100   0.36049   0.00000  Uiso   1.00
C38    C     0.01260   0.26164   0.37983   0.00000  Uiso   1.00
C39    C     0.01095   0.22706   0.35099   0.00000  Uiso   1.00
C40    C     0.06947   0.10332   0.19537   0.00000  Uiso   1.00
C41    C     0.06801   0.06257   0.21217   0.00000  Uiso   1.00
C42    C     0.09395   0.02913   0.18153   0.00000  Uiso   1.00
C43    C     0.12218   0.03625   0.13411   0.00000  Uiso   1.00
C44    C     0.12334   0.07658   0.11697   0.00000  Uiso   1.00
C45    C     0.08435   0.20380   0.02776   0.00000  Uiso   1.00
C46    C     0.09617   0.10970   0.14726   0.00000  Uiso   1.00
C47    C     0.26386   0.23001   0.30464   0.00000  Uiso   1.00
C48    C     0.23717   0.22360   0.35274   0.00000  Uiso   1.00
C49    C     0.20995   0.25670   0.38305   0.00000  Uiso   1.00
C50    C     0.21109   0.29704   0.36594   0.00000  Uiso   1.00
C51    C     0.23933   0.30419   0.31854   0.00000  Uiso   1.00
C52    C     0.26530   0.27077   0.28787   0.00000  Uiso   1.00
C53    C     0.24895   0.12951   0.47225   0.00000  Uiso   1.00
C54    C     0.14961   0.31288   0.29276   0.00000  Uiso   1.00
C55    C     0.18371   0.02046   0.20723   0.00000  Uiso   1.00
C56    C     0.14939   0.02300   0.29360   0.00000  Uiso   1.00
Cl57   Cl    0.11878   0.24964   0.08124   0.00000  Uiso   1.00
Cl58   Cl    0.21454   0.08368   0.41875   0.00000  Uiso   1.00
Cl59   Cl    0.12776   0.05150   0.34841   0.00000  Uiso   1.00
Cl60   Cl    0.20555   0.28184   0.15160   0.00000  Uiso   1.00
H61    H     0.05228   0.22359   0.04584   0.00000  Uiso   1.00
H62    H     0.19691   0.03683   0.17439   0.00000  Uiso   1.00
H63    H     0.00389   0.13579   0.13336   0.00000  Uiso   1.00
H64    H     0.33175   0.07512   0.08268   0.00000  Uiso   1.00
H65    H     0.30554   0.00539   0.11721   0.00000  Uiso   1.00
H66    H     0.28361   0.33020   0.20245   0.00000  Uiso   1.00
H67    H     0.28643   0.05791   0.25362   0.00000  Uiso   1.00
H68    H     0.04694   0.27543   0.24641   0.00000  Uiso   1.00
H69    H     0.04976   0.00311   0.29762   0.00000  Uiso   1.00
H70    H     0.02775   0.32790   0.38286   0.00000  Uiso   1.00
H71    H     0.00148   0.25819   0.41737   0.00000  Uiso   1.00
H72    H     0.28102   0.10972   0.45417   0.00000  Uiso   1.00
H73    H     0.32939   0.19754   0.36664   0.00000  Uiso   1.00
H74    H     0.04537   0.05659   0.24856   0.00000  Uiso   1.00
H75    H     0.09223   0.33103   0.19452   0.00000  Uiso   1.00
H76    H     0.14256   0.01040   0.11054   0.00000  Uiso   1.00
H77    H     0.14406   0.08190   0.07995   0.00000  Uiso   1.00
H78    H     0.09387   0.13979   0.13293   0.00000  Uiso   1.00
H79    H     0.23949   0.19351   0.36705   0.00000  Uiso   1.00
H80    H     0.18922   0.25136   0.42005   0.00000  Uiso   1.00
H81    H     0.19068   0.32288   0.38952   0.00000  Uiso   1.00
H82    H     0.24104   0.00230   0.30558   0.00000  Uiso   1.00
H83    H     0.14966   0.19017   0.11247   0.00000  Uiso   1.00
H84    H     0.28794   0.27678   0.25149   0.00000  Uiso   1.00
H85    H     0.18365   0.14313   0.38753   0.00000  Uiso   1.00
H86    H     0.29013   0.14969   0.09641   0.00000  Uiso   1.00
H87    H     0.04321   0.18367   0.40357   0.00000  Uiso   1.00
H88    H     0.02190   0.20297   0.48660   0.00000  Uiso   1.00
H89    H     0.31142   0.13036   0.01340   0.00000  Uiso   1.00
H90    H     0.13640   0.29651   0.32560   0.00000  Uiso   1.00
N91    N     0.04759   0.16668   0.25001   0.00000  Uiso   1.00
N92    N     0.28574   0.16666   0.24999   0.00000  Uiso   1.00
O93    O     0.12846   0.22775   0.25000   0.00000  Uiso   1.00
O94    O     0.20488   0.10558   0.24999   0.00000  Uiso   1.00
O95    O     0.20490   0.22774   0.25000   0.00000  Uiso   1.00
O96    O     0.12843   0.10559   0.25000   0.00000  Uiso   1.00
O97    O     0.10661   0.16667   0.31612   0.00000  Uiso   1.00
O98    O     0.22672   0.16666   0.18387   0.00000  Uiso   1.00
O99    O     0.18305   0.16666   0.31612   0.00000  Uiso   1.00
O100   O     0.15028   0.16667   0.18388   0.00000  Uiso   1.00
Zn101  Zn    0.11562   0.16667   0.25000   0.00000  Uiso   1.00
Zn102  Zn    0.21771   0.16666   0.25000   0.00000  Uiso   1.00
C103   C     0.50003   0.24632   0.24991   0.00000  Uiso   1.00
C104   C     0.51726   0.31033   0.20641   0.00000  Uiso   1.00
C105   C     0.49983   0.04285   0.25056   0.00000  Uiso   1.00
C106   C     0.50017   0.29048   0.24944   0.00000  Uiso   1.00
C107   C     0.65311   0.13598   0.22527   0.00000  Uiso   1.00
C108   C     0.34689   0.19736   0.27473   0.00000  Uiso   1.00
C109   C     0.36757   0.13618   0.22489   0.00000  Uiso   1.00
C110   C     0.63243   0.19715   0.27511   0.00000  Uiso   1.00
C111   C     0.46918   0.16555   0.33810   0.00000  Uiso   1.00
C112   C     0.53082   0.16778   0.16190   0.00000  Uiso   1.00
C113   C     0.44945   0.16406   0.38972   0.00000  Uiso   1.00
C114   C     0.49997   0.08701   0.25009   0.00000  Uiso   1.00
C115   C     0.55055   0.16927   0.11027   0.00000  Uiso   1.00
C116   C     0.39007   0.18788   0.46601   0.00000  Uiso   1.00
C117   C     0.60992   0.14544   0.03399   0.00000  Uiso   1.00
C118   C     0.40236   0.17769   0.41839   0.00000  Uiso   1.00
C119   C     0.59764   0.15565   0.08160   0.00000  Uiso   1.00
C120   C     0.48095   0.15326   0.41053   0.00000  Uiso   1.00
C121   C     0.51903   0.18005   0.08947   0.00000  Uiso   1.00
C122   C     0.46905   0.16144   0.45862   0.00000  Uiso   1.00
C123   C     0.53093   0.17187   0.04138   0.00000  Uiso   1.00
C124   C     0.42452   0.18276   0.48528   0.00000  Uiso   1.00
C125   C     0.45521   0.20561   0.04297   0.00000  Uiso   1.00
C126   C     0.57546   0.15055   0.01473   0.00000  Uiso   1.00
C127   C     0.50335   0.15514   0.47861   0.00000  Uiso   1.00
C128   C     0.49662   0.17817   0.02140   0.00000  Uiso   1.00
C129   C     0.64161   0.10207   0.19756   0.00000  Uiso   1.00
C130   C     0.65567   0.10626   0.14903   0.00000  Uiso   1.00
C131   C     0.65399   0.07167   0.12021   0.00000  Uiso   1.00
C132   C     0.63968   0.03230   0.13957   0.00000  Uiso   1.00
C133   C     0.62723   0.02750   0.18768   0.00000  Uiso   1.00
C134   C     0.62811   0.06222   0.21666   0.00000  Uiso   1.00
C135   C     0.35838   0.23126   0.30246   0.00000  Uiso   1.00
C136   C     0.54476   0.12770   0.45704   0.00000  Uiso   1.00
C137   C     0.37190   0.27111   0.28337   0.00000  Uiso   1.00
C138   C     0.37277   0.30581   0.31237   0.00000  Uiso   1.00
C139   C     0.36029   0.30100   0.36049   0.00000  Uiso   1.00
C140   C     0.34594   0.26164   0.37983   0.00000  Uiso   1.00
C141   C     0.34428   0.22706   0.35099   0.00000  Uiso   1.00
C142   C     0.40281   0.10332   0.19537   0.00000  Uiso   1.00
C143   C     0.40134   0.06257   0.21217   0.00000  Uiso   1.00
C144   C     0.42728   0.02913   0.18153   0.00000  Uiso   1.00
C145   C     0.45551   0.03625   0.13411   0.00000  Uiso   1.00
C146   C     0.45668   0.07658   0.11697   0.00000  Uiso   1.00
C147   C     0.41769   0.20380   0.02776   0.00000  Uiso   1.00
C148   C     0.42950   0.10970   0.14726   0.00000  Uiso   1.00
C149   C     0.59719   0.23001   0.30464   0.00000  Uiso   1.00
C150   C     0.57050   0.22360   0.35274   0.00000  Uiso   1.00
C151   C     0.54328   0.25670   0.38305   0.00000  Uiso   1.00
C152   C     0.54442   0.29704   0.36594   0.00000  Uiso   1.00
C153   C     0.57267   0.30419   0.31854   0.00000  Uiso   1.00
C154   C     0.59864   0.27077   0.28787   0.00000  Uiso   1.00
C155   C     0.58228   0.12951   0.47225   0.00000  Uiso   1.00
C156   C     0.48294   0.31288   0.29276   0.00000  Uiso   1.00
C157   C     0.51705   0.02046   0.20723   0.00000  Uiso   1.00
C158   C     0.48273   0.02300   0.29360   0.00000  Uiso   1.00
Cl159  Cl    0.45211   0.24964   0.08124   0.00000  Uiso   1.00
Cl160  Cl    0.54787   0.08368   0.41875   0.00000  Uiso   1.00
Cl161  Cl    0.46109   0.05150   0.34841   0.00000  Uiso   1.00
Cl162  Cl    0.53889   0.28184   0.15160   0.00000  Uiso   1.00
H163   H     0.38562   0.22359   0.04584   0.00000  Uiso   1.00
H164   H     0.53024   0.03683   0.17439   0.00000  Uiso   1.00
H165   H     0.33722   0.13579   0.13336   0.00000  Uiso   1.00
H166   H     0.66508   0.07512   0.08268   0.00000  Uiso   1.00
H167   H     0.63888   0.00539   0.11721   0.00000  Uiso   1.00
H168   H     0.61694   0.33020   0.20245   0.00000  Uiso   1.00
H169   H     0.61977   0.05791   0.25362   0.00000  Uiso   1.00
H170   H     0.38027   0.27543   0.24641   0.00000  Uiso   1.00
H171   H     0.38309   0.00311   0.29762   0.00000  Uiso   1.00
H172   H     0.36108   0.32790   0.38286   0.00000  Uiso   1.00
H173   H     0.33481   0.25819   0.41737   0.00000  Uiso   1.00
H174   H     0.61436   0.10972   0.45417   0.00000  Uiso   1.00
H175   H     0.66272   0.19754   0.36664   0.00000  Uiso   1.00
H176   H     0.37870   0.05659   0.24856   0.00000  Uiso   1.00
H177   H     0.42556   0.33103   0.19452   0.00000  Uiso   1.00
H178   H     0.47590   0.01040   0.11054   0.00000  Uiso   1.00
H179   H     0.47740   0.08190   0.07995   0.00000  Uiso   1.00
H180   H     0.42720   0.13979   0.13293   0.00000  Uiso   1.00
H181   H     0.57283   0.19351   0.36705   0.00000  Uiso   1.00
H182   H     0.52255   0.25136   0.42005   0.00000  Uiso   1.00
H183   H     0.52401   0.32288   0.38952   0.00000  Uiso   1.00
H184   H     0.57438   0.00230   0.30558   0.00000  Uiso   1.00
H185   H     0.48299   0.19017   0.11247   0.00000  Uiso   1.00
H186   H     0.62128   0.27678   0.25149   0.00000  Uiso   1.00
H187   H     0.51699   0.14313   0.38753   0.00000  Uiso   1.00
H188   H     0.62347   0.14969   0.09641   0.00000  Uiso   1.00
H189   H     0.37654   0.18367   0.40357   0.00000  Uiso   1.00
H190   H     0.35524   0.20297   0.48660   0.00000  Uiso   1.00
H191   H     0.64475   0.13036   0.01340   0.00000  Uiso   1.00
H192   H     0.46973   0.29651   0.32560   0.00000  Uiso   1.00
N193   N     0.38093   0.16668   0.25001   0.00000  Uiso   1.00
N194   N     0.61907   0.16666   0.24999   0.00000  Uiso   1.00
O195   O     0.46179   0.22775   0.25000   0.00000  Uiso   1.00
O196   O     0.53821   0.10558   0.24999   0.00000  Uiso   1.00
O197   O     0.53823   0.22774   0.25000   0.00000  Uiso   1.00
O198   O     0.46177   0.10559   0.25000   0.00000  Uiso   1.00
O199   O     0.43994   0.16667   0.31612   0.00000  Uiso   1.00
O200   O     0.56006   0.16666   0.18387   0.00000  Uiso   1.00
O201   O     0.51639   0.16666   0.31612   0.00000  Uiso   1.00
O202   O     0.48361   0.16667   0.18388   0.00000  Uiso   1.00
Zn203  Zn    0.44896   0.16667   0.25000   0.00000  Uiso   1.00
Zn204  Zn    0.55104   0.16666   0.25000   0.00000  Uiso   1.00
C205   C     0.83336   0.24632   0.24991   0.00000  Uiso   1.00
C206   C     0.85059   0.31033   0.20641   0.00000  Uiso   1.00
C207   C     0.83316   0.04285   0.25056   0.00000  Uiso   1.00
C208   C     0.83351   0.29048   0.24944   0.00000  Uiso   1.00
C209   C     0.98644   0.13598   0.22527   0.00000  Uiso   1.00
C210   C     0.68022   0.19736   0.27473   0.00000  Uiso   1.00
C211   C     0.70091   0.13618   0.22489   0.00000  Uiso   1.00
C212   C     0.96576   0.19715   0.27511   0.00000  Uiso   1.00
C213   C     0.80251   0.16555   0.33810   0.00000  Uiso   1.00
C214   C     0.86415   0.16778   0.16190   0.00000  Uiso   1.00
C215   C     0.78278   0.16406   0.38972   0.00000  Uiso   1.00
C216   C     0.83330   0.08701   0.25009   0.00000  Uiso   1.00
C217   C     0.88388   0.16927   0.11027   0.00000  Uiso   1.00
C218   C     0.72340   0.18788   0.46601   0.00000  Uiso   1.00
C219   C     0.94325   0.14544   0.03399   0.00000  Uiso   1.00
C220   C     0.73569   0.17769   0.41839   0.00000  Uiso   1.00
C221   C     0.93097   0.15565   0.08160   0.00000  Uiso   1.00
C222   C     0.81428   0.15326   0.41053   0.00000  Uiso   1.00
C223   C     0.85237   0.18005   0.08947   0.00000  Uiso   1.00
C224   C     0.80238   0.16144   0.45862   0.00000  Uiso   1.00
C225   C     0.86426   0.17187   0.04138   0.00000  Uiso   1.00
C226   C     0.75785   0.18276   0.48528   0.00000  Uiso   1.00
C227   C     0.78855   0.20561   0.04297   0.00000  Uiso   1.00
C228   C     0.90879   0.15055   0.01473   0.00000  Uiso   1.00
C229   C     0.83669   0.15514   0.47861   0.00000  Uiso   1.00
C230   C     0.82995   0.17817   0.02140   0.00000  Uiso   1.00
C231   C     0.97495   0.10207   0.19756   0.00000  Uiso   1.00
C232   C     0.98901   0.10626   0.14903   0.00000  Uiso   1.00
C233   C     0.98733   0.07167   0.12021   0.00000  Uiso   1.00
C234   C     0.97301   0.03230   0.13957   0.00000  Uiso   1.00
C235   C     0.96057   0.02750   0.18768   0.00000  Uiso   1.00
C236   C     0.96144   0.06222   0.21666   0.00000  Uiso   1.00
C237   C     0.69171   0.23126   0.30246   0.00000  Uiso   1.00
C238   C     0.87809   0.12770   0.45704   0.00000  Uiso   1.00
C239   C     0.70523   0.27111   0.28337   0.00000  Uiso   1.00
C240   C     0.70610   0.30581   0.31237   0.00000  Uiso   1.00
C241   C     0.69362   0.30100   0.36049   0.00000  Uiso   1.00
C242   C     0.67927   0.26164   0.37983   0.00000  Uiso   1.00
C243   C     0.67761   0.22706   0.35099   0.00000  Uiso   1.00
C244   C     0.73614   0.10332   0.19537   0.00000  Uiso   1.00
C245   C     0.73468   0.06257   0.21217   0.00000  Uiso   1.00
C246   C     0.76061   0.02913   0.18153   0.00000  Uiso   1.00
C247   C     0.78884   0.03625   0.13411   0.00000  Uiso   1.00
C248   C     0.79001   0.07658   0.11697   0.00000  Uiso   1.00
C249   C     0.75102   0.20380   0.02776   0.00000  Uiso   1.00
C250   C     0.76283   0.10970   0.14726   0.00000  Uiso   1.00
C251   C     0.93053   0.23001   0.30464   0.00000  Uiso   1.00
C252   C     0.90383   0.22360   0.35274   0.00000  Uiso   1.00
C253   C     0.87661   0.25670   0.38305   0.00000  Uiso   1.00
C254   C     0.87775   0.29704   0.36594   0.00000  Uiso   1.00
C255   C     0.90600   0.30419   0.31854   0.00000  Uiso   1.00
C256   C     0.93197   0.27077   0.28787   0.00000  Uiso   1.00
C257   C     0.91562   0.12951   0.47225   0.00000  Uiso   1.00
C258   C     0.81627   0.31288   0.29276   0.00000  Uiso   1.00
C259   C     0.85038   0.02046   0.20723   0.00000  Uiso   1.00
C260   C     0.81606   0.02300   0.29360   0.00000  Uiso   1.00
Cl261  Cl    0.78544   0.24964   0.08124   0.00000  Uiso   1.00
Cl262  Cl    0.88121   0.08368   0.41875   0.00000  Uiso   1.00
Cl263  Cl    0.79443   0.05150   0.34841   0.00000  Uiso   1.00
Cl264  Cl    0.87222   0.28184   0.15160   0.00000  Uiso   1.00
H265   H     0.71895   0.22359   0.04584   0.00000  Uiso   1.00
H266   H     0.86357   0.03683   0.17439   0.00000  Uiso   1.00
H267   H     0.67055   0.13579   0.13336   0.00000  Uiso   1.00
H268   H     0.99841   0.07512   0.08268   0.00000  Uiso   1.00
H269   H     0.97221   0.00539   0.11721   0.00000  Uiso   1.00
H270   H     0.95028   0.33020   0.20245   0.00000  Uiso   1.00
H271   H     0.95310   0.05791   0.25362   0.00000  Uiso   1.00
H272   H     0.71360   0.27543   0.24641   0.00000  Uiso   1.00
H273   H     0.71642   0.00311   0.29762   0.00000  Uiso   1.00
H274   H     0.69442   0.32790   0.38286   0.00000  Uiso   1.00
H275   H     0.66815   0.25819   0.41737   0.00000  Uiso   1.00
H276   H     0.94769   0.10972   0.45417   0.00000  Uiso   1.00
H277   H     0.99606   0.19754   0.36664   0.00000  Uiso   1.00
H278   H     0.71204   0.05659   0.24856   0.00000  Uiso   1.00
H279   H     0.75890   0.33103   0.19452   0.00000  Uiso   1.00
H280   H     0.80923   0.01040   0.11054   0.00000  Uiso   1.00
H281   H     0.81073   0.08190   0.07995   0.00000  Uiso   1.00
H282   H     0.76053   0.13979   0.13293   0.00000  Uiso   1.00
H283   H     0.90616   0.19351   0.36705   0.00000  Uiso   1.00
H284   H     0.85588   0.25136   0.42005   0.00000  Uiso   1.00
H285   H     0.85734   0.32288   0.38952   0.00000  Uiso   1.00
H286   H     0.90771   0.00230   0.30558   0.00000  Uiso   1.00
H287   H     0.81632   0.19017   0.11247   0.00000  Uiso   1.00
H288   H     0.95461   0.27678   0.25149   0.00000  Uiso   1.00
H289   H     0.85032   0.14313   0.38753   0.00000  Uiso   1.00
H290   H     0.95680   0.14969   0.09641   0.00000  Uiso   1.00
H291   H     0.70988   0.18367   0.40357   0.00000  Uiso   1.00
H292   H     0.68857   0.20297   0.48660   0.00000  Uiso   1.00
H293   H     0.97809   0.13036   0.01340   0.00000  Uiso   1.00
H294   H     0.80307   0.29651   0.32560   0.00000  Uiso   1.00
N295   N     0.71426   0.16668   0.25001   0.00000  Uiso   1.00
N296   N     0.95241   0.16666   0.24999   0.00000  Uiso   1.00
O297   O     0.79512   0.22775   0.25000   0.00000  Uiso   1.00
O298   O     0.87154   0.10558   0.24999   0.00000  Uiso   1.00
O299   O     0.87157   0.22774   0.25000   0.00000  Uiso   1.00
O300   O     0.79510   0.10559   0.25000   0.00000  Uiso   1.00
O301   O     0.77328   0.16667   0.31612   0.00000  Uiso   1.00
O302   O     0.89339   0.16666   0.18387   0.00000  Uiso   1.00
O303   O     0.84972   0.16666   0.31612   0.00000  Uiso   1.00
O304   O     0.81695   0.16667   0.18388   0.00000  Uiso   1.00
Zn305  Zn    0.78229   0.16667   0.25000   0.00000  Uiso   1.00
Zn306  Zn    0.88438   0.16666   0.25000   0.00000  Uiso   1.00
C307   C     0.16670   0.57966   0.24991   0.00000  Uiso   1.00
C308   C     0.18393   0.64366   0.20641   0.00000  Uiso   1.00
C309   C     0.16649   0.37619   0.25056   0.00000  Uiso   1.00
C310   C     0.16684   0.62381   0.24944   0.00000  Uiso   1.00
C311   C     0.31978   0.46931   0.22527   0.00000  Uiso   1.00
C312   C     0.01356   0.53069   0.27473   0.00000  Uiso   1.00
C313   C     0.03424   0.46952   0.22489   0.00000  Uiso   1.00
C314   C     0.29910   0.53049   0.27511   0.00000  Uiso   1.00
C315   C     0.13585   0.49889   0.33810   0.00000  Uiso   1.00
C316   C     0.19749   0.50111   0.16190   0.00000  Uiso   1.00
C317   C     0.11611   0.49740   0.38972   0.00000  Uiso   1.00
C318   C     0.16664   0.42034   0.25009   0.00000  Uiso   1.00
C319   C     0.21721   0.50260   0.11027   0.00000  Uiso   1.00
C320   C     0.05673   0.52121   0.46601   0.00000  Uiso   1.00
C321   C     0.27659   0.47878   0.03399   0.00000  Uiso   1.00
C322   C     0.06902   0.51102   0.41839   0.00000  Uiso   1.00
C323   C     0.26430   0.48899   0.08160   0.00000  Uiso   1.00
C324   C     0.14762   0.48660   0.41053   0.00000  Uiso   1.00
C325   C     0.18570   0.51338   0.08947   0.00000  Uiso   1.00
C326   C     0.13571   0.49477   0.45862   0.00000  Uiso   1.00
C327   C     0.19760   0.50520   0.04138   0.00000  Uiso   1.00
C328   C     0.09118   0.51610   0.48528   0.00000  Uiso   1.00
C329   C     0.12188   0.53894   0.04297   0.00000  Uiso   1.00
C330   C     0.24213   0.48388   0.01473   0.00000  Uiso   1.00
C331   C     0.17002   0.48847   0.47861   0.00000  Uiso   1.00
C332   C     0.16329   0.51150   0.02140   0.00000  Uiso   1.00
C333   C     0.30828   0.43540   0.19756   0.00000  Uiso   1.00
C334   C     0.32234   0.43959   0.14903   0.00000  Uiso   1.00
C335   C     0.32066   0.40501   0.12021   0.00000  Uiso   1.00
C336   C     0.30634   0.36564   0.13957   0.00000  Uiso   1.00
C337   C     0.29390   0.36084   0.18768   0.00000  Uiso   1.00
C338   C     0.29477   0.39555   0.21666   0.00000  Uiso   1.00
C339   C     0.02504   0.56459   0.30246   0.00000  Uiso   1.00
C340   C     0.21143   0.46103   0.45704   0.00000  Uiso   1.00
C341   C     0.03857   0.60445   0.28337   0.00000  Uiso   1.00
C342   C     0.03944   0.63914   0.31237   0.00000  Uiso   1.00
C343   C     0.02696   0.63433   0.36049   0.00000  Uiso   1.00
C344   C     0.01260   0.59497   0.37983   0.00000  Uiso   1.00
C345   C     0.01095   0.56040   0.35099   0.00000  Uiso   1.00
C346   C     0.06947   0.43665   0.19537   0.00000  Uiso   1.00
C347   C     0.06801   0.39590   0.21217   0.00000  Uiso   1.00
C348   C     0.09395   0.36247   0.18153   0.00000  Uiso   1.00
C349   C     0.12218   0.36959   0.13411   0.00000  Uiso   1.00
C350   C     0.12334   0.40992   0.11697   0.00000  Uiso   1.00
C351   C     0.08435   0.53713   0.02776   0.00000  Uiso   1.00
C352   C     0.09617   0.44304   0.14726   0.00000  Uiso   1.00
C353   C     0.26386   0.56334   0.30464   0.00000  Uiso   1.00
C354   C     0.23717   0.55693   0.35274   0.00000  Uiso   1.00
C355   C     0.20995   0.59003   0.38305   0.00000  Uiso   1.00
C356   C     0.21109   0.63037   0.36594   0.00000  Uiso   1.00
C357   C     0.23933   0.63752   0.31854   0.00000  Uiso   1.00
C358   C     0.26530   0.60410   0.28787   0.00000  Uiso   1.00
C359   C     0.24895   0.46284   0.47225   0.00000  Uiso   1.00
C360   C     0.14961   0.64621   0.29276   0.00000  Uiso   1.00
C361   C     0.18371   0.35379   0.20723   0.00000  Uiso   1.00
C362   C     0.14939   0.35634   0.29360   0.00000  Uiso   1.00
Cl363  Cl    0.11878   0.58298   0.08124   0.00000  Uiso   1.00
Cl364  Cl    0.21454   0.41701   0.41875   0.00000  Uiso   1.00
Cl365  Cl    0.12776   0.38484   0.34841   0.00000  Uiso   1.00
Cl366  Cl    0.20555   0.61517   0.15160   0.00000  Uiso   1.00
H367   H     0.05228   0.55692   0.04584   0.00000  Uiso   1.00
H368   H     0.19691   0.37016   0.17439   0.00000  Uiso   1.00
H369   H     0.00389   0.46912   0.13336   0.00000  Uiso   1.00
H370   H     0.33175   0.40845   0.08268   0.00000  Uiso   1.00
H371   H     0.30554   0.33872   0.11721   0.00000  Uiso   1.00
H372   H     0.28361   0.66353   0.20245   0.00000  Uiso   1.00
H373   H     0.28643   0.39125   0.25362   0.00000  Uiso   1.00
H374   H     0.04694   0.60876   0.24641   0.00000  Uiso   1.00
H375   H     0.04976   0.33644   0.29762   0.00000  Uiso   1.00
H376   H     0.02775   0.66123   0.38286   0.00000  Uiso   1.00
H377   H     0.00148   0.59152   0.41737   0.00000  Uiso   1.00
H378   H     0.28102   0.44305   0.45417   0.00000  Uiso   1.00
H379   H     0.32939   0.53087   0.36664   0.00000  Uiso   1.00
H380   H     0.04537   0.38993   0.24856   0.00000  Uiso   1.00
H381   H     0.09223   0.66437   0.19452   0.00000  Uiso   1.00
H382   H     0.14256   0.34373   0.11054   0.00000  Uiso   1.00
H383   H     0.14406   0.41524   0.07995   0.00000  Uiso   1.00
H384   H     0.09387   0.47312   0.13293   0.00000  Uiso   1.00
H385   H     0.23949   0.52684   0.36705   0.00000  Uiso   1.00
H386   H     0.18922   0.58469   0.42005   0.00000  Uiso   1.00
H387   H     0.19068   0.65621   0.38952   0.00000  Uiso   1.00
H388   H     0.24104   0.33563   0.30558   0.00000  Uiso   1.00
H389   H     0.14966   0.52350   0.11247   0.00000  Uiso   1.00
H390   H     0.28794   0.61011   0.25149   0.00000  Uiso   1.00
H391   H     0.18365   0.47647   0.38753   0.00000  Uiso   1.00
H392   H     0.29013   0.48302   0.09641   0.00000  Uiso   1.00
H393   H     0.04321   0.51700   0.40357   0.00000  Uiso   1.00
H394   H     0.02190   0.53630   0.48660   0.00000  Uiso   1.00
H395   H     0.31142   0.46369   0.01340   0.00000  Uiso   1.00
H396   H     0.13640   0.62984   0.32560   0.00000  Uiso   1.00
N397   N     0.04759   0.50001   0.25001   0.00000  Uiso   1.00
N398   N     0.28574   0.49999   0.24999   0.00000  Uiso   1.00
O399   O     0.12846   0.56108   0.25000   0.00000  Uiso   1.00
O400   O     0.20488   0.43892   0.24999   0.00000  Uiso   1.00
O401   O     0.20490   0.56107   0.25000   0.00000  Uiso   1.00
O402   O     0.12843   0.43893   0.25000   0.00000  Uiso   1.00
O403   O     0.10661   0.50001   0.31612   0.00000  Uiso   1.00
O404   O     0.22672   0.49999   0.18387   0.00000  Uiso   1.00
O405   O     0.18305   0.50000   0.31612   0.00000  Uiso   1.00
O406   O     0.15028   0.50000   0.18388   0.00000  Uiso   1.00
Zn407  Zn    0.11562   0.50001   0.25000   0.00000  Uiso   1.00
Zn408  Zn    0.21771   0.49999   0.25000   0.00000  Uiso   1.00
C409   C     0.50003   0.57966   0.24991   0.00000  Uiso   1.00
C410   C     0.51726   0.64366   0.20641   0.00000  Uiso   1.00
C411   C     0.49983   0.37619   0.25056   0.00000  Uiso   1.00
C412   C     0.50017   0.62381   0.24944   0.00000  Uiso   1.00
C413   C     0.65311   0.46931   0.22527   0.00000  Uiso   1.00
C414   C     0.34689   0.53069   0.27473   0.00000  Uiso   1.00
C415   C     0.36757   0.46952   0.22489   0.00000  Uiso   1.00
C416   C     0.63243   0.53049   0.27511   0.00000  Uiso   1.00
C417   C     0.46918   0.49889   0.33810   0.00000  Uiso   1.00
C418   C     0.53082   0.50111   0.16190   0.00000  Uiso   1.00
C419   C     0.44945   0.49740   0.38972   0.00000  Uiso   1.00
C420   C     0.49997   0.42034   0.25009   0.00000  Uiso   1.00
C421   C     0.55055   0.50260   0.11027   0.00000  Uiso   1.00
C422   C     0.39007   0.52121   0.46601   0.00000  Uiso   1.00
C423   C     0.60992   0.47878   0.03399   0.00000  Uiso   1.00
C424   C     0.40236   0.51102   0.41839   0.00000  Uiso   1.00
C425   C     0.59764   0.48899   0.08160   0.00000  Uiso   1.00
C426   C     0.48095   0.48660   0.41053   0.00000  Uiso   1.00
C427   C     0.51903   0.51338   0.08947   0.00000  Uiso   1.00
C428   C     0.46905   0.49477   0.45862   0.00000  Uiso   1.00
C429   C     0.53093   0.50520   0.04138   0.00000  Uiso   1.00
C430   C     0.42452   0.51610   0.48528   0.00000  Uiso   1.00
C431   C     0.45521   0.53894   0.04297   0.00000  Uiso   1.00
C432   C     0.57546   0.48388   0.01473   0.00000  Uiso   1.00
C433   C     0.50335   0.48847   0.47861   0.00000  Uiso   1.00
C434   C     0.49662   0.51150   0.02140   0.00000  Uiso   1.00
C435   C     0.64161   0.43540   0.19756   0.00000  Uiso   1.00
C436   C     0.65567   0.43959   0.14903   0.00000  Uiso   1.00
C437   C     0.65399   0.40501   0.12021   0.00000  Uiso   1.00
C438   C     0.63968   0.36564   0.13957   0.00000  Uiso   1.00
C439   C     0.62723   0.36084   0.18768   0.00000  Uiso   1.00
C440   C     0.62811   0.39555   0.21666   0.00000  Uiso   1.00
C441   C     0.35838   0.56459   0.30246   0.00000  Uiso   1.00
C442   C     0.54476   0.46103   0.45704   0.00000  Uiso   1.00
C443   C     0.37190   0.60445   0.28337   0.00000  Uiso   1.00
C444   C     0.37277   0.63914   0.31237   0.00000  Uiso   1.00
C445   C     0.36029   0.63433   0.36049   0.00000  Uiso   1.00
C446   C     0.34594   0.59497   0.37983   0.00000  Uiso   1.00
C447   C     0.34428   0.56040   0.35099   0.00000  Uiso   1.00
C448   C     0.40281   0.43665   0.19537   0.00000  Uiso   1.00
C449   C     0.40134   0.39590   0.21217   0.00000  Uiso   1.00
C450   C     0.42728   0.36247   0.18153   0.00000  Uiso   1.00
C451   C     0.45551   0.36959   0.13411   0.00000  Uiso   1.00
C452   C     0.45668   0.40992   0.11697   0.00000  Uiso   1.00
C453   C     0.41769   0.53713   0.02776   0.00000  Uiso   1.00
C454   C     0.42950   0.44304   0.14726   0.00000  Uiso   1.00
C455   C     0.59719   0.56334   0.30464   0.00000  Uiso   1.00
C456   C     0.57050   0.55693   0.35274   0.00000  Uiso   1.00
C457   C     0.54328   0.59003   0.38305   0.00000  Uiso   1.00
C458   C     0.54442   0.63037   0.36594   0.00000  Uiso   1.00
C459   C     0.57267   0.63752   0.31854   0.00000  Uiso   1.00
C460   C     0.59864   0.60410   0.28787   0.00000  Uiso   1.00
C461   C     0.58228   0.46284   0.47225   0.00000  Uiso   1.00
C462   C     0.48294   0.64621   0.29276   0.00000  Uiso   1.00
C463   C     0.51705   0.35379   0.20723   0.00000  Uiso   1.00
C464   C     0.48273   0.35634   0.29360   0.00000  Uiso   1.00
Cl465  Cl    0.45211   0.58298   0.08124   0.00000  Uiso   1.00
Cl466  Cl    0.54787   0.41701   0.41875   0.00000  Uiso   1.00
Cl467  Cl    0.46109   0.38484   0.34841   0.00000  Uiso   1.00
Cl468  Cl    0.53889   0.61517   0.15160   0.00000  Uiso   1.00
H469   H     0.38562   0.55692   0.04584   0.00000  Uiso   1.00
H470   H     0.53024   0.37016   0.17439   0.00000  Uiso   1.00
H471   H     0.33722   0.46912   0.13336   0.00000  Uiso   1.00
H472   H     0.66508   0.40845   0.08268   0.00000  Uiso   1.00
H473   H     0.63888   0.33872   0.11721   0.00000  Uiso   1.00
H474   H     0.61694   0.66353   0.20245   0.00000  Uiso   1.00
H475   H     0.61977   0.39125   0.25362   0.00000  Uiso   1.00
H476   H     0.38027   0.60876   0.24641   0.00000  Uiso   1.00
H477   H     0.38309   0.33644   0.29762   0.00000  Uiso   1.00
H478   H     0.36108   0.66123   0.38286   0.00000  Uiso   1.00
H479   H     0.33481   0.59152   0.41737   0.00000  Uiso   1.00
H480   H     0.61436   0.44305   0.45417   0.00000  Uiso   1.00
H481   H     0.66272   0.53087   0.36664   0.00000  Uiso   1.00
H482   H     0.37870   0.38993   0.24856   0.00000  Uiso   1.00
H483   H     0.42556   0.66437   0.19452   0.00000  Uiso   1.00
H484   H     0.47590   0.34373   0.11054   0.00000  Uiso   1.00
H485   H     0.47740   0.41524   0.07995   0.00000  Uiso   1.00
H486   H     0.42720   0.47312   0.13293   0.00000  Uiso   1.00
H487   H     0.57283   0.52684   0.36705   0.00000  Uiso   1.00
H488   H     0.52255   0.58469   0.42005   0.00000  Uiso   1.00
H489   H     0.52401   0.65621   0.38952   0.00000  Uiso   1.00
H490   H     0.57438   0.33563   0.30558   0.00000  Uiso   1.00
H491   H     0.48299   0.52350   0.11247   0.00000  Uiso   1.00
H492   H     0.62128   0.61011   0.25149   0.00000  Uiso   1.00
H493   H     0.51699   0.47647   0.38753   0.00000  Uiso   1.00
H494   H     0.62347   0.48302   0.09641   0.00000  Uiso   1.00
H495   H     0.37654   0.51700   0.40357   0.00000  Uiso   1.00
H496   H     0.35524   0.53630   0.48660   0.00000  Uiso   1.00
H497   H     0.64475   0.46369   0.01340   0.00000  Uiso   1.00
H498   H     0.46973   0.62984   0.32560   0.00000  Uiso   1.00
N499   N     0.38093   0.50001   0.25001   0.00000  Uiso   1.00
N500   N     0.61907   0.49999   0.24999   0.00000  Uiso   1.00
O501   O     0.46179   0.56108   0.25000   0.00000  Uiso   1.00
O502   O     0.53821   0.43892   0.24999   0.00000  Uiso   1.00
O503   O     0.53823   0.56107   0.25000   0.00000  Uiso   1.00
O504   O     0.46177   0.43893   0.25000   0.00000  Uiso   1.00
O505   O     0.43994   0.50001   0.31612   0.00000  Uiso   1.00
O506   O     0.56006   0.49999   0.18387   0.00000  Uiso   1.00
O507   O     0.51639   0.50000   0.31612   0.00000  Uiso   1.00
O508   O     0.48361   0.50000   0.18388   0.00000  Uiso   1.00
Zn509  Zn    0.44896   0.50001   0.25000   0.00000  Uiso   1.00
Zn510  Zn    0.55104   0.49999   0.25000   0.00000  Uiso   1.00
C511   C     0.83336   0.57966   0.24991   0.00000  Uiso   1.00
C512   C     0.85059   0.64366   0.20641   0.00000  Uiso   1.00
C513   C     0.83316   0.37619   0.25056   0.00000  Uiso   1.00
C514   C     0.83351   0.62381   0.24944   0.00000  Uiso   1.00
C515   C     0.98644   0.46931   0.22527   0.00000  Uiso   1.00
C516   C     0.68022   0.53069   0.27473   0.00000  Uiso   1.00
C517   C     0.70091   0.46952   0.22489   0.00000  Uiso   1.00
C518   C     0.96576   0.53049   0.27511   0.00000  Uiso   1.00
C519   C     0.80251   0.49889   0.33810   0.00000  Uiso   1.00
C520   C     0.86415   0.50111   0.16190   0.00000  Uiso   1.00
C521   C     0.78278   0.49740   0.38972   0.00000  Uiso   1.00
C522   C     0.83330   0.42034   0.25009   0.00000  Uiso   1.00
C523   C     0.88388   0.50260   0.11027   0.00000  Uiso   1.00
C524   C     0.72340   0.52121   0.46601   0.00000  Uiso   1.00
C525   C     0.94325   0.47878   0.03399   0.00000  Uiso   1.00
C526   C     0.73569   0.51102   0.41839   0.00000  Uiso   1.00
C527   C     0.93097   0.48899   0.08160   0.00000  Uiso   1.00
C528   C     0.81428   0.48660   0.41053   0.00000  Uiso   1.00
C529   C     0.85237   0.51338   0.08947   0.00000  Uiso   1.00
C530   C     0.80238   0.49477   0.45862   0.00000  Uiso   1.00
C531   C     0.86426   0.50520   0.04138   0.00000  Uiso   1.00
C532   C     0.75785   0.51610   0.48528   0.00000  Uiso   1.00
C533   C     0.78855   0.53894   0.04297   0.00000  Uiso   1.00
C534   C     0.90879   0.48388   0.01473   0.00000  Uiso   1.00
C535   C     0.83669   0.48847   0.47861   0.00000  Uiso   1.00
C536   C     0.82995   0.51150   0.02140   0.00000  Uiso   1.00
C537   C     0.97495   0.43540   0.19756   0.00000  Uiso   1.00
C538   C     0.98901   0.43959   0.14903   0.00000  Uiso   1.00
C539   C     0.98733   0.40501   0.12021   0.00000  Uiso   1.00
C540   C     0.97301   0.36564   0.13957   0.00000  Uiso   1.00
C541   C     0.96057   0.36084   0.18768   0.00000  Uiso   1.00
C542   C     0.96144   0.39555   0.21666   0.00000  Uiso   1.00
C543   C     0.69171   0.56459   0.30246   0.00000  Uiso   1.00
C544   C     0.87809   0.46103   0.45704   0.00000  Uiso   1.00
C545   C     0.70523   0.60445   0.28337   0.00000  Uiso   1.00
C546   C     0.70610   0.63914   0.31237   0.00000  Uiso   1.00
C547   C     0.69362   0.63433   0.36049   0.00000  Uiso   1.00
C548   C     0.67927   0.59497   0.37983   0.00000  Uiso   1.00
C549   C     0.67761   0.56040   0.35099   0.00000  Uiso   1.00
C550   C     0.73614   0.43665   0.19537   0.00000  Uiso   1.00
C551   C     0.73468   0.39590   0.21217   0.00000  Uiso   1.00
C552   C     0.76061   0.36247   0.18153   0.00000  Uiso   1.00
C553   C     0.78884   0.36959   0.13411   0.00000  Uiso   1.00
C554   C     0.79001   0.40992   0.11697   0.00000  Uiso   1.00
C555   C     0.75102   0.53713   0.02776   0.00000  Uiso   1.00
C556   C     0.76283   0.44304   0.14726   0.00000  Uiso   1.00
C557   C     0.93053   0.56334   0.30464   0.00000  Uiso   1.00
C558   C     0.90383   0.55693   0.35274   0.00000  Uiso   1.00
C559   C     0.87661   0.59003   0.38305   0.00000  Uiso   1.00
C560   C     0.87775   0.63037   0.36594   0.00000  Uiso   1.00
C561   C     0.90600   0.63752   0.31854   0.00000  Uiso   1.00
C562   C     0.93197   0.60410   0.28787   0.00000  Uiso   1.00
C563   C     0.91562   0.46284   0.47225   0.00000  Uiso   1.00
C564   C     0.81627   0.64621   0.29276   0.00000  Uiso   1.00
C565   C     0.85038   0.35379   0.20723   0.00000  Uiso   1.00
C566   C     0.81606   0.35634   0.29360   0.00000  Uiso   1.00
Cl567  Cl    0.78544   0.58298   0.08124   0.00000  Uiso   1.00
Cl568  Cl    0.88121   0.41701   0.41875   0.00000  Uiso   1.00
Cl569  Cl    0.79443   0.38484   0.34841   0.00000  Uiso   1.00
Cl570  Cl    0.87222   0.61517   0.15160   0.00000  Uiso   1.00
H571   H     0.71895   0.55692   0.04584   0.00000  Uiso   1.00
H572   H     0.86357   0.37016   0.17439   0.00000  Uiso   1.00
H573   H     0.67055   0.46912   0.13336   0.00000  Uiso   1.00
H574   H     0.99841   0.40845   0.08268   0.00000  Uiso   1.00
H575   H     0.97221   0.33872   0.11721   0.00000  Uiso   1.00
H576   H     0.95028   0.66353   0.20245   0.00000  Uiso   1.00
H577   H     0.95310   0.39125   0.25362   0.00000  Uiso   1.00
H578   H     0.71360   0.60876   0.24641   0.00000  Uiso   1.00
H579   H     0.71642   0.33644   0.29762   0.00000  Uiso   1.00
H580   H     0.69442   0.66123   0.38286   0.00000  Uiso   1.00
H581   H     0.66815   0.59152   0.41737   0.00000  Uiso   1.00
H582   H     0.94769   0.44305   0.45417   0.00000  Uiso   1.00
H583   H     0.99606   0.53087   0.36664   0.00000  Uiso   1.00
H584   H     0.71204   0.38993   0.24856   0.00000  Uiso   1.00
H585   H     0.75890   0.66437   0.19452   0.00000  Uiso   1.00
H586   H     0.80923   0.34373   0.11054   0.00000  Uiso   1.00
H587   H     0.81073   0.41524   0.07995   0.00000  Uiso   1.00
H588   H     0.76053   0.47312   0.13293   0.00000  Uiso   1.00
H589   H     0.90616   0.52684   0.36705   0.00000  Uiso   1.00
H590   H     0.85588   0.58469   0.42005   0.00000  Uiso   1.00
H591   H     0.85734   0.65621   0.38952   0.00000  Uiso   1.00
H592   H     0.90771   0.33563   0.30558   0.00000  Uiso   1.00
H593   H     0.81632   0.52350   0.11247   0.00000  Uiso   1.00
H594   H     0.95461   0.61011   0.25149   0.00000  Uiso   1.00
H595   H     0.85032   0.47647   0.38753   0.00000  Uiso   1.00
H596   H     0.95680   0.48302   0.09641   0.00000  Uiso   1.00
H597   H     0.70988   0.51700   0.40357   0.00000  Uiso   1.00
H598   H     0.68857   0.53630   0.48660   0.00000  Uiso   1.00
H599   H     0.97809   0.46369   0.01340   0.00000  Uiso   1.00
H600   H     0.80307   0.62984   0.32560   0.00000  Uiso   1.00
N601   N     0.71426   0.50001   0.25001   0.00000  Uiso   1.00
N602   N     0.95241   0.49999   0.24999   0.00000  Uiso   1.00
O603   O     0.79512   0.56108   0.25000   0.00000  Uiso   1.00
O604   O     0.87154   0.43892   0.24999   0.00000  Uiso   1.00
O605   O     0.87157   0.56107   0.25000   0.00000  Uiso   1.00
O606   O     0.79510   0.43893   0.25000   0.00000  Uiso   1.00
O607   O     0.77328   0.50001   0.31612   0.00000  Uiso   1.00
O608   O     0.89339   0.49999   0.18387   0.00000  Uiso   1.00
O609   O     0.84972   0.50000   0.31612   0.00000  Uiso   1.00
O610   O     0.81695   0.50000   0.18388   0.00000  Uiso   1.00
Zn611  Zn    0.78229   0.50001   0.25000   0.00000  Uiso   1.00
Zn612  Zn    0.88438   0.49999   0.25000   0.00000  Uiso   1.00
C613   C     0.16670   0.91299   0.24991   0.00000  Uiso   1.00
C614   C     0.18393   0.97700   0.20641   0.00000  Uiso   1.00
C615   C     0.16649   0.70952   0.25056   0.00000  Uiso   1.00
C616   C     0.16684   0.95715   0.24944   0.00000  Uiso   1.00
C617   C     0.31978   0.80265   0.22527   0.00000  Uiso   1.00
C618   C     0.01356   0.86402   0.27473   0.00000  Uiso   1.00
C619   C     0.03424   0.80285   0.22489   0.00000  Uiso   1.00
C620   C     0.29910   0.86382   0.27511   0.00000  Uiso   1.00
C621   C     0.13585   0.83222   0.33810   0.00000  Uiso   1.00
C622   C     0.19749   0.83445   0.16190   0.00000  Uiso   1.00
C623   C     0.11611   0.83073   0.38972   0.00000  Uiso   1.00
C624   C     0.16664   0.75368   0.25009   0.00000  Uiso   1.00
C625   C     0.21721   0.83593   0.11027   0.00000  Uiso   1.00
C626   C     0.05673   0.85455   0.46601   0.00000  Uiso   1.00
C627   C     0.27659   0.81211   0.03399   0.00000  Uiso   1.00
C628   C     0.06902   0.84435   0.41839   0.00000  Uiso   1.00
C629   C     0.26430   0.82232   0.08160   0.00000  Uiso   1.00
C630   C     0.14762   0.81993   0.41053   0.00000  Uiso   1.00
C631   C     0.18570   0.84672   0.08947   0.00000  Uiso   1.00
C632   C     0.13571   0.82811   0.45862   0.00000  Uiso   1.00
C633   C     0.19760   0.83854   0.04138   0.00000  Uiso   1.00
C634   C     0.09118   0.84943   0.48528   0.00000  Uiso   1.00
C635   C     0.12188   0.87228   0.04297   0.00000  Uiso   1.00
C636   C     0.24213   0.81721   0.01473   0.00000  Uiso   1.00
C637   C     0.17002   0.82180   0.47861   0.00000  Uiso   1.00
C638   C     0.16329   0.84484   0.02140   0.00000  Uiso   1.00
C639   C     0.30828   0.76874   0.19756   0.00000  Uiso   1.00
C640   C     0.32234   0.77293   0.14903   0.00000  Uiso   1.00
C641   C     0.32066   0.73834   0.12021   0.00000  Uiso   1.00
C642   C     0.30634   0.69897   0.13957   0.00000  Uiso   1.00
C643   C     0.29390   0.69417   0.18768   0.00000  Uiso   1.00
C644   C     0.29477   0.72889   0.21666   0.00000  Uiso   1.00
C645   C     0.02504   0.89793   0.30246   0.00000  Uiso   1.00
C646   C     0.21143   0.79436   0.45704   0.00000  Uiso   1.00
C647   C     0.03857   0.93778   0.28337   0.00000  Uiso   1.00
C648   C     0.03944   0.97248   0.31237   0.00000  Uiso   1.00
C649   C     0.02696   0.96767   0.36049   0.00000  Uiso   1.00
C650   C     0.01260   0.92830   0.37983   0.00000  Uiso   1.00
C651   C     0.01095   0.89373   0.35099   0.00000  Uiso   1.00
C652   C     0.06947   0.76999   0.19537   0.00000  Uiso   1.00
C653   C     0.06801   0.72924   0.21217   0.00000  Uiso   1.00
C654   C     0.09395   0.69580   0.18153   0.00000  Uiso   1.00
C655   C     0.12218   0.70292   0.13411   0.00000  Uiso   1.00
C656   C     0.12334   0.74325   0.11697   0.00000  Uiso   1.00
C657   C     0.08435   0.87046   0.02776   0.00000  Uiso   1.00
C658   C     0.09617   0.77637   0.14726   0.00000  Uiso   1.00
C659   C     0.26386   0.89668   0.30464   0.00000  Uiso   1.00
C660   C     0.23717   0.89027   0.35274   0.00000  Uiso   1.00
C661   C     0.20995   0.92336   0.38305   0.00000  Uiso   1.00
C662   C     0.21109   0.96370   0.36594   0.00000  Uiso   1.00
C663   C     0.23933   0.97085   0.31854   0.00000  Uiso   1.00
C664   C     0.26530   0.93744   0.28787   0.00000  Uiso   1.00
C665   C     0.24895   0.79618   0.47225   0.00000  Uiso   1.00
C666   C     0.14961   0.97954   0.29276   0.00000  Uiso   1.00
C667   C     0.18371   0.68713   0.20723   0.00000  Uiso   1.00
C668   C     0.14939   0.68967   0.29360   0.00000  Uiso   1.00
Cl669  Cl    0.11878   0.91631   0.08124   0.00000  Uiso   1.00
Cl670  Cl    0.21454   0.75034   0.41875   0.00000  Uiso   1.00
Cl671  Cl    0.12776   0.71817   0.34841   0.00000  Uiso   1.00
Cl672  Cl    0.20555   0.94850   0.15160   0.00000  Uiso   1.00
H673   H     0.05228   0.89026   0.04584   0.00000  Uiso   1.00
H674   H     0.19691   0.70349   0.17439   0.00000  Uiso   1.00
H675   H     0.00389   0.80246   0.13336   0.00000  Uiso   1.00
H676   H     0.33175   0.74178   0.08268   0.00000  Uiso   1.00
H677   H     0.30554   0.67206   0.11721   0.00000  Uiso   1.00
H678   H     0.28361   0.99687   0.20245   0.00000  Uiso   1.00
H679   H     0.28643   0.72458   0.25362   0.00000  Uiso   1.00
H680   H     0.04694   0.94209   0.24641   0.00000  Uiso   1.00
H681   H     0.04976   0.66978   0.29762   0.00000  Uiso   1.00
H682   H     0.02775   0.99457   0.38286   0.00000  Uiso   1.00
H683   H     0.00148   0.92485   0.41737   0.00000  Uiso   1.00
H684   H     0.28102   0.77638   0.45417   0.00000  Uiso   1.00
H685   H     0.32939   0.86420   0.36664   0.00000  Uiso   1.00
H686   H     0.04537   0.72326   0.24856   0.00000  Uiso   1.00
H687   H     0.09223   0.99770   0.19452   0.00000  Uiso   1.00
H688   H     0.14256   0.67707   0.11054   0.00000  Uiso   1.00
H689   H     0.14406   0.74857   0.07995   0.00000  Uiso   1.00
H690   H     0.09387   0.80645   0.13293   0.00000  Uiso   1.00
H691   H     0.23949   0.86018   0.36705   0.00000  Uiso   1.00
H692   H     0.18922   0.91802   0.42005   0.00000  Uiso   1.00
H693   H     0.19068   0.98954   0.38952   0.00000  Uiso   1.00
H694   H     0.24104   0.66897   0.30558   0.00000  Uiso   1.00
H695   H     0.14966   0.85684   0.11247   0.00000  Uiso   1.00
H696   H     0.28794   0.94345   0.25149   0.00000  Uiso   1.00
H697   H     0.18365   0.80980   0.38753   0.00000  Uiso   1.00
H698   H     0.29013   0.81635   0.09641   0.00000  Uiso   1.00
H699   H     0.04321   0.85034   0.40357   0.00000  Uiso   1.00
H700   H     0.02190   0.86963   0.48660   0.00000  Uiso   1.00
H701   H     0.31142   0.79703   0.01340   0.00000  Uiso   1.00
H702   H     0.13640   0.96318   0.32560   0.00000  Uiso   1.00
N703   N     0.04759   0.83334   0.25001   0.00000  Uiso   1.00
N704   N     0.28574   0.83332   0.24999   0.00000  Uiso   1.00
O705   O     0.12846   0.89442   0.25000   0.00000  Uiso   1.00
O706   O     0.20488   0.77225   0.24999   0.00000  Uiso   1.00
O707   O     0.20490   0.89441   0.25000   0.00000  Uiso   1.00
O708   O     0.12843   0.77226   0.25000   0.00000  Uiso   1.00
O709   O     0.10661   0.83334   0.31612   0.00000  Uiso   1.00
O710   O     0.22672   0.83333   0.18387   0.00000  Uiso   1.00
O711   O     0.18305   0.83333   0.31612   0.00000  Uiso   1.00
O712   O     0.15028   0.83334   0.18388   0.00000  Uiso   1.00
Zn713  Zn    0.11562   0.83334   0.25000   0.00000  Uiso   1.00
Zn714  Zn    0.21771   0.83333   0.25000   0.00000  Uiso   1.00
C715   C     0.50003   0.91299   0.24991   0.00000  Uiso   1.00
C716   C     0.51726   0.97700   0.20641   0.00000  Uiso   1.00
C717   C     0.49983   0.70952   0.25056   0.00000  Uiso   1.00
C718   C     0.50017   0.95715   0.24944   0.00000  Uiso   1.00
C719   C     0.65311   0.80265   0.22527   0.00000  Uiso   1.00
C720   C     0.34689   0.86402   0.27473   0.00000  Uiso   1.00
C721   C     0.36757   0.80285   0.22489   0.00000  Uiso   1.00
C722   C     0.63243   0.86382   0.27511   0.00000  Uiso   1.00
C723   C     0.46918   0.83222   0.33810   0.00000  Uiso   1.00
C724   C     0.53082   0.83445   0.16190   0.00000  Uiso   1.00
C725   C     0.44945   0.83073   0.38972   0.00000  Uiso   1.00
C726   C     0.49997   0.75368   0.25009   0.00000  Uiso   1.00
C727   C     0.55055   0.83593   0.11027   0.00000  Uiso   1.00
C728   C     0.39007   0.85455   0.46601   0.00000  Uiso   1.00
C729   C     0.60992   0.81211   0.03399   0.00000  Uiso   1.00
C730   C     0.40236   0.84435   0.41839   0.00000  Uiso   1.00
C731   C     0.59764   0.82232   0.08160   0.00000  Uiso   1.00
C732   C     0.48095   0.81993   0.41053   0.00000  Uiso   1.00
C733   C     0.51903   0.84672   0.08947   0.00000  Uiso   1.00
C734   C     0.46905   0.82811   0.45862   0.00000  Uiso   1.00
C735   C     0.53093   0.83854   0.04138   0.00000  Uiso   1.00
C736   C     0.42452   0.84943   0.48528   0.00000  Uiso   1.00
C737   C     0.45521   0.87228   0.04297   0.00000  Uiso   1.00
C738   C     0.57546   0.81721   0.01473   0.00000  Uiso   1.00
C739   C     0.50335   0.82180   0.47861   0.00000  Uiso   1.00
C740   C     0.49662   0.84484   0.02140   0.00000  Uiso   1.00
C741   C     0.64161   0.76874   0.19756   0.00000  Uiso   1.00
C742   C     0.65567   0.77293   0.14903   0.00000  Uiso   1.00
C743   C     0.65399   0.73834   0.12021   0.00000  Uiso   1.00
C744   C     0.63968   0.69897   0.13957   0.00000  Uiso   1.00
C745   C     0.62723   0.69417   0.18768   0.00000  Uiso   1.00
C746   C     0.62811   0.72889   0.21666   0.00000  Uiso   1.00
C747   C     0.35838   0.89793   0.30246   0.00000  Uiso   1.00
C748   C     0.54476   0.79436   0.45704   0.00000  Uiso   1.00
C749   C     0.37190   0.93778   0.28337   0.00000  Uiso   1.00
C750   C     0.37277   0.97248   0.31237   0.00000  Uiso   1.00
C751   C     0.36029   0.96767   0.36049   0.00000  Uiso   1.00
C752   C     0.34594   0.92830   0.37983   0.00000  Uiso   1.00
C753   C     0.34428   0.89373   0.35099   0.00000  Uiso   1.00
C754   C     0.40281   0.76999   0.19537   0.00000  Uiso   1.00
C755   C     0.40134   0.72924   0.21217   0.00000  Uiso   1.00
C756   C     0.42728   0.69580   0.18153   0.00000  Uiso   1.00
C757   C     0.45551   0.70292   0.13411   0.00000  Uiso   1.00
C758   C     0.45668   0.74325   0.11697   0.00000  Uiso   1.00
C759   C     0.41769   0.87046   0.02776   0.00000  Uiso   1.00
C760   C     0.42950   0.77637   0.14726   0.00000  Uiso   1.00
C761   C     0.59719   0.89668   0.30464   0.00000  Uiso   1.00
C762   C     0.57050   0.89027   0.35274   0.00000  Uiso   1.00
C763   C     0.54328   0.92336   0.38305   0.00000  Uiso   1.00
C764   C     0.54442   0.96370   0.36594   0.00000  Uiso   1.00
C765   C     0.57267   0.97085   0.31854   0.00000  Uiso   1.00
C766   C     0.59864   0.93744   0.28787   0.00000  Uiso   1.00
C767   C     0.58228   0.79618   0.47225   0.00000  Uiso   1.00
C768   C     0.48294   0.97954   0.29276   0.00000  Uiso   1.00
C769   C     0.51705   0.68713   0.20723   0.00000  Uiso   1.00
C770   C     0.48273   0.68967   0.29360   0.00000  Uiso   1.00
Cl771  Cl    0.45211   0.91631   0.08124   0.00000  Uiso   1.00
Cl772  Cl    0.54787   0.75034   0.41875   0.00000  Uiso   1.00
Cl773  Cl    0.46109   0.71817   0.34841   0.00000  Uiso   1.00
Cl774  Cl    0.53889   0.94850   0.15160   0.00000  Uiso   1.00
H775   H     0.38562   0.89026   0.04584   0.00000  Uiso   1.00
H776   H     0.53024   0.70349   0.17439   0.00000  Uiso   1.00
H777   H     0.33722   0.80246   0.13336   0.00000  Uiso   1.00
H778   H     0.66508   0.74178   0.08268   0.00000  Uiso   1.00
H779   H     0.63888   0.67206   0.11721   0.00000  Uiso   1.00
H780   H     0.61694   0.99687   0.20245   0.00000  Uiso   1.00
H781   H     0.61977   0.72458   0.25362   0.00000  Uiso   1.00
H782   H     0.38027   0.94209   0.24641   0.00000  Uiso   1.00
H783   H     0.38309   0.66978   0.29762   0.00000  Uiso   1.00
H784   H     0.36108   0.99457   0.38286   0.00000  Uiso   1.00
H785   H     0.33481   0.92485   0.41737   0.00000  Uiso   1.00
H786   H     0.61436   0.77638   0.45417   0.00000  Uiso   1.00
H787   H     0.66272   0.86420   0.36664   0.00000  Uiso   1.00
H788   H     0.37870   0.72326   0.24856   0.00000  Uiso   1.00
H789   H     0.42556   0.99770   0.19452   0.00000  Uiso   1.00
H790   H     0.47590   0.67707   0.11054   0.00000  Uiso   1.00
H791   H     0.47740   0.74857   0.07995   0.00000  Uiso   1.00
H792   H     0.42720   0.80645   0.13293   0.00000  Uiso   1.00
H793   H     0.57283   0.86018   0.36705   0.00000  Uiso   1.00
H794   H     0.52255   0.91802   0.42005   0.00000  Uiso   1.00
H795   H     0.52401   0.98954   0.38952   0.00000  Uiso   1.00
H796   H     0.57438   0.66897   0.30558   0.00000  Uiso   1.00
H797   H     0.48299   0.85684   0.11247   0.00000  Uiso   1.00
H798   H     0.62128   0.94345   0.25149   0.00000  Uiso   1.00
H799   H     0.51699   0.80980   0.38753   0.00000  Uiso   1.00
H800   H     0.62347   0.81635   0.09641   0.00000  Uiso   1.00
H801   H     0.37654   0.85034   0.40357   0.00000  Uiso   1.00
H802   H     0.35524   0.86963   0.48660   0.00000  Uiso   1.00
H803   H     0.64475   0.79703   0.01340   0.00000  Uiso   1.00
H804   H     0.46973   0.96318   0.32560   0.00000  Uiso   1.00
N805   N     0.38093   0.83334   0.25001   0.00000  Uiso   1.00
N806   N     0.61907   0.83332   0.24999   0.00000  Uiso   1.00
O807   O     0.46179   0.89442   0.25000   0.00000  Uiso   1.00
O808   O     0.53821   0.77225   0.24999   0.00000  Uiso   1.00
O809   O     0.53823   0.89441   0.25000   0.00000  Uiso   1.00
O810   O     0.46177   0.77226   0.25000   0.00000  Uiso   1.00
O811   O     0.43994   0.83334   0.31612   0.00000  Uiso   1.00
O812   O     0.56006   0.83333   0.18387   0.00000  Uiso   1.00
O813   O     0.51639   0.83333   0.31612   0.00000  Uiso   1.00
O814   O     0.48361   0.83334   0.18388   0.00000  Uiso   1.00
Zn815  Zn    0.44896   0.83334   0.25000   0.00000  Uiso   1.00
Zn816  Zn    0.55104   0.83333   0.25000   0.00000  Uiso   1.00
C817   C     0.83336   0.91299   0.24991   0.00000  Uiso   1.00
C818   C     0.85059   0.97700   0.20641   0.00000  Uiso   1.00
C819   C     0.83316   0.70952   0.25056   0.00000  Uiso   1.00
C820   C     0.83351   0.95715   0.24944   0.00000  Uiso   1.00
C821   C     0.98644   0.80265   0.22527   0.00000  Uiso   1.00
C822   C     0.68022   0.86402   0.27473   0.00000  Uiso   1.00
C823   C     0.70091   0.80285   0.22489   0.00000  Uiso   1.00
C824   C     0.96576   0.86382   0.27511   0.00000  Uiso   1.00
C825   C     0.80251   0.83222   0.33810   0.00000  Uiso   1.00
C826   C     0.86415   0.83445   0.16190   0.00000  Uiso   1.00
C827   C     0.78278   0.83073   0.38972   0.00000  Uiso   1.00
C828   C     0.83330   0.75368   0.25009   0.00000  Uiso   1.00
C829   C     0.88388   0.83593   0.11027   0.00000  Uiso   1.00
C830   C     0.72340   0.85455   0.46601   0.00000  Uiso   1.00
C831   C     0.94325   0.81211   0.03399   0.00000  Uiso   1.00
C832   C     0.73569   0.84435   0.41839   0.00000  Uiso   1.00
C833   C     0.93097   0.82232   0.08160   0.00000  Uiso   1.00
C834   C     0.81428   0.81993   0.41053   0.00000  Uiso   1.00
C835   C     0.85237   0.84672   0.08947   0.00000  Uiso   1.00
C836   C     0.80238   0.82811   0.45862   0.00000  Uiso   1.00
C837   C     0.86426   0.83854   0.04138   0.00000  Uiso   1.00
C838   C     0.75785   0.84943   0.48528   0.00000  Uiso   1.00
C839   C     0.78855   0.87228   0.04297   0.00000  Uiso   1.00
C840   C     0.90879   0.81721   0.01473   0.00000  Uiso   1.00
C841   C     0.83669   0.82180   0.47861   0.00000  Uiso   1.00
C842   C     0.82995   0.84484   0.02140   0.00000  Uiso   1.00
C843   C     0.97495   0.76874   0.19756   0.00000  Uiso   1.00
C844   C     0.98901   0.77293   0.14903   0.00000  Uiso   1.00
C845   C     0.98733   0.73834   0.12021   0.00000  Uiso   1.00
C846   C     0.97301   0.69897   0.13957   0.00000  Uiso   1.00
C847   C     0.96057   0.69417   0.18768   0.00000  Uiso   1.00
C848   C     0.96144   0.72889   0.21666   0.00000  Uiso   1.00
C849   C     0.69171   0.89793   0.30246   0.00000  Uiso   1.00
C850   C     0.87809   0.79436   0.45704   0.00000  Uiso   1.00
C851   C     0.70523   0.93778   0.28337   0.00000  Uiso   1.00
C852   C     0.70610   0.97248   0.31237   0.00000  Uiso   1.00
C853   C     0.69362   0.96767   0.36049   0.00000  Uiso   1.00
C854   C     0.67927   0.92830   0.37983   0.00000  Uiso   1.00
C855   C     0.67761   0.89373   0.35099   0.00000  Uiso   1.00
C856   C     0.73614   0.76999   0.19537   0.00000  Uiso   1.00
C857   C     0.73468   0.72924   0.21217   0.00000  Uiso   1.00
C858   C     0.76061   0.69580   0.18153   0.00000  Uiso   1.00
C859   C     0.78884   0.70292   0.13411   0.00000  Uiso   1.00
C860   C     0.79001   0.74325   0.11697   0.00000  Uiso   1.00
C861   C     0.75102   0.87046   0.02776   0.00000  Uiso   1.00
C862   C     0.76283   0.77637   0.14726   0.00000  Uiso   1.00
C863   C     0.93053   0.89668   0.30464   0.00000  Uiso   1.00
C864   C     0.90383   0.89027   0.35274   0.00000  Uiso   1.00
C865   C     0.87661   0.92336   0.38305   0.00000  Uiso   1.00
C866   C     0.87775   0.96370   0.36594   0.00000  Uiso   1.00
C867   C     0.90600   0.97085   0.31854   0.00000  Uiso   1.00
C868   C     0.93197   0.93744   0.28787   0.00000  Uiso   1.00
C869   C     0.91562   0.79618   0.47225   0.00000  Uiso   1.00
C870   C     0.81627   0.97954   0.29276   0.00000  Uiso   1.00
C871   C     0.85038   0.68713   0.20723   0.00000  Uiso   1.00
C872   C     0.81606   0.68967   0.29360   0.00000  Uiso   1.00
Cl873  Cl    0.78544   0.91631   0.08124   0.00000  Uiso   1.00
Cl874  Cl    0.88121   0.75034   0.41875   0.00000  Uiso   1.00
Cl875  Cl    0.79443   0.71817   0.34841   0.00000  Uiso   1.00
Cl876  Cl    0.87222   0.94850   0.15160   0.00000  Uiso   1.00
H877   H     0.71895   0.89026   0.04584   0.00000  Uiso   1.00
H878   H     0.86357   0.70349   0.17439   0.00000  Uiso   1.00
H879   H     0.67055   0.80246   0.13336   0.00000  Uiso   1.00
H880   H     0.99841   0.74178   0.08268   0.00000  Uiso   1.00
H881   H     0.97221   0.67206   0.11721   0.00000  Uiso   1.00
H882   H     0.95028   0.99687   0.20245   0.00000  Uiso   1.00
H883   H     0.95310   0.72458   0.25362   0.00000  Uiso   1.00
H884   H     0.71360   0.94209   0.24641   0.00000  Uiso   1.00
H885   H     0.71642   0.66978   0.29762   0.00000  Uiso   1.00
H886   H     0.69442   0.99457   0.38286   0.00000  Uiso   1.00
H887   H     0.66815   0.92485   0.41737   0.00000  Uiso   1.00
H888   H     0.94769   0.77638   0.45417   0.00000  Uiso   1.00
H889   H     0.99606   0.86420   0.36664   0.00000  Uiso   1.00
H890   H     0.71204   0.72326   0.24856   0.00000  Uiso   1.00
H891   H     0.75890   0.99770   0.19452   0.00000  Uiso   1.00
H892   H     0.80923   0.67707   0.11054   0.00000  Uiso   1.00
H893   H     0.81073   0.74857   0.07995   0.00000  Uiso   1.00
H894   H     0.76053   0.80645   0.13293   0.00000  Uiso   1.00
H895   H     0.90616   0.86018   0.36705   0.00000  Uiso   1.00
H896   H     0.85588   0.91802   0.42005   0.00000  Uiso   1.00
H897   H     0.85734   0.98954   0.38952   0.00000  Uiso   1.00
H898   H     0.90771   0.66897   0.30558   0.00000  Uiso   1.00
H899   H     0.81632   0.85684   0.11247   0.00000  Uiso   1.00
H900   H     0.95461   0.94345   0.25149   0.00000  Uiso   1.00
H901   H     0.85032   0.80980   0.38753   0.00000  Uiso   1.00
H902   H     0.95680   0.81635   0.09641   0.00000  Uiso   1.00
H903   H     0.70988   0.85034   0.40357   0.00000  Uiso   1.00
H904   H     0.68857   0.86963   0.48660   0.00000  Uiso   1.00
H905   H     0.97809   0.79703   0.01340   0.00000  Uiso   1.00
H906   H     0.80307   0.96318   0.32560   0.00000  Uiso   1.00
N907   N     0.71426   0.83334   0.25001   0.00000  Uiso   1.00
N908   N     0.95241   0.83332   0.24999   0.00000  Uiso   1.00
O909   O     0.79512   0.89442   0.25000   0.00000  Uiso   1.00
O910   O     0.87154   0.77225   0.24999   0.00000  Uiso   1.00
O911   O     0.87157   0.89441   0.25000   0.00000  Uiso   1.00
O912   O     0.79510   0.77226   0.25000   0.00000  Uiso   1.00
O913   O     0.77328   0.83334   0.31612   0.00000  Uiso   1.00
O914   O     0.89339   0.83333   0.18387   0.00000  Uiso   1.00
O915   O     0.84972   0.83333   0.31612   0.00000  Uiso   1.00
O916   O     0.81695   0.83334   0.18388   0.00000  Uiso   1.00
Zn917  Zn    0.78229   0.83334   0.25000   0.00000  Uiso   1.00
Zn918  Zn    0.88438   0.83333   0.25000   0.00000  Uiso   1.00
C919   C     0.16670   0.24632   0.74991   0.00000  Uiso   1.00
C920   C     0.18393   0.31033   0.70641   0.00000  Uiso   1.00
C921   C     0.16649   0.04285   0.75056   0.00000  Uiso   1.00
C922   C     0.16684   0.29048   0.74944   0.00000  Uiso   1.00
C923   C     0.31978   0.13598   0.72527   0.00000  Uiso   1.00
C924   C     0.01356   0.19736   0.77473   0.00000  Uiso   1.00
C925   C     0.03424   0.13618   0.72489   0.00000  Uiso   1.00
C926   C     0.29910   0.19715   0.77511   0.00000  Uiso   1.00
C927   C     0.13585   0.16555   0.83810   0.00000  Uiso   1.00
C928   C     0.19749   0.16778   0.66190   0.00000  Uiso   1.00
C929   C     0.11611   0.16406   0.88972   0.00000  Uiso   1.00
C930   C     0.16664   0.08701   0.75009   0.00000  Uiso   1.00
C931   C     0.21721   0.16927   0.61027   0.00000  Uiso   1.00
C932   C     0.05673   0.18788   0.96601   0.00000  Uiso   1.00
C933   C     0.27659   0.14544   0.53399   0.00000  Uiso   1.00
C934   C     0.06902   0.17769   0.91839   0.00000  Uiso   1.00
C935   C     0.26430   0.15565   0.58160   0.00000  Uiso   1.00
C936   C     0.14762   0.15326   0.91053   0.00000  Uiso   1.00
C937   C     0.18570   0.18005   0.58947   0.00000  Uiso   1.00
C938   C     0.13571   0.16144   0.95862   0.00000  Uiso   1.00
C939   C     0.19760   0.17187   0.54138   0.00000  Uiso   1.00
C940   C     0.09118   0.18276   0.98528   0.00000  Uiso   1.00
C941   C     0.12188   0.20561   0.54297   0.00000  Uiso   1.00
C942   C     0.24213   0.15055   0.51473   0.00000  Uiso   1.00
C943   C     0.17002   0.15514   0.97861   0.00000  Uiso   1.00
C944   C     0.16329   0.17817   0.52140   0.00000  Uiso   1.00
C945   C     0.30828   0.10207   0.69756   0.00000  Uiso   1.00
C946   C     0.32234   0.10626   0.64903   0.00000  Uiso   1.00
C947   C     0.32066   0.07167   0.62021   0.00000  Uiso   1.00
C948   C     0.30634   0.03230   0.63957   0.00000  Uiso   1.00
C949   C     0.29390   0.02750   0.68768   0.00000  Uiso   1.00
C950   C     0.29477   0.06222   0.71666   0.00000  Uiso   1.00
C951   C     0.02504   0.23126   0.80246   0.00000  Uiso   1.00
C952   C     0.21143   0.12770   0.95704   0.00000  Uiso   1.00
C953   C     0.03857   0.27111   0.78337   0.00000  Uiso   1.00
C954   C     0.03944   0.30581   0.81237   0.00000  Uiso   1.00
C955   C     0.02696   0.30100   0.86049   0.00000  Uiso   1.00
C956   C     0.01260   0.26164   0.87983   0.00000  Uiso   1.00
C957   C     0.01095   0.22706   0.85099   0.00000  Uiso   1.00
C958   C     0.06947   0.10332   0.69537   0.00000  Uiso   1.00
C959   C     0.06801   0.06257   0.71217   0.00000  Uiso   1.00
C960   C     0.09395   0.02913   0.68153   0.00000  Uiso   1.00
C961   C     0.12218   0.03625   0.63411   0.00000  Uiso   1.00
C962   C     0.12334   0.07658   0.61697   0.00000  Uiso   1.00
C963   C     0.08435   0.20380   0.52776   0.00000  Uiso   1.00
C964   C     0.09617   0.10970   0.64726   0.00000  Uiso   1.00
C965   C     0.26386   0.23001   0.80464   0.00000  Uiso   1.00
C966   C     0.23717   0.22360   0.85274   0.00000  Uiso   1.00
C967   C     0.20995   0.25670   0.88305   0.00000  Uiso   1.00
C968   C     0.21109   0.29704   0.86594   0.00000  Uiso   1.00
C969   C     0.23933   0.30419   0.81854   0.00000  Uiso   1.00
C970   C     0.26530   0.27077   0.78787   0.00000  Uiso   1.00
C971   C     0.24895   0.12951   0.97225   0.00000  Uiso   1.00
C972   C     0.14961   0.31288   0.79276   0.00000  Uiso   1.00
C973   C     0.18371   0.02046   0.70723   0.00000  Uiso   1.00
C974   C     0.14939   0.02300   0.79360   0.00000  Uiso   1.00
Cl975  Cl    0.11878   0.24964   0.58124   0.00000  Uiso   1.00
Cl976  Cl    0.21454   0.08368   0.91875   0.00000  Uiso   1.00
Cl977  Cl    0.12776   0.05150   0.84841   0.00000  Uiso   1.00
Cl978  Cl    0.20555   0.28184   0.65160   0.00000  Uiso   1.00
H979   H     0.05228   0.22359   0.54584   0.00000  Uiso   1.00
H980   H     0.19691   0.03683   0.67439   0.00000  Uiso   1.00
H981   H     0.00389   0.13579   0.63336   0.00000  Uiso   1.00
H982   H     0.33175   0.07512   0.58268   0.00000  Uiso   1.00
H983   H     0.30554   0.00539   0.61721   0.00000  Uiso   1.00
H984   H     0.28361   0.33020   0.70245   0.00000  Uiso   1.00
H985   H     0.28643   0.05791   0.75362   0.00000  Uiso   1.00
H986   H     0.04694   0.27543   0.74641   0.00000  Uiso   1.00
H987   H     0.04976   0.00311   0.79762   0.00000  Uiso   1.00
H988   H     0.02775   0.32790   0.88286   0.00000  Uiso   1.00
H989   H     0.00148   0.25819   0.91737   0.00000  Uiso   1.00
H990   H     0.28102   0.10972   0.95417   0.00000  Uiso   1.00
H991   H     0.32939   0.19754   0.86664   0.00000  Uiso   1.00
H992   H     0.04537   0.05659   0.74856   0.00000  Uiso   1.00
H993   H     0.09223   0.33103   0.69452   0.00000  Uiso   1.00
H994   H     0.14256   0.01040   0.61054   0.00000  Uiso   1.00
H995   H     0.14406   0.08190   0.57995   0.00000  Uiso   1.00
H996   H     0.09387   0.13979   0.63293   0.00000  Uiso   1.00
H997   H     0.23949   0.19351   0.86705   0.00000  Uiso   1.00
H998   H     0.18922   0.25136   0.92005   0.00000  Uiso   1.00
H999   H     0.19068   0.32288   0.88952   0.00000  Uiso   1.00
H1000  H     0.24104   0.00230   0.80558   0.00000  Uiso   1.00
H1001  H     0.14966   0.19017   0.61247   0.00000  Uiso   1.00
H1002  H     0.28794   0.27678   0.75149   0.00000  Uiso   1.00
H1003  H     0.18365   0.14313   0.88753   0.00000  Uiso   1.00
H1004  H     0.29013   0.14969   0.59641   0.00000  Uiso   1.00
H1005  H     0.04321   0.18367   0.90357   0.00000  Uiso   1.00
H1006  H     0.02190   0.20297   0.98660   0.00000  Uiso   1.00
H1007  H     0.31142   0.13036   0.51340   0.00000  Uiso   1.00
H1008  H     0.13640   0.29651   0.82560   0.00000  Uiso   1.00
N1009  N     0.04759   0.16668   0.75001   0.00000  Uiso   1.00
N1010  N     0.28574   0.16666   0.74999   0.00000  Uiso   1.00
O1011  O     0.12846   0.22775   0.75000   0.00000  Uiso   1.00
O1012  O     0.20488   0.10558   0.74999   0.00000  Uiso   1.00
O1013  O     0.20490   0.22774   0.75000   0.00000  Uiso   1.00
O1014  O     0.12843   0.10559   0.75000   0.00000  Uiso   1.00
O1015  O     0.10661   0.16667   0.81612   0.00000  Uiso   1.00
O1016  O     0.22672   0.16666   0.68387   0.00000  Uiso   1.00
O1017  O     0.18305   0.16666   0.81612   0.00000  Uiso   1.00
O1018  O     0.15028   0.16667   0.68388   0.00000  Uiso   1.00
Zn1019 Zn    0.11562   0.16667   0.75000   0.00000  Uiso   1.00
Zn1020 Zn    0.21771   0.16666   0.75000   0.00000  Uiso   1.00
C1021  C     0.50003   0.24632   0.74991   0.00000  Uiso   1.00
C1022  C     0.51726   0.31033   0.70641   0.00000  Uiso   1.00
C1023  C     0.49983   0.04285   0.75056   0.00000  Uiso   1.00
C1024  C     0.50017   0.29048   0.74944   0.00000  Uiso   1.00
C1025  C     0.65311   0.13598   0.72527   0.00000  Uiso   1.00
C1026  C     0.34689   0.19736   0.77473   0.00000  Uiso   1.00
C1027  C     0.36757   0.13618   0.72489   0.00000  Uiso   1.00
C1028  C     0.63243   0.19715   0.77511   0.00000  Uiso   1.00
C1029  C     0.46918   0.16555   0.83810   0.00000  Uiso   1.00
C1030  C     0.53082   0.16778   0.66190   0.00000  Uiso   1.00
C1031  C     0.44945   0.16406   0.88972   0.00000  Uiso   1.00
C1032  C     0.49997   0.08701   0.75009   0.00000  Uiso   1.00
C1033  C     0.55055   0.16927   0.61027   0.00000  Uiso   1.00
C1034  C     0.39007   0.18788   0.96601   0.00000  Uiso   1.00
C1035  C     0.60992   0.14544   0.53399   0.00000  Uiso   1.00
C1036  C     0.40236   0.17769   0.91839   0.00000  Uiso   1.00
C1037  C     0.59764   0.15565   0.58160   0.00000  Uiso   1.00
C1038  C     0.48095   0.15326   0.91053   0.00000  Uiso   1.00
C1039  C     0.51903   0.18005   0.58947   0.00000  Uiso   1.00
C1040  C     0.46905   0.16144   0.95862   0.00000  Uiso   1.00
C1041  C     0.53093   0.17187   0.54138   0.00000  Uiso   1.00
C1042  C     0.42452   0.18276   0.98528   0.00000  Uiso   1.00
C1043  C     0.45521   0.20561   0.54297   0.00000  Uiso   1.00
C1044  C     0.57546   0.15055   0.51473   0.00000  Uiso   1.00
C1045  C     0.50335   0.15514   0.97861   0.00000  Uiso   1.00
C1046  C     0.49662   0.17817   0.52140   0.00000  Uiso   1.00
C1047  C     0.64161   0.10207   0.69756   0.00000  Uiso   1.00
C1048  C     0.65567   0.10626   0.64903   0.00000  Uiso   1.00
C1049  C     0.65399   0.07167   0.62021   0.00000  Uiso   1.00
C1050  C     0.63968   0.03230   0.63957   0.00000  Uiso   1.00
C1051  C     0.62723   0.02750   0.68768   0.00000  Uiso   1.00
C1052  C     0.62811   0.06222   0.71666   0.00000  Uiso   1.00
C1053  C     0.35838   0.23126   0.80246   0.00000  Uiso   1.00
C1054  C     0.54476   0.12770   0.95704   0.00000  Uiso   1.00
C1055  C     0.37190   0.27111   0.78337   0.00000  Uiso   1.00
C1056  C     0.37277   0.30581   0.81237   0.00000  Uiso   1.00
C1057  C     0.36029   0.30100   0.86049   0.00000  Uiso   1.00
C1058  C     0.34594   0.26164   0.87983   0.00000  Uiso   1.00
C1059  C     0.34428   0.22706   0.85099   0.00000  Uiso   1.00
C1060  C     0.40281   0.10332   0.69537   0.00000  Uiso   1.00
C1061  C     0.40134   0.06257   0.71217   0.00000  Uiso   1.00
C1062  C     0.42728   0.02913   0.68153   0.00000  Uiso   1.00
C1063  C     0.45551   0.03625   0.63411   0.00000  Uiso   1.00
C1064  C     0.45668   0.07658   0.61697   0.00000  Uiso   1.00
C1065  C     0.41769   0.20380   0.52776   0.00000  Uiso   1.00
C1066  C     0.42950   0.10970   0.64726   0.00000  Uiso   1.00
C1067  C     0.59719   0.23001   0.80464   0.00000  Uiso   1.00
C1068  C     0.57050   0.22360   0.85274   0.00000  Uiso   1.00
C1069  C     0.54328   0.25670   0.88305   0.00000  Uiso   1.00
C1070  C     0.54442   0.29704   0.86594   0.00000  Uiso   1.00
C1071  C     0.57267   0.30419   0.81854   0.00000  Uiso   1.00
C1072  C     0.59864   0.27077   0.78787   0.00000  Uiso   1.00
C1073  C     0.58228   0.12951   0.97225   0.00000  Uiso   1.00
C1074  C     0.48294   0.31288   0.79276   0.00000  Uiso   1.00
C1075  C     0.51705   0.02046   0.70723   0.00000  Uiso   1.00
C1076  C     0.48273   0.02300   0.79360   0.00000  Uiso   1.00
Cl1077 Cl    0.45211   0.24964   0.58124   0.00000  Uiso   1.00
Cl1078 Cl    0.54787   0.08368   0.91875   0.00000  Uiso   1.00
Cl1079 Cl    0.46109   0.05150   0.84841   0.00000  Uiso   1.00
Cl1080 Cl    0.53889   0.28184   0.65160   0.00000  Uiso   1.00
H1081  H     0.38562   0.22359   0.54584   0.00000  Uiso   1.00
H1082  H     0.53024   0.03683   0.67439   0.00000  Uiso   1.00
H1083  H     0.33722   0.13579   0.63336   0.00000  Uiso   1.00
H1084  H     0.66508   0.07512   0.58268   0.00000  Uiso   1.00
H1085  H     0.63888   0.00539   0.61721   0.00000  Uiso   1.00
H1086  H     0.61694   0.33020   0.70245   0.00000  Uiso   1.00
H1087  H     0.61977   0.05791   0.75362   0.00000  Uiso   1.00
H1088  H     0.38027   0.27543   0.74641   0.00000  Uiso   1.00
H1089  H     0.38309   0.00311   0.79762   0.00000  Uiso   1.00
H1090  H     0.36108   0.32790   0.88286   0.00000  Uiso   1.00
H1091  H     0.33481   0.25819   0.91737   0.00000  Uiso   1.00
H1092  H     0.61436   0.10972   0.95417   0.00000  Uiso   1.00
H1093  H     0.66272   0.19754   0.86664   0.00000  Uiso   1.00
H1094  H     0.37870   0.05659   0.74856   0.00000  Uiso   1.00
H1095  H     0.42556   0.33103   0.69452   0.00000  Uiso   1.00
H1096  H     0.47590   0.01040   0.61054   0.00000  Uiso   1.00
H1097  H     0.47740   0.08190   0.57995   0.00000  Uiso   1.00
H1098  H     0.42720   0.13979   0.63293   0.00000  Uiso   1.00
H1099  H     0.57283   0.19351   0.86705   0.00000  Uiso   1.00
H1100  H     0.52255   0.25136   0.92005   0.00000  Uiso   1.00
H1101  H     0.52401   0.32288   0.88952   0.00000  Uiso   1.00
H1102  H     0.57438   0.00230   0.80558   0.00000  Uiso   1.00
H1103  H     0.48299   0.19017   0.61247   0.00000  Uiso   1.00
H1104  H     0.62128   0.27678   0.75149   0.00000  Uiso   1.00
H1105  H     0.51699   0.14313   0.88753   0.00000  Uiso   1.00
H1106  H     0.62347   0.14969   0.59641   0.00000  Uiso   1.00
H1107  H     0.37654   0.18367   0.90357   0.00000  Uiso   1.00
H1108  H     0.35524   0.20297   0.98660   0.00000  Uiso   1.00
H1109  H     0.64475   0.13036   0.51340   0.00000  Uiso   1.00
H1110  H     0.46973   0.29651   0.82560   0.00000  Uiso   1.00
N1111  N     0.38093   0.16668   0.75001   0.00000  Uiso   1.00
N1112  N     0.61907   0.16666   0.74999   0.00000  Uiso   1.00
O1113  O     0.46179   0.22775   0.75000   0.00000  Uiso   1.00
O1114  O     0.53821   0.10558   0.74999   0.00000  Uiso   1.00
O1115  O     0.53823   0.22774   0.75000   0.00000  Uiso   1.00
O1116  O     0.46177   0.10559   0.75000   0.00000  Uiso   1.00
O1117  O     0.43994   0.16667   0.81612   0.00000  Uiso   1.00
O1118  O     0.56006   0.16666   0.68387   0.00000  Uiso   1.00
O1119  O     0.51639   0.16666   0.81612   0.00000  Uiso   1.00
O1120  O     0.48361   0.16667   0.68388   0.00000  Uiso   1.00
Zn1121 Zn    0.44896   0.16667   0.75000   0.00000  Uiso   1.00
Zn1122 Zn    0.55104   0.16666   0.75000   0.00000  Uiso   1.00
C1123  C     0.83336   0.24632   0.74991   0.00000  Uiso   1.00
C1124  C     0.85059   0.31033   0.70641   0.00000  Uiso   1.00
C1125  C     0.83316   0.04285   0.75056   0.00000  Uiso   1.00
C1126  C     0.83351   0.29048   0.74944   0.00000  Uiso   1.00
C1127  C     0.98644   0.13598   0.72527   0.00000  Uiso   1.00
C1128  C     0.68022   0.19736   0.77473   0.00000  Uiso   1.00
C1129  C     0.70091   0.13618   0.72489   0.00000  Uiso   1.00
C1130  C     0.96576   0.19715   0.77511   0.00000  Uiso   1.00
C1131  C     0.80251   0.16555   0.83810   0.00000  Uiso   1.00
C1132  C     0.86415   0.16778   0.66190   0.00000  Uiso   1.00
C1133  C     0.78278   0.16406   0.88972   0.00000  Uiso   1.00
C1134  C     0.83330   0.08701   0.75009   0.00000  Uiso   1.00
C1135  C     0.88388   0.16927   0.61027   0.00000  Uiso   1.00
C1136  C     0.72340   0.18788   0.96601   0.00000  Uiso   1.00
C1137  C     0.94325   0.14544   0.53399   0.00000  Uiso   1.00
C1138  C     0.73569   0.17769   0.91839   0.00000  Uiso   1.00
C1139  C     0.93097   0.15565   0.58160   0.00000  Uiso   1.00
C1140  C     0.81428   0.15326   0.91053   0.00000  Uiso   1.00
C1141  C     0.85237   0.18005   0.58947   0.00000  Uiso   1.00
C1142  C     0.80238   0.16144   0.95862   0.00000  Uiso   1.00
C1143  C     0.86426   0.17187   0.54138   0.00000  Uiso   1.00
C1144  C     0.75785   0.18276   0.98528   0.00000  Uiso   1.00
C1145  C     0.78855   0.20561   0.54297   0.00000  Uiso   1.00
C1146  C     0.90879   0.15055   0.51473   0.00000  Uiso   1.00
C1147  C     0.83669   0.15514   0.97861   0.00000  Uiso   1.00
C1148  C     0.82995   0.17817   0.52140   0.00000  Uiso   1.00
C1149  C     0.97495   0.10207   0.69756   0.00000  Uiso   1.00
C1150  C     0.98901   0.10626   0.64903   0.00000  Uiso   1.00
C1151  C     0.98733   0.07167   0.62021   0.00000  Uiso   1.00
C1152  C     0.97301   0.03230   0.63957   0.00000  Uiso   1.00
C1153  C     0.96057   0.02750   0.68768   0.00000  Uiso   1.00
C1154  C     0.96144   0.06222   0.71666   0.00000  Uiso   1.00
C1155  C     0.69171   0.23126   0.80246   0.00000  Uiso   1.00
C1156  C     0.87809   0.12770   0.95704   0.00000  Uiso   1.00
C1157  C     0.70523   0.27111   0.78337   0.00000  Uiso   1.00
C1158  C     0.70610   0.30581   0.81237   0.00000  Uiso   1.00
C1159  C     0.69362   0.30100   0.86049   0.00000  Uiso   1.00
C1160  C     0.67927   0.26164   0.87983   0.00000  Uiso   1.00
C1161  C     0.67761   0.22706   0.85099   0.00000  Uiso   1.00
C1162  C     0.73614   0.10332   0.69537   0.00000  Uiso   1.00
C1163  C     0.73468   0.06257   0.71217   0.00000  Uiso   1.00
C1164  C     0.76061   0.02913   0.68153   0.00000  Uiso   1.00
C1165  C     0.78884   0.03625   0.63411   0.00000  Uiso   1.00
C1166  C     0.79001   0.07658   0.61697   0.00000  Uiso   1.00
C1167  C     0.75102   0.20380   0.52776   0.00000  Uiso   1.00
C1168  C     0.76283   0.10970   0.64726   0.00000  Uiso   1.00
C1169  C     0.93053   0.23001   0.80464   0.00000  Uiso   1.00
C1170  C     0.90383   0.22360   0.85274   0.00000  Uiso   1.00
C1171  C     0.87661   0.25670   0.88305   0.00000  Uiso   1.00
C1172  C     0.87775   0.29704   0.86594   0.00000  Uiso   1.00
C1173  C     0.90600   0.30419   0.81854   0.00000  Uiso   1.00
C1174  C     0.93197   0.27077   0.78787   0.00000  Uiso   1.00
C1175  C     0.91562   0.12951   0.97225   0.00000  Uiso   1.00
C1176  C     0.81627   0.31288   0.79276   0.00000  Uiso   1.00
C1177  C     0.85038   0.02046   0.70723   0.00000  Uiso   1.00
C1178  C     0.81606   0.02300   0.79360   0.00000  Uiso   1.00
Cl1179 Cl    0.78544   0.24964   0.58124   0.00000  Uiso   1.00
Cl1180 Cl    0.88121   0.08368   0.91875   0.00000  Uiso   1.00
Cl1181 Cl    0.79443   0.05150   0.84841   0.00000  Uiso   1.00
Cl1182 Cl    0.87222   0.28184   0.65160   0.00000  Uiso   1.00
H1183  H     0.71895   0.22359   0.54584   0.00000  Uiso   1.00
H1184  H     0.86357   0.03683   0.67439   0.00000  Uiso   1.00
H1185  H     0.67055   0.13579   0.63336   0.00000  Uiso   1.00
H1186  H     0.99841   0.07512   0.58268   0.00000  Uiso   1.00
H1187  H     0.97221   0.00539   0.61721   0.00000  Uiso   1.00
H1188  H     0.95028   0.33020   0.70245   0.00000  Uiso   1.00
H1189  H     0.95310   0.05791   0.75362   0.00000  Uiso   1.00
H1190  H     0.71360   0.27543   0.74641   0.00000  Uiso   1.00
H1191  H     0.71642   0.00311   0.79762   0.00000  Uiso   1.00
H1192  H     0.69442   0.32790   0.88286   0.00000  Uiso   1.00
H1193  H     0.66815   0.25819   0.91737   0.00000  Uiso   1.00
H1194  H     0.94769   0.10972   0.95417   0.00000  Uiso   1.00
H1195  H     0.99606   0.19754   0.86664   0.00000  Uiso   1.00
H1196  H     0.71204   0.05659   0.74856   0.00000  Uiso   1.00
H1197  H     0.75890   0.33103   0.69452   0.00000  Uiso   1.00
H1198  H     0.80923   0.01040   0.61054   0.00000  Uiso   1.00
H1199  H     0.81073   0.08190   0.57995   0.00000  Uiso   1.00
H1200  H     0.76053   0.13979   0.63293   0.00000  Uiso   1.00
H1201  H     0.90616   0.19351   0.86705   0.00000  Uiso   1.00
H1202  H     0.85588   0.25136   0.92005   0.00000  Uiso   1.00
H1203  H     0.85734   0.32288   0.88952   0.00000  Uiso   1.00
H1204  H     0.90771   0.00230   0.80558   0.00000  Uiso   1.00
H1205  H     0.81632   0.19017   0.61247   0.00000  Uiso   1.00
H1206  H     0.95461   0.27678   0.75149   0.00000  Uiso   1.00
H1207  H     0.85032   0.14313   0.88753   0.00000  Uiso   1.00
H1208  H     0.95680   0.14969   0.59641   0.00000  Uiso   1.00
H1209  H     0.70988   0.18367   0.90357   0.00000  Uiso   1.00
H1210  H     0.68857   0.20297   0.98660   0.00000  Uiso   1.00
H1211  H     0.97809   0.13036   0.51340   0.00000  Uiso   1.00
H1212  H     0.80307   0.29651   0.82560   0.00000  Uiso   1.00
N1213  N     0.71426   0.16668   0.75001   0.00000  Uiso   1.00
N1214  N     0.95241   0.16666   0.74999   0.00000  Uiso   1.00
O1215  O     0.79512   0.22775   0.75000   0.00000  Uiso   1.00
O1216  O     0.87154   0.10558   0.74999   0.00000  Uiso   1.00
O1217  O     0.87157   0.22774   0.75000   0.00000  Uiso   1.00
O1218  O     0.79510   0.10559   0.75000   0.00000  Uiso   1.00
O1219  O     0.77328   0.16667   0.81612   0.00000  Uiso   1.00
O1220  O     0.89339   0.16666   0.68387   0.00000  Uiso   1.00
O1221  O     0.84972   0.16666   0.81612   0.00000  Uiso   1.00
O1222  O     0.81695   0.16667   0.68388   0.00000  Uiso   1.00
Zn1223 Zn    0.78229   0.16667   0.75000   0.00000  Uiso   1.00
Zn1224 Zn    0.88438   0.16666   0.75000   0.00000  Uiso   1.00
C1225  C     0.16670   0.57966   0.74991   0.00000  Uiso   1.00
C1226  C     0.18393   0.64366   0.70641   0.00000  Uiso   1.00
C1227  C     0.16649   0.37619   0.75056   0.00000  Uiso   1.00
C1228  C     0.16684   0.62381   0.74944   0.00000  Uiso   1.00
C1229  C     0.31978   0.46931   0.72527   0.00000  Uiso   1.00
C1230  C     0.01356   0.53069   0.77473   0.00000  Uiso   1.00
C1231  C     0.03424   0.46952   0.72489   0.00000  Uiso   1.00
C1232  C     0.29910   0.53049   0.77511   0.00000  Uiso   1.00
C1233  C     0.13585   0.49889   0.83810   0.00000  Uiso   1.00
C1234  C     0.19749   0.50111   0.66190   0.00000  Uiso   1.00
C1235  C     0.11611   0.49740   0.88972   0.00000  Uiso   1.00
C1236  C     0.16664   0.42034   0.75009   0.00000  Uiso   1.00
C1237  C     0.21721   0.50260   0.61027   0.00000  Uiso   1.00
C1238  C     0.05673   0.52121   0.96601   0.00000  Uiso   1.00
C1239  C     0.27659   0.47878   0.53399   0.00000  Uiso   1.00
C1240  C     0.06902   0.51102   0.91839   0.00000  Uiso   1.00
C1241  C     0.26430   0.48899   0.58160   0.00000  Uiso   1.00
C1242  C     0.14762   0.48660   0.91053   0.00000  Uiso   1.00
C1243  C     0.18570   0.51338   0.58947   0.00000  Uiso   1.00
C1244  C     0.13571   0.49477   0.95862   0.00000  Uiso   1.00
C1245  C     0.19760   0.50520   0.54138   0.00000  Uiso   1.00
C1246  C     0.09118   0.51610   0.98528   0.00000  Uiso   1.00
C1247  C     0.12188   0.53894   0.54297   0.00000  Uiso   1.00
C1248  C     0.24213   0.48388   0.51473   0.00000  Uiso   1.00
C1249  C     0.17002   0.48847   0.97861   0.00000  Uiso   1.00
C1250  C     0.16329   0.51150   0.52140   0.00000  Uiso   1.00
C1251  C     0.30828   0.43540   0.69756   0.00000  Uiso   1.00
C1252  C     0.32234   0.43959   0.64903   0.00000  Uiso   1.00
C1253  C     0.32066   0.40501   0.62021   0.00000  Uiso   1.00
C1254  C     0.30634   0.36564   0.63957   0.00000  Uiso   1.00
C1255  C     0.29390   0.36084   0.68768   0.00000  Uiso   1.00
C1256  C     0.29477   0.39555   0.71666   0.00000  Uiso   1.00
C1257  C     0.02504   0.56459   0.80246   0.00000  Uiso   1.00
C1258  C     0.21143   0.46103   0.95704   0.00000  Uiso   1.00
C1259  C     0.03857   0.60445   0.78337   0.00000  Uiso   1.00
C1260  C     0.03944   0.63914   0.81237   0.00000  Uiso   1.00
C1261  C     0.02696   0.63433   0.86049   0.00000  Uiso   1.00
C1262  C     0.01260   0.59497   0.87983   0.00000  Uiso   1.00
C1263  C     0.01095   0.56040   0.85099   0.00000  Uiso   1.00
C1264  C     0.06947   0.43665   0.69537   0.00000  Uiso   1.00
C1265  C     0.06801   0.39590   0.71217   0.00000  Uiso   1.00
C1266  C     0.09395   0.36247   0.68153   0.00000  Uiso   1.00
C1267  C     0.12218   0.36959   0.63411   0.00000  Uiso   1.00
C1268  C     0.12334   0.40992   0.61697   0.00000  Uiso   1.00
C1269  C     0.08435   0.53713   0.52776   0.00000  Uiso   1.00
C1270  C     0.09617   0.44304   0.64726   0.00000  Uiso   1.00
C1271  C     0.26386   0.56334   0.80464   0.00000  Uiso   1.00
C1272  C     0.23717   0.55693   0.85274   0.00000  Uiso   1.00
C1273  C     0.20995   0.59003   0.88305   0.00000  Uiso   1.00
C1274  C     0.21109   0.63037   0.86594   0.00000  Uiso   1.00
C1275  C     0.23933   0.63752   0.81854   0.00000  Uiso   1.00
C1276  C     0.26530   0.60410   0.78787   0.00000  Uiso   1.00
C1277  C     0.24895   0.46284   0.97225   0.00000  Uiso   1.00
C1278  C     0.14961   0.64621   0.79276   0.00000  Uiso   1.00
C1279  C     0.18371   0.35379   0.70723   0.00000  Uiso   1.00
C1280  C     0.14939   0.35634   0.79360   0.00000  Uiso   1.00
Cl1281 Cl    0.11878   0.58298   0.58124   0.00000  Uiso   1.00
Cl1282 Cl    0.21454   0.41701   0.91875   0.00000  Uiso   1.00
Cl1283 Cl    0.12776   0.38484   0.84841   0.00000  Uiso   1.00
Cl1284 Cl    0.20555   0.61517   0.65160   0.00000  Uiso   1.00
H1285  H     0.05228   0.55692   0.54584   0.00000  Uiso   1.00
H1286  H     0.19691   0.37016   0.67439   0.00000  Uiso   1.00
H1287  H     0.00389   0.46912   0.63336   0.00000  Uiso   1.00
H1288  H     0.33175   0.40845   0.58268   0.00000  Uiso   1.00
H1289  H     0.30554   0.33872   0.61721   0.00000  Uiso   1.00
H1290  H     0.28361   0.66353   0.70245   0.00000  Uiso   1.00
H1291  H     0.28643   0.39125   0.75362   0.00000  Uiso   1.00
H1292  H     0.04694   0.60876   0.74641   0.00000  Uiso   1.00
H1293  H     0.04976   0.33644   0.79762   0.00000  Uiso   1.00
H1294  H     0.02775   0.66123   0.88286   0.00000  Uiso   1.00
H1295  H     0.00148   0.59152   0.91737   0.00000  Uiso   1.00
H1296  H     0.28102   0.44305   0.95417   0.00000  Uiso   1.00
H1297  H     0.32939   0.53087   0.86664   0.00000  Uiso   1.00
H1298  H     0.04537   0.38993   0.74856   0.00000  Uiso   1.00
H1299  H     0.09223   0.66437   0.69452   0.00000  Uiso   1.00
H1300  H     0.14256   0.34373   0.61054   0.00000  Uiso   1.00
H1301  H     0.14406   0.41524   0.57995   0.00000  Uiso   1.00
H1302  H     0.09387   0.47312   0.63293   0.00000  Uiso   1.00
H1303  H     0.23949   0.52684   0.86705   0.00000  Uiso   1.00
H1304  H     0.18922   0.58469   0.92005   0.00000  Uiso   1.00
H1305  H     0.19068   0.65621   0.88952   0.00000  Uiso   1.00
H1306  H     0.24104   0.33563   0.80558   0.00000  Uiso   1.00
H1307  H     0.14966   0.52350   0.61247   0.00000  Uiso   1.00
H1308  H     0.28794   0.61011   0.75149   0.00000  Uiso   1.00
H1309  H     0.18365   0.47647   0.88753   0.00000  Uiso   1.00
H1310  H     0.29013   0.48302   0.59641   0.00000  Uiso   1.00
H1311  H     0.04321   0.51700   0.90357   0.00000  Uiso   1.00
H1312  H     0.02190   0.53630   0.98660   0.00000  Uiso   1.00
H1313  H     0.31142   0.46369   0.51340   0.00000  Uiso   1.00
H1314  H     0.13640   0.62984   0.82560   0.00000  Uiso   1.00
N1315  N     0.04759   0.50001   0.75001   0.00000  Uiso   1.00
N1316  N     0.28574   0.49999   0.74999   0.00000  Uiso   1.00
O1317  O     0.12846   0.56108   0.75000   0.00000  Uiso   1.00
O1318  O     0.20488   0.43892   0.74999   0.00000  Uiso   1.00
O1319  O     0.20490   0.56107   0.75000   0.00000  Uiso   1.00
O1320  O     0.12843   0.43893   0.75000   0.00000  Uiso   1.00
O1321  O     0.10661   0.50001   0.81612   0.00000  Uiso   1.00
O1322  O     0.22672   0.49999   0.68387   0.00000  Uiso   1.00
O1323  O     0.18305   0.50000   0.81612   0.00000  Uiso   1.00
O1324  O     0.15028   0.50000   0.68388   0.00000  Uiso   1.00
Zn1325 Zn    0.11562   0.50001   0.75000   0.00000  Uiso   1.00
Zn1326 Zn    0.21771   0.49999   0.75000   0.00000  Uiso   1.00
C1327  C     0.50003   0.57966   0.74991   0.00000  Uiso   1.00
C1328  C     0.51726   0.64366   0.70641   0.00000  Uiso   1.00
C1329  C     0.49983   0.37619   0.75056   0.00000  Uiso   1.00
C1330  C     0.50017   0.62381   0.74944   0.00000  Uiso   1.00
C1331  C     0.65311   0.46931   0.72527   0.00000  Uiso   1.00
C1332  C     0.34689   0.53069   0.77473   0.00000  Uiso   1.00
C1333  C     0.36757   0.46952   0.72489   0.00000  Uiso   1.00
C1334  C     0.63243   0.53049   0.77511   0.00000  Uiso   1.00
C1335  C     0.46918   0.49889   0.83810   0.00000  Uiso   1.00
C1336  C     0.53082   0.50111   0.66190   0.00000  Uiso   1.00
C1337  C     0.44945   0.49740   0.88972   0.00000  Uiso   1.00
C1338  C     0.49997   0.42034   0.75009   0.00000  Uiso   1.00
C1339  C     0.55055   0.50260   0.61027   0.00000  Uiso   1.00
C1340  C     0.39007   0.52121   0.96601   0.00000  Uiso   1.00
C1341  C     0.60992   0.47878   0.53399   0.00000  Uiso   1.00
C1342  C     0.40236   0.51102   0.91839   0.00000  Uiso   1.00
C1343  C     0.59764   0.48899   0.58160   0.00000  Uiso   1.00
C1344  C     0.48095   0.48660   0.91053   0.00000  Uiso   1.00
C1345  C     0.51903   0.51338   0.58947   0.00000  Uiso   1.00
C1346  C     0.46905   0.49477   0.95862   0.00000  Uiso   1.00
C1347  C     0.53093   0.50520   0.54138   0.00000  Uiso   1.00
C1348  C     0.42452   0.51610   0.98528   0.00000  Uiso   1.00
C1349  C     0.45521   0.53894   0.54297   0.00000  Uiso   1.00
C1350  C     0.57546   0.48388   0.51473   0.00000  Uiso   1.00
C1351  C     0.50335   0.48847   0.97861   0.00000  Uiso   1.00
C1352  C     0.49662   0.51150   0.52140   0.00000  Uiso   1.00
C1353  C     0.64161   0.43540   0.69756   0.00000  Uiso   1.00
C1354  C     0.65567   0.43959   0.64903   0.00000  Uiso   1.00
C1355  C     0.65399   0.40501   0.62021   0.00000  Uiso   1.00
C1356  C     0.63968   0.36564   0.63957   0.00000  Uiso   1.00
C1357  C     0.62723   0.36084   0.68768   0.00000  Uiso   1.00
C1358  C     0.62811   0.39555   0.71666   0.00000  Uiso   1.00
C1359  C     0.35838   0.56459   0.80246   0.00000  Uiso   1.00
C1360  C     0.54476   0.46103   0.95704   0.00000  Uiso   1.00
C1361  C     0.37190   0.60445   0.78337   0.00000  Uiso   1.00
C1362  C     0.37277   0.63914   0.81237   0.00000  Uiso   1.00
C1363  C     0.36029   0.63433   0.86049   0.00000  Uiso   1.00
C1364  C     0.34594   0.59497   0.87983   0.00000  Uiso   1.00
C1365  C     0.34428   0.56040   0.85099   0.00000  Uiso   1.00
C1366  C     0.40281   0.43665   0.69537   0.00000  Uiso   1.00
C1367  C     0.40134   0.39590   0.71217   0.00000  Uiso   1.00
C1368  C     0.42728   0.36247   0.68153   0.00000  Uiso   1.00
C1369  C     0.45551   0.36959   0.63411   0.00000  Uiso   1.00
C1370  C     0.45668   0.40992   0.61697   0.00000  Uiso   1.00
C1371  C     0.41769   0.53713   0.52776   0.00000  Uiso   1.00
C1372  C     0.42950   0.44304   0.64726   0.00000  Uiso   1.00
C1373  C     0.59719   0.56334   0.80464   0.00000  Uiso   1.00
C1374  C     0.57050   0.55693   0.85274   0.00000  Uiso   1.00
C1375  C     0.54328   0.59003   0.88305   0.00000  Uiso   1.00
C1376  C     0.54442   0.63037   0.86594   0.00000  Uiso   1.00
C1377  C     0.57267   0.63752   0.81854   0.00000  Uiso   1.00
C1378  C     0.59864   0.60410   0.78787   0.00000  Uiso   1.00
C1379  C     0.58228   0.46284   0.97225   0.00000  Uiso   1.00
C1380  C     0.48294   0.64621   0.79276   0.00000  Uiso   1.00
C1381  C     0.51705   0.35379   0.70723   0.00000  Uiso   1.00
C1382  C     0.48273   0.35634   0.79360   0.00000  Uiso   1.00
Cl1383 Cl    0.45211   0.58298   0.58124   0.00000  Uiso   1.00
Cl1384 Cl    0.54787   0.41701   0.91875   0.00000  Uiso   1.00
Cl1385 Cl    0.46109   0.38484   0.84841   0.00000  Uiso   1.00
Cl1386 Cl    0.53889   0.61517   0.65160   0.00000  Uiso   1.00
H1387  H     0.38562   0.55692   0.54584   0.00000  Uiso   1.00
H1388  H     0.53024   0.37016   0.67439   0.00000  Uiso   1.00
H1389  H     0.33722   0.46912   0.63336   0.00000  Uiso   1.00
H1390  H     0.66508   0.40845   0.58268   0.00000  Uiso   1.00
H1391  H     0.63888   0.33872   0.61721   0.00000  Uiso   1.00
H1392  H     0.61694   0.66353   0.70245   0.00000  Uiso   1.00
H1393  H     0.61977   0.39125   0.75362   0.00000  Uiso   1.00
H1394  H     0.38027   0.60876   0.74641   0.00000  Uiso   1.00
H1395  H     0.38309   0.33644   0.79762   0.00000  Uiso   1.00
H1396  H     0.36108   0.66123   0.88286   0.00000  Uiso   1.00
H1397  H     0.33481   0.59152   0.91737   0.00000  Uiso   1.00
H1398  H     0.61436   0.44305   0.95417   0.00000  Uiso   1.00
H1399  H     0.66272   0.53087   0.86664   0.00000  Uiso   1.00
H1400  H     0.37870   0.38993   0.74856   0.00000  Uiso   1.00
H1401  H     0.42556   0.66437   0.69452   0.00000  Uiso   1.00
H1402  H     0.47590   0.34373   0.61054   0.00000  Uiso   1.00
H1403  H     0.47740   0.41524   0.57995   0.00000  Uiso   1.00
H1404  H     0.42720   0.47312   0.63293   0.00000  Uiso   1.00
H1405  H     0.57283   0.52684   0.86705   0.00000  Uiso   1.00
H1406  H     0.52255   0.58469   0.92005   0.00000  Uiso   1.00
H1407  H     0.52401   0.65621   0.88952   0.00000  Uiso   1.00
H1408  H     0.57438   0.33563   0.80558   0.00000  Uiso   1.00
H1409  H     0.48299   0.52350   0.61247   0.00000  Uiso   1.00
H1410  H     0.62128   0.61011   0.75149   0.00000  Uiso   1.00
H1411  H     0.51699   0.47647   0.88753   0.00000  Uiso   1.00
H1412  H     0.62347   0.48302   0.59641   0.00000  Uiso   1.00
H1413  H     0.37654   0.51700   0.90357   0.00000  Uiso   1.00
H1414  H     0.35524   0.53630   0.98660   0.00000  Uiso   1.00
H1415  H     0.64475   0.46369   0.51340   0.00000  Uiso   1.00
H1416  H     0.46973   0.62984   0.82560   0.00000  Uiso   1.00
N1417  N     0.38093   0.50001   0.75001   0.00000  Uiso   1.00
N1418  N     0.61907   0.49999   0.74999   0.00000  Uiso   1.00
O1419  O     0.46179   0.56108   0.75000   0.00000  Uiso   1.00
O1420  O     0.53821   0.43892   0.74999   0.00000  Uiso   1.00
O1421  O     0.53823   0.56107   0.75000   0.00000  Uiso   1.00
O1422  O     0.46177   0.43893   0.75000   0.00000  Uiso   1.00
O1423  O     0.43994   0.50001   0.81612   0.00000  Uiso   1.00
O1424  O     0.56006   0.49999   0.68387   0.00000  Uiso   1.00
O1425  O     0.51639   0.50000   0.81612   0.00000  Uiso   1.00
O1426  O     0.48361   0.50000   0.68388   0.00000  Uiso   1.00
Zn1427 Zn    0.44896   0.50001   0.75000   0.00000  Uiso   1.00
Zn1428 Zn    0.55104   0.49999   0.75000   0.00000  Uiso   1.00
C1429  C     0.83336   0.57966   0.74991   0.00000  Uiso   1.00
C1430  C     0.85059   0.64366   0.70641   0.00000  Uiso   1.00
C1431  C     0.83316   0.37619   0.75056   0.00000  Uiso   1.00
C1432  C     0.83351   0.62381   0.74944   0.00000  Uiso   1.00
C1433  C     0.98644   0.46931   0.72527   0.00000  Uiso   1.00
C1434  C     0.68022   0.53069   0.77473   0.00000  Uiso   1.00
C1435  C     0.70091   0.46952   0.72489   0.00000  Uiso   1.00
C1436  C     0.96576   0.53049   0.77511   0.00000  Uiso   1.00
C1437  C     0.80251   0.49889   0.83810   0.00000  Uiso   1.00
C1438  C     0.86415   0.50111   0.66190   0.00000  Uiso   1.00
C1439  C     0.78278   0.49740   0.88972   0.00000  Uiso   1.00
C1440  C     0.83330   0.42034   0.75009   0.00000  Uiso   1.00
C1441  C     0.88388   0.50260   0.61027   0.00000  Uiso   1.00
C1442  C     0.72340   0.52121   0.96601   0.00000  Uiso   1.00
C1443  C     0.94325   0.47878   0.53399   0.00000  Uiso   1.00
C1444  C     0.73569   0.51102   0.91839   0.00000  Uiso   1.00
C1445  C     0.93097   0.48899   0.58160   0.00000  Uiso   1.00
C1446  C     0.81428   0.48660   0.91053   0.00000  Uiso   1.00
C1447  C     0.85237   0.51338   0.58947   0.00000  Uiso   1.00
C1448  C     0.80238   0.49477   0.95862   0.00000  Uiso   1.00
C1449  C     0.86426   0.50520   0.54138   0.00000  Uiso   1.00
C1450  C     0.75785   0.51610   0.98528   0.00000  Uiso   1.00
C1451  C     0.78855   0.53894   0.54297   0.00000  Uiso   1.00
C1452  C     0.90879   0.48388   0.51473   0.00000  Uiso   1.00
C1453  C     0.83669   0.48847   0.97861   0.00000  Uiso   1.00
C1454  C     0.82995   0.51150   0.52140   0.00000  Uiso   1.00
C1455  C     0.97495   0.43540   0.69756   0.00000  Uiso   1.00
C1456  C     0.98901   0.43959   0.64903   0.00000  Uiso   1.00
C1457  C     0.98733   0.40501   0.62021   0.00000  Uiso   1.00
C1458  C     0.97301   0.36564   0.63957   0.00000  Uiso   1.00
C1459  C     0.96057   0.36084   0.68768   0.00000  Uiso   1.00
C1460  C     0.96144   0.39555   0.71666   0.00000  Uiso   1.00
C1461  C     0.69171   0.56459   0.80246   0.00000  Uiso   1.00
C1462  C     0.87809   0.46103   0.95704   0.00000  Uiso   1.00
C1463  C     0.70523   0.60445   0.78337   0.00000  Uiso   1.00
C1464  C     0.70610   0.63914   0.81237   0.00000  Uiso   1.00
C1465  C     0.69362   0.63433   0.86049   0.00000  Uiso   1.00
C1466  C     0.67927   0.59497   0.87983   0.00000  Uiso   1.00
C1467  C     0.67761   0.56040   0.85099   0.00000  Uiso   1.00
C1468  C     0.73614   0.43665   0.69537   0.00000  Uiso   1.00
C1469  C     0.73468   0.39590   0.71217   0.00000  Uiso   1.00
C1470  C     0.76061   0.36247   0.68153   0.00000  Uiso   1.00
C1471  C     0.78884   0.36959   0.63411   0.00000  Uiso   1.00
C1472  C     0.79001   0.40992   0.61697   0.00000  Uiso   1.00
C1473  C     0.75102   0.53713   0.52776   0.00000  Uiso   1.00
C1474  C     0.76283   0.44304   0.64726   0.00000  Uiso   1.00
C1475  C     0.93053   0.56334   0.80464   0.00000  Uiso   1.00
C1476  C     0.90383   0.55693   0.85274   0.00000  Uiso   1.00
C1477  C     0.87661   0.59003   0.88305   0.00000  Uiso   1.00
C1478  C     0.87775   0.63037   0.86594   0.00000  Uiso   1.00
C1479  C     0.90600   0.63752   0.81854   0.00000  Uiso   1.00
C1480  C     0.93197   0.60410   0.78787   0.00000  Uiso   1.00
C1481  C     0.91562   0.46284   0.97225   0.00000  Uiso   1.00
C1482  C     0.81627   0.64621   0.79276   0.00000  Uiso   1.00
C1483  C     0.85038   0.35379   0.70723   0.00000  Uiso   1.00
C1484  C     0.81606   0.35634   0.79360   0.00000  Uiso   1.00
Cl1485 Cl    0.78544   0.58298   0.58124   0.00000  Uiso   1.00
Cl1486 Cl    0.88121   0.41701   0.91875   0.00000  Uiso   1.00
Cl1487 Cl    0.79443   0.38484   0.84841   0.00000  Uiso   1.00
Cl1488 Cl    0.87222   0.61517   0.65160   0.00000  Uiso   1.00
H1489  H     0.71895   0.55692   0.54584   0.00000  Uiso   1.00
H1490  H     0.86357   0.37016   0.67439   0.00000  Uiso   1.00
H1491  H     0.67055   0.46912   0.63336   0.00000  Uiso   1.00
H1492  H     0.99841   0.40845   0.58268   0.00000  Uiso   1.00
H1493  H     0.97221   0.33872   0.61721   0.00000  Uiso   1.00
H1494  H     0.95028   0.66353   0.70245   0.00000  Uiso   1.00
H1495  H     0.95310   0.39125   0.75362   0.00000  Uiso   1.00
H1496  H     0.71360   0.60876   0.74641   0.00000  Uiso   1.00
H1497  H     0.71642   0.33644   0.79762   0.00000  Uiso   1.00
H1498  H     0.69442   0.66123   0.88286   0.00000  Uiso   1.00
H1499  H     0.66815   0.59152   0.91737   0.00000  Uiso   1.00
H1500  H     0.94769   0.44305   0.95417   0.00000  Uiso   1.00
H1501  H     0.99606   0.53087   0.86664   0.00000  Uiso   1.00
H1502  H     0.71204   0.38993   0.74856   0.00000  Uiso   1.00
H1503  H     0.75890   0.66437   0.69452   0.00000  Uiso   1.00
H1504  H     0.80923   0.34373   0.61054   0.00000  Uiso   1.00
H1505  H     0.81073   0.41524   0.57995   0.00000  Uiso   1.00
H1506  H     0.76053   0.47312   0.63293   0.00000  Uiso   1.00
H1507  H     0.90616   0.52684   0.86705   0.00000  Uiso   1.00
H1508  H     0.85588   0.58469   0.92005   0.00000  Uiso   1.00
H1509  H     0.85734   0.65621   0.88952   0.00000  Uiso   1.00
H1510  H     0.90771   0.33563   0.80558   0.00000  Uiso   1.00
H1511  H     0.81632   0.52350   0.61247   0.00000  Uiso   1.00
H1512  H     0.95461   0.61011   0.75149   0.00000  Uiso   1.00
H1513  H     0.85032   0.47647   0.88753   0.00000  Uiso   1.00
H1514  H     0.95680   0.48302   0.59641   0.00000  Uiso   1.00
H1515  H     0.70988   0.51700   0.90357   0.00000  Uiso   1.00
H1516  H     0.68857   0.53630   0.98660   0.00000  Uiso   1.00
H1517  H     0.97809   0.46369   0.51340   0.00000  Uiso   1.00
H1518  H     0.80307   0.62984   0.82560   0.00000  Uiso   1.00
N1519  N     0.71426   0.50001   0.75001   0.00000  Uiso   1.00
N1520  N     0.95241   0.49999   0.74999   0.00000  Uiso   1.00
O1521  O     0.79512   0.56108   0.75000   0.00000  Uiso   1.00
O1522  O     0.87154   0.43892   0.74999   0.00000  Uiso   1.00
O1523  O     0.87157   0.56107   0.75000   0.00000  Uiso   1.00
O1524  O     0.79510   0.43893   0.75000   0.00000  Uiso   1.00
O1525  O     0.77328   0.50001   0.81612   0.00000  Uiso   1.00
O1526  O     0.89339   0.49999   0.68387   0.00000  Uiso   1.00
O1527  O     0.84972   0.50000   0.81612   0.00000  Uiso   1.00
O1528  O     0.81695   0.50000   0.68388   0.00000  Uiso   1.00
Zn1529 Zn    0.78229   0.50001   0.75000   0.00000  Uiso   1.00
Zn1530 Zn    0.88438   0.49999   0.75000   0.00000  Uiso   1.00
C1531  C     0.16670   0.91299   0.74991   0.00000  Uiso   1.00
C1532  C     0.18393   0.97700   0.70641   0.00000  Uiso   1.00
C1533  C     0.16649   0.70952   0.75056   0.00000  Uiso   1.00
C1534  C     0.16684   0.95715   0.74944   0.00000  Uiso   1.00
C1535  C     0.31978   0.80265   0.72527   0.00000  Uiso   1.00
C1536  C     0.01356   0.86402   0.77473   0.00000  Uiso   1.00
C1537  C     0.03424   0.80285   0.72489   0.00000  Uiso   1.00
C1538  C     0.29910   0.86382   0.77511   0.00000  Uiso   1.00
C1539  C     0.13585   0.83222   0.83810   0.00000  Uiso   1.00
C1540  C     0.19749   0.83445   0.66190   0.00000  Uiso   1.00
C1541  C     0.11611   0.83073   0.88972   0.00000  Uiso   1.00
C1542  C     0.16664   0.75368   0.75009   0.00000  Uiso   1.00
C1543  C     0.21721   0.83593   0.61027   0.00000  Uiso   1.00
C1544  C     0.05673   0.85455   0.96601   0.00000  Uiso   1.00
C1545  C     0.27659   0.81211   0.53399   0.00000  Uiso   1.00
C1546  C     0.06902   0.84435   0.91839   0.00000  Uiso   1.00
C1547  C     0.26430   0.82232   0.58160   0.00000  Uiso   1.00
C1548  C     0.14762   0.81993   0.91053   0.00000  Uiso   1.00
C1549  C     0.18570   0.84672   0.58947   0.00000  Uiso   1.00
C1550  C     0.13571   0.82811   0.95862   0.00000  Uiso   1.00
C1551  C     0.19760   0.83854   0.54138   0.00000  Uiso   1.00
C1552  C     0.09118   0.84943   0.98528   0.00000  Uiso   1.00
C1553  C     0.12188   0.87228   0.54297   0.00000  Uiso   1.00
C1554  C     0.24213   0.81721   0.51473   0.00000  Uiso   1.00
C1555  C     0.17002   0.82180   0.97861   0.00000  Uiso   1.00
C1556  C     0.16329   0.84484   0.52140   0.00000  Uiso   1.00
C1557  C     0.30828   0.76874   0.69756   0.00000  Uiso   1.00
C1558  C     0.32234   0.77293   0.64903   0.00000  Uiso   1.00
C1559  C     0.32066   0.73834   0.62021   0.00000  Uiso   1.00
C1560  C     0.30634   0.69897   0.63957   0.00000  Uiso   1.00
C1561  C     0.29390   0.69417   0.68768   0.00000  Uiso   1.00
C1562  C     0.29477   0.72889   0.71666   0.00000  Uiso   1.00
C1563  C     0.02504   0.89793   0.80246   0.00000  Uiso   1.00
C1564  C     0.21143   0.79436   0.95704   0.00000  Uiso   1.00
C1565  C     0.03857   0.93778   0.78337   0.00000  Uiso   1.00
C1566  C     0.03944   0.97248   0.81237   0.00000  Uiso   1.00
C1567  C     0.02696   0.96767   0.86049   0.00000  Uiso   1.00
C1568  C     0.01260   0.92830   0.87983   0.00000  Uiso   1.00
C1569  C     0.01095   0.89373   0.85099   0.00000  Uiso   1.00
C1570  C     0.06947   0.76999   0.69537   0.00000  Uiso   1.00
C1571  C     0.06801   0.72924   0.71217   0.00000  Uiso   1.00
C1572  C     0.09395   0.69580   0.68153   0.00000  Uiso   1.00
C1573  C     0.12218   0.70292   0.63411   0.00000  Uiso   1.00
C1574  C     0.12334   0.74325   0.61697   0.00000  Uiso   1.00
C1575  C     0.08435   0.87046   0.52776   0.00000  Uiso   1.00
C1576  C     0.09617   0.77637   0.64726   0.00000  Uiso   1.00
C1577  C     0.26386   0.89668   0.80464   0.00000  Uiso   1.00
C1578  C     0.23717   0.89027   0.85274   0.00000  Uiso   1.00
C1579  C     0.20995   0.92336   0.88305   0.00000  Uiso   1.00
C1580  C     0.21109   0.96370   0.86594   0.00000  Uiso   1.00
C1581  C     0.23933   0.97085   0.81854   0.00000  Uiso   1.00
C1582  C     0.26530   0.93744   0.78787   0.00000  Uiso   1.00
C1583  C     0.24895   0.79618   0.97225   0.00000  Uiso   1.00
C1584  C     0.14961   0.97954   0.79276   0.00000  Uiso   1.00
C1585  C     0.18371   0.68713   0.70723   0.00000  Uiso   1.00
C1586  C     0.14939   0.68967   0.79360   0.00000  Uiso   1.00
Cl1587 Cl    0.11878   0.91631   0.58124   0.00000  Uiso   1.00
Cl1588 Cl    0.21454   0.75034   0.91875   0.00000  Uiso   1.00
Cl1589 Cl    0.12776   0.71817   0.84841   0.00000  Uiso   1.00
Cl1590 Cl    0.20555   0.94850   0.65160   0.00000  Uiso   1.00
H1591  H     0.05228   0.89026   0.54584   0.00000  Uiso   1.00
H1592  H     0.19691   0.70349   0.67439   0.00000  Uiso   1.00
H1593  H     0.00389   0.80246   0.63336   0.00000  Uiso   1.00
H1594  H     0.33175   0.74178   0.58268   0.00000  Uiso   1.00
H1595  H     0.30554   0.67206   0.61721   0.00000  Uiso   1.00
H1596  H     0.28361   0.99687   0.70245   0.00000  Uiso   1.00
H1597  H     0.28643   0.72458   0.75362   0.00000  Uiso   1.00
H1598  H     0.04694   0.94209   0.74641   0.00000  Uiso   1.00
H1599  H     0.04976   0.66978   0.79762   0.00000  Uiso   1.00
H1600  H     0.02775   0.99457   0.88286   0.00000  Uiso   1.00
H1601  H     0.00148   0.92485   0.91737   0.00000  Uiso   1.00
H1602  H     0.28102   0.77638   0.95417   0.00000  Uiso   1.00
H1603  H     0.32939   0.86420   0.86664   0.00000  Uiso   1.00
H1604  H     0.04537   0.72326   0.74856   0.00000  Uiso   1.00
H1605  H     0.09223   0.99770   0.69452   0.00000  Uiso   1.00
H1606  H     0.14256   0.67707   0.61054   0.00000  Uiso   1.00
H1607  H     0.14406   0.74857   0.57995   0.00000  Uiso   1.00
H1608  H     0.09387   0.80645   0.63293   0.00000  Uiso   1.00
H1609  H     0.23949   0.86018   0.86705   0.00000  Uiso   1.00
H1610  H     0.18922   0.91802   0.92005   0.00000  Uiso   1.00
H1611  H     0.19068   0.98954   0.88952   0.00000  Uiso   1.00
H1612  H     0.24104   0.66897   0.80558   0.00000  Uiso   1.00
H1613  H     0.14966   0.85684   0.61247   0.00000  Uiso   1.00
H1614  H     0.28794   0.94345   0.75149   0.00000  Uiso   1.00
H1615  H     0.18365   0.80980   0.88753   0.00000  Uiso   1.00
H1616  H     0.29013   0.81635   0.59641   0.00000  Uiso   1.00
H1617  H     0.04321   0.85034   0.90357   0.00000  Uiso   1.00
H1618  H     0.02190   0.86963   0.98660   0.00000  Uiso   1.00
H1619  H     0.31142   0.79703   0.51340   0.00000  Uiso   1.00
H1620  H     0.13640   0.96318   0.82560   0.00000  Uiso   1.00
N1621  N     0.04759   0.83334   0.75001   0.00000  Uiso   1.00
N1622  N     0.28574   0.83332   0.74999   0.00000  Uiso   1.00
O1623  O     0.12846   0.89442   0.75000   0.00000  Uiso   1.00
O1624  O     0.20488   0.77225   0.74999   0.00000  Uiso   1.00
O1625  O     0.20490   0.89441   0.75000   0.00000  Uiso   1.00
O1626  O     0.12843   0.77226   0.75000   0.00000  Uiso   1.00
O1627  O     0.10661   0.83334   0.81612   0.00000  Uiso   1.00
O1628  O     0.22672   0.83333   0.68387   0.00000  Uiso   1.00
O1629  O     0.18305   0.83333   0.81612   0.00000  Uiso   1.00
O1630  O     0.15028   0.83334   0.68388   0.00000  Uiso   1.00
Zn1631 Zn    0.11562   0.83334   0.75000   0.00000  Uiso   1.00
Zn1632 Zn    0.21771   0.83333   0.75000   0.00000  Uiso   1.00
C1633  C     0.50003   0.91299   0.74991   0.00000  Uiso   1.00
C1634  C     0.51726   0.97700   0.70641   0.00000  Uiso   1.00
C1635  C     0.49983   0.70952   0.75056   0.00000  Uiso   1.00
C1636  C     0.50017   0.95715   0.74944   0.00000  Uiso   1.00
C1637  C     0.65311   0.80265   0.72527   0.00000  Uiso   1.00
C1638  C     0.34689   0.86402   0.77473   0.00000  Uiso   1.00
C1639  C     0.36757   0.80285   0.72489   0.00000  Uiso   1.00
C1640  C     0.63243   0.86382   0.77511   0.00000  Uiso   1.00
C1641  C     0.46918   0.83222   0.83810   0.00000  Uiso   1.00
C1642  C     0.53082   0.83445   0.66190   0.00000  Uiso   1.00
C1643  C     0.44945   0.83073   0.88972   0.00000  Uiso   1.00
C1644  C     0.49997   0.75368   0.75009   0.00000  Uiso   1.00
C1645  C     0.55055   0.83593   0.61027   0.00000  Uiso   1.00
C1646  C     0.39007   0.85455   0.96601   0.00000  Uiso   1.00
C1647  C     0.60992   0.81211   0.53399   0.00000  Uiso   1.00
C1648  C     0.40236   0.84435   0.91839   0.00000  Uiso   1.00
C1649  C     0.59764   0.82232   0.58160   0.00000  Uiso   1.00
C1650  C     0.48095   0.81993   0.91053   0.00000  Uiso   1.00
C1651  C     0.51903   0.84672   0.58947   0.00000  Uiso   1.00
C1652  C     0.46905   0.82811   0.95862   0.00000  Uiso   1.00
C1653  C     0.53093   0.83854   0.54138   0.00000  Uiso   1.00
C1654  C     0.42452   0.84943   0.98528   0.00000  Uiso   1.00
C1655  C     0.45521   0.87228   0.54297   0.00000  Uiso   1.00
C1656  C     0.57546   0.81721   0.51473   0.00000  Uiso   1.00
C1657  C     0.50335   0.82180   0.97861   0.00000  Uiso   1.00
C1658  C     0.49662   0.84484   0.52140   0.00000  Uiso   1.00
C1659  C     0.64161   0.76874   0.69756   0.00000  Uiso   1.00
C1660  C     0.65567   0.77293   0.64903   0.00000  Uiso   1.00
C1661  C     0.65399   0.73834   0.62021   0.00000  Uiso   1.00
C1662  C     0.63968   0.69897   0.63957   0.00000  Uiso   1.00
C1663  C     0.62723   0.69417   0.68768   0.00000  Uiso   1.00
C1664  C     0.62811   0.72889   0.71666   0.00000  Uiso   1.00
C1665  C     0.35838   0.89793   0.80246   0.00000  Uiso   1.00
C1666  C     0.54476   0.79436   0.95704   0.00000  Uiso   1.00
C1667  C     0.37190   0.93778   0.78337   0.00000  Uiso   1.00
C1668  C     0.37277   0.97248   0.81237   0.00000  Uiso   1.00
C1669  C     0.36029   0.96767   0.86049   0.00000  Uiso   1.00
C1670  C     0.34594   0.92830   0.87983   0.00000  Uiso   1.00
C1671  C     0.34428   0.89373   0.85099   0.00000  Uiso   1.00
C1672  C     0.40281   0.76999   0.69537   0.00000  Uiso   1.00
C1673  C     0.40134   0.72924   0.71217   0.00000  Uiso   1.00
C1674  C     0.42728   0.69580   0.68153   0.00000  Uiso   1.00
C1675  C     0.45551   0.70292   0.63411   0.00000  Uiso   1.00
C1676  C     0.45668   0.74325   0.61697   0.00000  Uiso   1.00
C1677  C     0.41769   0.87046   0.52776   0.00000  Uiso   1.00
C1678  C     0.42950   0.77637   0.64726   0.00000  Uiso   1.00
C1679  C     0.59719   0.89668   0.80464   0.00000  Uiso   1.00
C1680  C     0.57050   0.89027   0.85274   0.00000  Uiso   1.00
C1681  C     0.54328   0.92336   0.88305   0.00000  Uiso   1.00
C1682  C     0.54442   0.96370   0.86594   0.00000  Uiso   1.00
C1683  C     0.57267   0.97085   0.81854   0.00000  Uiso   1.00
C1684  C     0.59864   0.93744   0.78787   0.00000  Uiso   1.00
C1685  C     0.58228   0.79618   0.97225   0.00000  Uiso   1.00
C1686  C     0.48294   0.97954   0.79276   0.00000  Uiso   1.00
C1687  C     0.51705   0.68713   0.70723   0.00000  Uiso   1.00
C1688  C     0.48273   0.68967   0.79360   0.00000  Uiso   1.00
Cl1689 Cl    0.45211   0.91631   0.58124   0.00000  Uiso   1.00
Cl1690 Cl    0.54787   0.75034   0.91875   0.00000  Uiso   1.00
Cl1691 Cl    0.46109   0.71817   0.84841   0.00000  Uiso   1.00
Cl1692 Cl    0.53889   0.94850   0.65160   0.00000  Uiso   1.00
H1693  H     0.38562   0.89026   0.54584   0.00000  Uiso   1.00
H1694  H     0.53024   0.70349   0.67439   0.00000  Uiso   1.00
H1695  H     0.33722   0.80246   0.63336   0.00000  Uiso   1.00
H1696  H     0.66508   0.74178   0.58268   0.00000  Uiso   1.00
H1697  H     0.63888   0.67206   0.61721   0.00000  Uiso   1.00
H1698  H     0.61694   0.99687   0.70245   0.00000  Uiso   1.00
H1699  H     0.61977   0.72458   0.75362   0.00000  Uiso   1.00
H1700  H     0.38027   0.94209   0.74641   0.00000  Uiso   1.00
H1701  H     0.38309   0.66978   0.79762   0.00000  Uiso   1.00
H1702  H     0.36108   0.99457   0.88286   0.00000  Uiso   1.00
H1703  H     0.33481   0.92485   0.91737   0.00000  Uiso   1.00
H1704  H     0.61436   0.77638   0.95417   0.00000  Uiso   1.00
H1705  H     0.66272   0.86420   0.86664   0.00000  Uiso   1.00
H1706  H     0.37870   0.72326   0.74856   0.00000  Uiso   1.00
H1707  H     0.42556   0.99770   0.69452   0.00000  Uiso   1.00
H1708  H     0.47590   0.67707   0.61054   0.00000  Uiso   1.00
H1709  H     0.47740   0.74857   0.57995   0.00000  Uiso   1.00
H1710  H     0.42720   0.80645   0.63293   0.00000  Uiso   1.00
H1711  H     0.57283   0.86018   0.86705   0.00000  Uiso   1.00
H1712  H     0.52255   0.91802   0.92005   0.00000  Uiso   1.00
H1713  H     0.52401   0.98954   0.88952   0.00000  Uiso   1.00
H1714  H     0.57438   0.66897   0.80558   0.00000  Uiso   1.00
H1715  H     0.48299   0.85684   0.61247   0.00000  Uiso   1.00
H1716  H     0.62128   0.94345   0.75149   0.00000  Uiso   1.00
H1717  H     0.51699   0.80980   0.88753   0.00000  Uiso   1.00
H1718  H     0.62347   0.81635   0.59641   0.00000  Uiso   1.00
H1719  H     0.37654   0.85034   0.90357   0.00000  Uiso   1.00
H1720  H     0.35524   0.86963   0.98660   0.00000  Uiso   1.00
H1721  H     0.64475   0.79703   0.51340   0.00000  Uiso   1.00
H1722  H     0.46973   0.96318   0.82560   0.00000  Uiso   1.00
N1723  N     0.38093   0.83334   0.75001   0.00000  Uiso   1.00
N1724  N     0.61907   0.83332   0.74999   0.00000  Uiso   1.00
O1725  O     0.46179   0.89442   0.75000   0.00000  Uiso   1.00
O1726  O     0.53821   0.77225   0.74999   0.00000  Uiso   1.00
O1727  O     0.53823   0.89441   0.75000   0.00000  Uiso   1.00
O1728  O     0.46177   0.77226   0.75000   0.00000  Uiso   1.00
O1729  O     0.43994   0.83334   0.81612   0.00000  Uiso   1.00
O1730  O     0.56006   0.83333   0.68387   0.00000  Uiso   1.00
O1731  O     0.51639   0.83333   0.81612   0.00000  Uiso   1.00
O1732  O     0.48361   0.83334   0.68388   0.00000  Uiso   1.00
Zn1733 Zn    0.44896   0.83334   0.75000   0.00000  Uiso   1.00
Zn1734 Zn    0.55104   0.83333   0.75000   0.00000  Uiso   1.00
C1735  C     0.83336   0.91299   0.74991   0.00000  Uiso   1.00
C1736  C     0.85059   0.97700   0.70641   0.00000  Uiso   1.00
C1737  C     0.83316   0.70952   0.75056   0.00000  Uiso   1.00
C1738  C     0.83351   0.95715   0.74944   0.00000  Uiso   1.00
C1739  C     0.98644   0.80265   0.72527   0.00000  Uiso   1.00
C1740  C     0.68022   0.86402   0.77473   0.00000  Uiso   1.00
C1741  C     0.70091   0.80285   0.72489   0.00000  Uiso   1.00
C1742  C     0.96576   0.86382   0.77511   0.00000  Uiso   1.00
C1743  C     0.80251   0.83222   0.83810   0.00000  Uiso   1.00
C1744  C     0.86415   0.83445   0.66190   0.00000  Uiso   1.00
C1745  C     0.78278   0.83073   0.88972   0.00000  Uiso   1.00
C1746  C     0.83330   0.75368   0.75009   0.00000  Uiso   1.00
C1747  C     0.88388   0.83593   0.61027   0.00000  Uiso   1.00
C1748  C     0.72340   0.85455   0.96601   0.00000  Uiso   1.00
C1749  C     0.94325   0.81211   0.53399   0.00000  Uiso   1.00
C1750  C     0.73569   0.84435   0.91839   0.00000  Uiso   1.00
C1751  C     0.93097   0.82232   0.58160   0.00000  Uiso   1.00
C1752  C     0.81428   0.81993   0.91053   0.00000  Uiso   1.00
C1753  C     0.85237   0.84672   0.58947   0.00000  Uiso   1.00
C1754  C     0.80238   0.82811   0.95862   0.00000  Uiso   1.00
C1755  C     0.86426   0.83854   0.54138   0.00000  Uiso   1.00
C1756  C     0.75785   0.84943   0.98528   0.00000  Uiso   1.00
C1757  C     0.78855   0.87228   0.54297   0.00000  Uiso   1.00
C1758  C     0.90879   0.81721   0.51473   0.00000  Uiso   1.00
C1759  C     0.83669   0.82180   0.97861   0.00000  Uiso   1.00
C1760  C     0.82995   0.84484   0.52140   0.00000  Uiso   1.00
C1761  C     0.97495   0.76874   0.69756   0.00000  Uiso   1.00
C1762  C     0.98901   0.77293   0.64903   0.00000  Uiso   1.00
C1763  C     0.98733   0.73834   0.62021   0.00000  Uiso   1.00
C1764  C     0.97301   0.69897   0.63957   0.00000  Uiso   1.00
C1765  C     0.96057   0.69417   0.68768   0.00000  Uiso   1.00
C1766  C     0.96144   0.72889   0.71666   0.00000  Uiso   1.00
C1767  C     0.69171   0.89793   0.80246   0.00000  Uiso   1.00
C1768  C     0.87809   0.79436   0.95704   0.00000  Uiso   1.00
C1769  C     0.70523   0.93778   0.78337   0.00000  Uiso   1.00
C1770  C     0.70610   0.97248   0.81237   0.00000  Uiso   1.00
C1771  C     0.69362   0.96767   0.86049   0.00000  Uiso   1.00
C1772  C     0.67927   0.92830   0.87983   0.00000  Uiso   1.00
C1773  C     0.67761   0.89373   0.85099   0.00000  Uiso   1.00
C1774  C     0.73614   0.76999   0.69537   0.00000  Uiso   1.00
C1775  C     0.73468   0.72924   0.71217   0.00000  Uiso   1.00
C1776  C     0.76061   0.69580   0.68153   0.00000  Uiso   1.00
C1777  C     0.78884   0.70292   0.63411   0.00000  Uiso   1.00
C1778  C     0.79001   0.74325   0.61697   0.00000  Uiso   1.00
C1779  C     0.75102   0.87046   0.52776   0.00000  Uiso   1.00
C1780  C     0.76283   0.77637   0.64726   0.00000  Uiso   1.00
C1781  C     0.93053   0.89668   0.80464   0.00000  Uiso   1.00
C1782  C     0.90383   0.89027   0.85274   0.00000  Uiso   1.00
C1783  C     0.87661   0.92336   0.88305   0.00000  Uiso   1.00
C1784  C     0.87775   0.96370   0.86594   0.00000  Uiso   1.00
C1785  C     0.90600   0.97085   0.81854   0.00000  Uiso   1.00
C1786  C     0.93197   0.93744   0.78787   0.00000  Uiso   1.00
C1787  C     0.91562   0.79618   0.97225   0.00000  Uiso   1.00
C1788  C     0.81627   0.97954   0.79276   0.00000  Uiso   1.00
C1789  C     0.85038   0.68713   0.70723   0.00000  Uiso   1.00
C1790  C     0.81606   0.68967   0.79360   0.00000  Uiso   1.00
Cl1791 Cl    0.78544   0.91631   0.58124   0.00000  Uiso   1.00
Cl1792 Cl    0.88121   0.75034   0.91875   0.00000  Uiso   1.00
Cl1793 Cl    0.79443   0.71817   0.84841   0.00000  Uiso   1.00
Cl1794 Cl    0.87222   0.94850   0.65160   0.00000  Uiso   1.00
H1795  H     0.71895   0.89026   0.54584   0.00000  Uiso   1.00
H1796  H     0.86357   0.70349   0.67439   0.00000  Uiso   1.00
H1797  H     0.67055   0.80246   0.63336   0.00000  Uiso   1.00
H1798  H     0.99841   0.74178   0.58268   0.00000  Uiso   1.00
H1799  H     0.97221   0.67206   0.61721   0.00000  Uiso   1.00
H1800  H     0.95028   0.99687   0.70245   0.00000  Uiso   1.00
H1801  H     0.95310   0.72458   0.75362   0.00000  Uiso   1.00
H1802  H     0.71360   0.94209   0.74641   0.00000  Uiso   1.00
H1803  H     0.71642   0.66978   0.79762   0.00000  Uiso   1.00
H1804  H     0.69442   0.99457   0.88286   0.00000  Uiso   1.00
H1805  H     0.66815   0.92485   0.91737   0.00000  Uiso   1.00
H1806  H     0.94769   0.77638   0.95417   0.00000  Uiso   1.00
H1807  H     0.99606   0.86420   0.86664   0.00000  Uiso   1.00
H1808  H     0.71204   0.72326   0.74856   0.00000  Uiso   1.00
H1809  H     0.75890   0.99770   0.69452   0.00000  Uiso   1.00
H1810  H     0.80923   0.67707   0.61054   0.00000  Uiso   1.00
H1811  H     0.81073   0.74857   0.57995   0.00000  Uiso   1.00
H1812  H     0.76053   0.80645   0.63293   0.00000  Uiso   1.00
H1813  H     0.90616   0.86018   0.86705   0.00000  Uiso   1.00
H1814  H     0.85588   0.91802   0.92005   0.00000  Uiso   1.00
H1815  H     0.85734   0.98954   0.88952   0.00000  Uiso   1.00
H1816  H     0.90771   0.66897   0.80558   0.00000  Uiso   1.00
H1817  H     0.81632   0.85684   0.61247   0.00000  Uiso   1.00
H1818  H     0.95461   0.94345   0.75149   0.00000  Uiso   1.00
H1819  H     0.85032   0.80980   0.88753   0.00000  Uiso   1.00
H1820  H     0.95680   0.81635   0.59641   0.00000  Uiso   1.00
H1821  H     0.70988   0.85034   0.90357   0.00000  Uiso   1.00
H1822  H     0.68857   0.86963   0.98660   0.00000  Uiso   1.00
H1823  H     0.97809   0.79703   0.51340   0.00000  Uiso   1.00
H1824  H     0.80307   0.96318   0.82560   0.00000  Uiso   1.00
N1825  N     0.71426   0.83334   0.75001   0.00000  Uiso   1.00
N1826  N     0.95241   0.83332   0.74999   0.00000  Uiso   1.00
O1827  O     0.79512   0.89442   0.75000   0.00000  Uiso   1.00
O1828  O     0.87154   0.77225   0.74999   0.00000  Uiso   1.00
O1829  O     0.87157   0.89441   0.75000   0.00000  Uiso   1.00
O1830  O     0.79510   0.77226   0.75000   0.00000  Uiso   1.00
O1831  O     0.77328   0.83334   0.81612   0.00000  Uiso   1.00
O1832  O     0.89339   0.83333   0.68387   0.00000  Uiso   1.00
O1833  O     0.84972   0.83333   0.81612   0.00000  Uiso   1.00
O1834  O     0.81695   0.83334   0.68388   0.00000  Uiso   1.00
Zn1835 Zn    0.78229   0.83334   0.75000   0.00000  Uiso   1.00
Zn1836 Zn    0.88438   0.83333   0.75000   0.00000  Uiso   1.00
loop_
_geom_bond_atom_site_label_1
_geom_bond_atom_site_label_2
_geom_bond_distance
_geom_bond_site_symmetry_2
_ccdc_geom_bond_type
C1     O95     1.294   .     A
C1     O93     1.294   .     A
C1     C4      1.398   .     S
C2     Cl60    1.762   .     S
C2     C4      1.396   .     A
C2     C361    1.375   .     S
C3     C56     1.397   .     A
C3     C12     1.398   .     S
C3     C55     1.391   .     A
C4     C54     1.391   .     A
C5     C27     1.475   .     S
C5     N92     1.375   .     A
C5     C109    1.436   .     S
C6     N91     1.375   .     A
C6     C33     1.475   .     S
C6     C212    1.436   1_455 S
C7     C40     1.479   .     S
C7     N91     1.375   .     A
C7     C209    1.436   1_455 S
C8     N92     1.375   .     A
C8     C47     1.479   .     S
C8     C108    1.436   .     S
C9     O99     1.309   .     A
C9     C11     1.467   .     S
C9     O97     1.313   .     A
C10    O100    1.309   .     A
C10    C13     1.467   .     S
C10    O98     1.313   .     A
C11    C18     1.394   .     A
C11    C16     1.395   .     A
C12    O94     1.294   .     A
C12    O96     1.294   .     A
C13    C19     1.394   .     A
C13    C17     1.395   .     A
C14    C16     1.392   .     A
C14    C22     1.402   .     A
C14    H88     1.084   .     S
C15    H89     1.084   .     S
C15    C17     1.392   .     A
C15    C24     1.402   .     A
C16    H87     1.070   .     S
C17    H86     1.070   .     S
C18    H85     1.072   .     S
C18    C20     1.397   .     A
C19    C21     1.397   .     A
C19    H83     1.073   .     S
C20    C25     1.420   .     A
C20    C22     1.415   .     A
C21    C26     1.420   .     A
C21    C24     1.415   .     A
C22    C963    1.388   .     S
C23    C45     1.389   .     A
C23    Cl57    1.770   .     S
C23    C26     1.429   .     A
C24    C971    1.388   1_554 S
C25    C34     1.429   .     A
C25    C944    1.426   .     S
C26    C943    1.426   1_554 S
C27    C32     1.405   .     A
C27    C28     1.399   .     A
C28    C29     1.398   .     A
C28    H165    1.082   .     S
C29    C30     1.397   .     A
C29    H64     1.082   .     S
C30    C31     1.397   .     A
C30    H65     1.082   .     S
C31    C32     1.398   .     A
C31    H678    1.080   1_545 S
C32    H67     1.083   .     S
C33    C39     1.399   .     A
C33    C35     1.404   .     A
C34    C53     1.389   .     A
C34    Cl58    1.770   .     S
C35    C36     1.398   .     A
C35    H68     1.082   .     S
C36    C37     1.397   .     A
C36    H375    1.080   .     S
C37    C38     1.396   .     A
C37    H70     1.082   .     S
C38    H71     1.082   .     S
C38    C39     1.398   .     A
C39    H277    1.082   1_455 S
C40    C46     1.403   .     A
C40    C41     1.404   .     A
C41    C42     1.398   .     A
C41    H74     1.082   .     S
C42    C43     1.397   .     A
C42    H687    1.081   1_545 S
C43    C44     1.397   .     A
C43    H76     1.082   .     S
C44    C46     1.397   .     A
C44    H77     1.083   .     S
C45    H61     1.085   .     S
C45    C940    1.388   1_554 S
C46    H78     1.080   .     S
C47    C48     1.403   .     A
C47    C52     1.404   .     A
C48    H79     1.080   .     S
C48    C49     1.397   .     A
C49    H80     1.082   .     S
C49    C50     1.396   .     A
C50    C51     1.397   .     A
C50    H81     1.082   .     S
C51    C52     1.398   .     A
C51    H388    1.081   .     S
C52    H84     1.082   .     S
C53    H72     1.085   .     S
C53    C942    1.388   .     S
C54    H90     1.085   .     S
C54    C362    1.375   .     S
C55    H62     1.085   .     S
C55    C614    1.375   1_545 S
C56    Cl59    1.762   .     S
C56    C666    1.375   1_545 S
H63    C232    1.082   1_455 S
H66    C337    1.080   .     S
H69    C648    1.080   1_545 S
H73    C141    1.082   .     S
H75    C348    1.081   .     S
H82    C663    1.081   1_545 S
N91    Zn101   2.051   .     S
N92    Zn102   2.051   .     S
O93    Zn101   1.972   .     S
O94    Zn102   1.972   .     S
O95    Zn102   1.971   .     S
O96    Zn101   1.971   .     S
O97    Zn101   1.954   .     S
O98    Zn102   1.954   .     S
O99    Zn102   1.888   .     S
O100   Zn101   1.888   .     S
C103   O197    1.294   .     A
C103   O195    1.294   .     A
C103   C106    1.398   .     S
C104   Cl162   1.762   .     S
C104   C106    1.396   .     A
C104   C463    1.375   .     S
C105   C158    1.397   .     A
C105   C114    1.398   .     S
C105   C157    1.391   .     A
C106   C156    1.391   .     A
C107   C129    1.475   .     S
C107   N194    1.375   .     A
C107   C211    1.436   .     S
C108   N193    1.375   .     A
C108   C135    1.475   .     S
C109   C142    1.479   .     S
C109   N193    1.375   .     A
C110   N194    1.375   .     A
C110   C149    1.479   .     S
C110   C210    1.436   .     S
C111   O201    1.309   .     A
C111   C113    1.467   .     S
C111   O199    1.313   .     A
C112   O202    1.309   .     A
C112   C115    1.467   .     S
C112   O200    1.313   .     A
C113   C120    1.394   .     A
C113   C118    1.395   .     A
C114   O196    1.294   .     A
C114   O198    1.294   .     A
C115   C121    1.394   .     A
C115   C119    1.395   .     A
C116   C118    1.392   .     A
C116   C124    1.402   .     A
C116   H190    1.084   .     S
C117   H191    1.084   .     S
C117   C119    1.392   .     A
C117   C126    1.402   .     A
C118   H189    1.070   .     S
C119   H188    1.070   .     S
C120   H187    1.072   .     S
C120   C122    1.397   .     A
C121   C123    1.397   .     A
C121   H185    1.073   .     S
C122   C127    1.420   .     A
C122   C124    1.415   .     A
C123   C128    1.420   .     A
C123   C126    1.415   .     A
C124   C1065   1.388   .     S
C125   C147    1.389   .     A
C125   Cl159   1.770   .     S
C125   C128    1.429   .     A
C126   C1073   1.388   1_554 S
C127   C136    1.429   .     A
C127   C1046   1.426   .     S
C128   C1045   1.426   1_554 S
C129   C134    1.405   .     A
C129   C130    1.399   .     A
C130   C131    1.398   .     A
C130   H267    1.082   .     S
C131   C132    1.397   .     A
C131   H166    1.082   .     S
C132   C133    1.397   .     A
C132   H167    1.082   .     S
C133   C134    1.398   .     A
C133   H780    1.080   1_545 S
C134   H169    1.083   .     S
C135   C141    1.399   .     A
C135   C137    1.404   .     A
C136   C155    1.389   .     A
C136   Cl160   1.770   .     S
C137   C138    1.398   .     A
C137   H170    1.082   .     S
C138   C139    1.397   .     A
C138   H477    1.080   .     S
C139   C140    1.396   .     A
C139   H172    1.082   .     S
C140   H173    1.082   .     S
C140   C141    1.398   .     A
C142   C148    1.403   .     A
C142   C143    1.404   .     A
C143   C144    1.398   .     A
C143   H176    1.082   .     S
C144   C145    1.397   .     A
C144   H789    1.081   1_545 S
C145   C146    1.397   .     A
C145   H178    1.082   .     S
C146   C148    1.397   .     A
C146   H179    1.083   .     S
C147   H163    1.085   .     S
C147   C1042   1.388   1_554 S
C148   H180    1.080   .     S
C149   C150    1.403   .     A
C149   C154    1.404   .     A
C150   H181    1.080   .     S
C150   C151    1.397   .     A
C151   H182    1.082   .     S
C151   C152    1.396   .     A
C152   C153    1.397   .     A
C152   H183    1.082   .     S
C153   C154    1.398   .     A
C153   H490    1.081   .     S
C154   H186    1.082   .     S
C155   H174    1.085   .     S
C155   C1044   1.388   .     S
C156   H192    1.085   .     S
C156   C464    1.375   .     S
C157   H164    1.085   .     S
C157   C716    1.375   1_545 S
C158   Cl161   1.762   .     S
C158   C768    1.375   1_545 S
H168   C439    1.080   .     S
H171   C750    1.080   1_545 S
H175   C243    1.082   .     S
H177   C450    1.081   .     S
H184   C765    1.081   1_545 S
N193   Zn203   2.051   .     S
N194   Zn204   2.051   .     S
O195   Zn203   1.972   .     S
O196   Zn204   1.972   .     S
O197   Zn204   1.971   .     S
O198   Zn203   1.971   .     S
O199   Zn203   1.954   .     S
O200   Zn204   1.954   .     S
O201   Zn204   1.888   .     S
O202   Zn203   1.888   .     S
C205   O299    1.294   .     A
C205   O297    1.294   .     A
C205   C208    1.398   .     S
C206   Cl264   1.762   .     S
C206   C208    1.396   .     A
C206   C565    1.375   .     S
C207   C260    1.397   .     A
C207   C216    1.398   .     S
C207   C259    1.391   .     A
C208   C258    1.391   .     A
C209   C231    1.475   .     S
C209   N296    1.375   .     A
C209   C7      1.436   1_655 S
C210   N295    1.375   .     A
C210   C237    1.475   .     S
C211   C244    1.479   .     S
C211   N295    1.375   .     A
C212   N296    1.375   .     A
C212   C251    1.479   .     S
C212   C6      1.436   1_655 S
C213   O303    1.309   .     A
C213   C215    1.467   .     S
C213   O301    1.313   .     A
C214   O304    1.309   .     A
C214   C217    1.467   .     S
C214   O302    1.313   .     A
C215   C222    1.394   .     A
C215   C220    1.395   .     A
C216   O298    1.294   .     A
C216   O300    1.294   .     A
C217   C223    1.394   .     A
C217   C221    1.395   .     A
C218   C220    1.392   .     A
C218   C226    1.402   .     A
C218   H292    1.084   .     S
C219   H293    1.084   .     S
C219   C221    1.392   .     A
C219   C228    1.402   .     A
C220   H291    1.070   .     S
C221   H290    1.070   .     S
C222   H289    1.072   .     S
C222   C224    1.397   .     A
C223   C225    1.397   .     A
C223   H287    1.073   .     S
C224   C229    1.420   .     A
C224   C226    1.415   .     A
C225   C230    1.420   .     A
C225   C228    1.415   .     A
C226   C1167   1.388   .     S
C227   C249    1.389   .     A
C227   Cl261   1.770   .     S
C227   C230    1.429   .     A
C228   C1175   1.388   1_554 S
C229   C238    1.429   .     A
C229   C1148   1.426   .     S
C230   C1147   1.426   1_554 S
C231   C236    1.405   .     A
C231   C232    1.399   .     A
C232   C233    1.398   .     A
C232   H63     1.082   1_655 S
C233   C234    1.397   .     A
C233   H268    1.082   .     S
C234   C235    1.397   .     A
C234   H269    1.082   .     S
C235   C236    1.398   .     A
C235   H882    1.080   1_545 S
C236   H271    1.083   .     S
C237   C243    1.399   .     A
C237   C239    1.404   .     A
C238   C257    1.389   .     A
C238   Cl262   1.770   .     S
C239   C240    1.398   .     A
C239   H272    1.082   .     S
C240   C241    1.397   .     A
C240   H579    1.080   .     S
C241   C242    1.396   .     A
C241   H274    1.082   .     S
C242   H275    1.082   .     S
C242   C243    1.398   .     A
C244   C250    1.403   .     A
C244   C245    1.404   .     A
C245   C246    1.398   .     A
C245   H278    1.082   .     S
C246   C247    1.397   .     A
C246   H891    1.081   1_545 S
C247   C248    1.397   .     A
C247   H280    1.082   .     S
C248   C250    1.397   .     A
C248   H281    1.083   .     S
C249   H265    1.085   .     S
C249   C1144   1.388   1_554 S
C250   H282    1.080   .     S
C251   C252    1.403   .     A
C251   C256    1.404   .     A
C252   H283    1.080   .     S
C252   C253    1.397   .     A
C253   H284    1.082   .     S
C253   C254    1.396   .     A
C254   C255    1.397   .     A
C254   H285    1.082   .     S
C255   C256    1.398   .     A
C255   H592    1.081   .     S
C256   H288    1.082   .     S
C257   H276    1.085   .     S
C257   C1146   1.388   .     S
C258   H294    1.085   .     S
C258   C566    1.375   .     S
C259   H266    1.085   .     S
C259   C818    1.375   1_545 S
C260   Cl263   1.762   .     S
C260   C870    1.375   1_545 S
H270   C541    1.080   .     S
H273   C852    1.080   1_545 S
H277   C39     1.082   1_655 S
H279   C552    1.081   .     S
H286   C867    1.081   1_545 S
N295   Zn305   2.051   .     S
N296   Zn306   2.051   .     S
O297   Zn305   1.972   .     S
O298   Zn306   1.972   .     S
O299   Zn306   1.971   .     S
O300   Zn305   1.971   .     S
O301   Zn305   1.954   .     S
O302   Zn306   1.954   .     S
O303   Zn306   1.888   .     S
O304   Zn305   1.888   .     S
C307   O401    1.294   .     A
C307   O399    1.294   .     A
C307   C310    1.398   .     S
C308   Cl366   1.762   .     S
C308   C310    1.396   .     A
C308   C667    1.375   .     S
C309   C362    1.397   .     A
C309   C318    1.398   .     S
C309   C361    1.391   .     A
C310   C360    1.391   .     A
C311   C333    1.475   .     S
C311   N398    1.375   .     A
C311   C415    1.436   .     S
C312   N397    1.375   .     A
C312   C339    1.475   .     S
C312   C518    1.436   1_455 S
C313   C346    1.479   .     S
C313   N397    1.375   .     A
C313   C515    1.436   1_455 S
C314   N398    1.375   .     A
C314   C353    1.479   .     S
C314   C414    1.436   .     S
C315   O405    1.309   .     A
C315   C317    1.467   .     S
C315   O403    1.313   .     A
C316   O406    1.309   .     A
C316   C319    1.467   .     S
C316   O404    1.313   .     A
C317   C324    1.394   .     A
C317   C322    1.395   .     A
C318   O400    1.294   .     A
C318   O402    1.294   .     A
C319   C325    1.394   .     A
C319   C323    1.395   .     A
C320   C322    1.392   .     A
C320   C328    1.402   .     A
C320   H394    1.084   .     S
C321   H395    1.084   .     S
C321   C323    1.392   .     A
C321   C330    1.402   .     A
C322   H393    1.070   .     S
C323   H392    1.070   .     S
C324   H391    1.072   .     S
C324   C326    1.397   .     A
C325   C327    1.397   .     A
C325   H389    1.073   .     S
C326   C331    1.420   .     A
C326   C328    1.415   .     A
C327   C332    1.420   .     A
C327   C330    1.415   .     A
C328   C1269   1.388   .     S
C329   C351    1.389   .     A
C329   Cl363   1.770   .     S
C329   C332    1.429   .     A
C330   C1277   1.388   1_554 S
C331   C340    1.429   .     A
C331   C1250   1.426   .     S
C332   C1249   1.426   1_554 S
C333   C338    1.405   .     A
C333   C334    1.399   .     A
C334   C335    1.398   .     A
C334   H471    1.082   .     S
C335   C336    1.397   .     A
C335   H370    1.082   .     S
C336   C337    1.397   .     A
C336   H371    1.082   .     S
C337   C338    1.398   .     A
C338   H373    1.083   .     S
C339   C345    1.399   .     A
C339   C341    1.404   .     A
C340   C359    1.389   .     A
C340   Cl364   1.770   .     S
C341   C342    1.398   .     A
C341   H374    1.082   .     S
C342   C343    1.397   .     A
C342   H681    1.080   .     S
C343   C344    1.396   .     A
C343   H376    1.082   .     S
C344   H377    1.082   .     S
C344   C345    1.398   .     A
C345   H583    1.082   1_455 S
C346   C352    1.403   .     A
C346   C347    1.404   .     A
C347   C348    1.398   .     A
C347   H380    1.082   .     S
C348   C349    1.397   .     A
C349   C350    1.397   .     A
C349   H382    1.082   .     S
C350   C352    1.397   .     A
C350   H383    1.083   .     S
C351   H367    1.085   .     S
C351   C1246   1.388   1_554 S
C352   H384    1.080   .     S
C353   C354    1.403   .     A
C353   C358    1.404   .     A
C354   H385    1.080   .     S
C354   C355    1.397   .     A
C355   H386    1.082   .     S
C355   C356    1.396   .     A
C356   C357    1.397   .     A
C356   H387    1.082   .     S
C357   C358    1.398   .     A
C357   H694    1.081   .     S
C358   H390    1.082   .     S
C359   H378    1.085   .     S
C359   C1248   1.388   .     S
C360   H396    1.085   .     S
C360   C668    1.375   .     S
C361   H368    1.085   .     S
C362   Cl365   1.762   .     S
H369   C538    1.082   1_455 S
H372   C643    1.080   .     S
H379   C447    1.082   .     S
H381   C654    1.081   .     S
N397   Zn407   2.051   .     S
N398   Zn408   2.051   .     S
O399   Zn407   1.972   .     S
O400   Zn408   1.972   .     S
O401   Zn408   1.971   .     S
O402   Zn407   1.971   .     S
O403   Zn407   1.954   .     S
O404   Zn408   1.954   .     S
O405   Zn408   1.888   .     S
O406   Zn407   1.888   .     S
C409   O503    1.294   .     A
C409   O501    1.294   .     A
C409   C412    1.398   .     S
C410   Cl468   1.762   .     S
C410   C412    1.396   .     A
C410   C769    1.375   .     S
C411   C464    1.397   .     A
C411   C420    1.398   .     S
C411   C463    1.391   .     A
C412   C462    1.391   .     A
C413   C435    1.475   .     S
C413   N500    1.375   .     A
C413   C517    1.436   .     S
C414   N499    1.375   .     A
C414   C441    1.475   .     S
C415   C448    1.479   .     S
C415   N499    1.375   .     A
C416   N500    1.375   .     A
C416   C455    1.479   .     S
C416   C516    1.436   .     S
C417   O507    1.309   .     A
C417   C419    1.467   .     S
C417   O505    1.313   .     A
C418   O508    1.309   .     A
C418   C421    1.467   .     S
C418   O506    1.313   .     A
C419   C426    1.394   .     A
C419   C424    1.395   .     A
C420   O502    1.294   .     A
C420   O504    1.294   .     A
C421   C427    1.394   .     A
C421   C425    1.395   .     A
C422   C424    1.392   .     A
C422   C430    1.402   .     A
C422   H496    1.084   .     S
C423   H497    1.084   .     S
C423   C425    1.392   .     A
C423   C432    1.402   .     A
C424   H495    1.070   .     S
C425   H494    1.070   .     S
C426   H493    1.072   .     S
C426   C428    1.397   .     A
C427   C429    1.397   .     A
C427   H491    1.073   .     S
C428   C433    1.420   .     A
C428   C430    1.415   .     A
C429   C434    1.420   .     A
C429   C432    1.415   .     A
C430   C1371   1.388   .     S
C431   C453    1.389   .     A
C431   Cl465   1.770   .     S
C431   C434    1.429   .     A
C432   C1379   1.388   1_554 S
C433   C442    1.429   .     A
C433   C1352   1.426   .     S
C434   C1351   1.426   1_554 S
C435   C440    1.405   .     A
C435   C436    1.399   .     A
C436   C437    1.398   .     A
C436   H573    1.082   .     S
C437   C438    1.397   .     A
C437   H472    1.082   .     S
C438   C439    1.397   .     A
C438   H473    1.082   .     S
C439   C440    1.398   .     A
C440   H475    1.083   .     S
C441   C447    1.399   .     A
C441   C443    1.404   .     A
C442   C461    1.389   .     A
C442   Cl466   1.770   .     S
C443   C444    1.398   .     A
C443   H476    1.082   .     S
C444   C445    1.397   .     A
C444   H783    1.080   .     S
C445   C446    1.396   .     A
C445   H478    1.082   .     S
C446   H479    1.082   .     S
C446   C447    1.398   .     A
C448   C454    1.403   .     A
C448   C449    1.404   .     A
C449   C450    1.398   .     A
C449   H482    1.082   .     S
C450   C451    1.397   .     A
C451   C452    1.397   .     A
C451   H484    1.082   .     S
C452   C454    1.397   .     A
C452   H485    1.083   .     S
C453   H469    1.085   .     S
C453   C1348   1.388   1_554 S
C454   H486    1.080   .     S
C455   C456    1.403   .     A
C455   C460    1.404   .     A
C456   H487    1.080   .     S
C456   C457    1.397   .     A
C457   H488    1.082   .     S
C457   C458    1.396   .     A
C458   C459    1.397   .     A
C458   H489    1.082   .     S
C459   C460    1.398   .     A
C459   H796    1.081   .     S
C460   H492    1.082   .     S
C461   H480    1.085   .     S
C461   C1350   1.388   .     S
C462   H498    1.085   .     S
C462   C770    1.375   .     S
C463   H470    1.085   .     S
C464   Cl467   1.762   .     S
H474   C745    1.080   .     S
H481   C549    1.082   .     S
H483   C756    1.081   .     S
N499   Zn509   2.051   .     S
N500   Zn510   2.051   .     S
O501   Zn509   1.972   .     S
O502   Zn510   1.972   .     S
O503   Zn510   1.971   .     S
O504   Zn509   1.971   .     S
O505   Zn509   1.954   .     S
O506   Zn510   1.954   .     S
O507   Zn510   1.888   .     S
O508   Zn509   1.888   .     S
C511   O605    1.294   .     A
C511   O603    1.294   .     A
C511   C514    1.398   .     S
C512   Cl570   1.762   .     S
C512   C514    1.396   .     A
C512   C871    1.375   .     S
C513   C566    1.397   .     A
C513   C522    1.398   .     S
C513   C565    1.391   .     A
C514   C564    1.391   .     A
C515   C537    1.475   .     S
C515   N602    1.375   .     A
C515   C313    1.436   1_655 S
C516   N601    1.375   .     A
C516   C543    1.475   .     S
C517   C550    1.479   .     S
C517   N601    1.375   .     A
C518   N602    1.375   .     A
C518   C557    1.479   .     S
C518   C312    1.436   1_655 S
C519   O609    1.309   .     A
C519   C521    1.467   .     S
C519   O607    1.313   .     A
C520   O610    1.309   .     A
C520   C523    1.467   .     S
C520   O608    1.313   .     A
C521   C528    1.394   .     A
C521   C526    1.395   .     A
C522   O604    1.294   .     A
C522   O606    1.294   .     A
C523   C529    1.394   .     A
C523   C527    1.395   .     A
C524   C526    1.392   .     A
C524   C532    1.402   .     A
C524   H598    1.084   .     S
C525   H599    1.084   .     S
C525   C527    1.392   .     A
C525   C534    1.402   .     A
C526   H597    1.070   .     S
C527   H596    1.070   .     S
C528   H595    1.072   .     S
C528   C530    1.397   .     A
C529   C531    1.397   .     A
C529   H593    1.073   .     S
C530   C535    1.420   .     A
C530   C532    1.415   .     A
C531   C536    1.420   .     A
C531   C534    1.415   .     A
C532   C1473   1.388   .     S
C533   C555    1.389   .     A
C533   Cl567   1.770   .     S
C533   C536    1.429   .     A
C534   C1481   1.388   1_554 S
C535   C544    1.429   .     A
C535   C1454   1.426   .     S
C536   C1453   1.426   1_554 S
C537   C542    1.405   .     A
C537   C538    1.399   .     A
C538   C539    1.398   .     A
C538   H369    1.082   1_655 S
C539   C540    1.397   .     A
C539   H574    1.082   .     S
C540   C541    1.397   .     A
C540   H575    1.082   .     S
C541   C542    1.398   .     A
C542   H577    1.083   .     S
C543   C549    1.399   .     A
C543   C545    1.404   .     A
C544   C563    1.389   .     A
C544   Cl568   1.770   .     S
C545   C546    1.398   .     A
C545   H578    1.082   .     S
C546   C547    1.397   .     A
C546   H885    1.080   .     S
C547   C548    1.396   .     A
C547   H580    1.082   .     S
C548   H581    1.082   .     S
C548   C549    1.398   .     A
C550   C556    1.403   .     A
C550   C551    1.404   .     A
C551   C552    1.398   .     A
C551   H584    1.082   .     S
C552   C553    1.397   .     A
C553   C554    1.397   .     A
C553   H586    1.082   .     S
C554   C556    1.397   .     A
C554   H587    1.083   .     S
C555   H571    1.085   .     S
C555   C1450   1.388   1_554 S
C556   H588    1.080   .     S
C557   C558    1.403   .     A
C557   C562    1.404   .     A
C558   H589    1.080   .     S
C558   C559    1.397   .     A
C559   H590    1.082   .     S
C559   C560    1.396   .     A
C560   C561    1.397   .     A
C560   H591    1.082   .     S
C561   C562    1.398   .     A
C561   H898    1.081   .     S
C562   H594    1.082   .     S
C563   H582    1.085   .     S
C563   C1452   1.388   .     S
C564   H600    1.085   .     S
C564   C872    1.375   .     S
C565   H572    1.085   .     S
C566   Cl569   1.762   .     S
H576   C847    1.080   .     S
H583   C345    1.082   1_655 S
H585   C858    1.081   .     S
N601   Zn611   2.051   .     S
N602   Zn612   2.051   .     S
O603   Zn611   1.972   .     S
O604   Zn612   1.972   .     S
O605   Zn612   1.971   .     S
O606   Zn611   1.971   .     S
O607   Zn611   1.954   .     S
O608   Zn612   1.954   .     S
O609   Zn612   1.888   .     S
O610   Zn611   1.888   .     S
C613   O707    1.294   .     A
C613   O705    1.294   .     A
C613   C616    1.398   .     S
C614   Cl672   1.762   .     S
C614   C616    1.396   .     A
C614   C55     1.375   1_565 S
C615   C668    1.397   .     A
C615   C624    1.398   .     S
C615   C667    1.391   .     A
C616   C666    1.391   .     A
C617   C639    1.475   .     S
C617   N704    1.375   .     A
C617   C721    1.436   .     S
C618   N703    1.375   .     A
C618   C645    1.475   .     S
C618   C824    1.436   1_455 S
C619   C652    1.479   .     S
C619   N703    1.375   .     A
C619   C821    1.436   1_455 S
C620   N704    1.375   .     A
C620   C659    1.479   .     S
C620   C720    1.436   .     S
C621   O711    1.309   .     A
C621   C623    1.467   .     S
C621   O709    1.313   .     A
C622   O712    1.309   .     A
C622   C625    1.467   .     S
C622   O710    1.313   .     A
C623   C630    1.394   .     A
C623   C628    1.395   .     A
C624   O706    1.294   .     A
C624   O708    1.294   .     A
C625   C631    1.394   .     A
C625   C629    1.395   .     A
C626   C628    1.392   .     A
C626   C634    1.402   .     A
C626   H700    1.084   .     S
C627   H701    1.084   .     S
C627   C629    1.392   .     A
C627   C636    1.402   .     A
C628   H699    1.070   .     S
C629   H698    1.070   .     S
C630   H697    1.072   .     S
C630   C632    1.397   .     A
C631   C633    1.397   .     A
C631   H695    1.073   .     S
C632   C637    1.420   .     A
C632   C634    1.415   .     A
C633   C638    1.420   .     A
C633   C636    1.415   .     A
C634   C1575   1.388   .     S
C635   C657    1.389   .     A
C635   Cl669   1.770   .     S
C635   C638    1.429   .     A
C636   C1583   1.388   1_554 S
C637   C646    1.429   .     A
C637   C1556   1.426   .     S
C638   C1555   1.426   1_554 S
C639   C644    1.405   .     A
C639   C640    1.399   .     A
C640   C641    1.398   .     A
C640   H777    1.082   .     S
C641   C642    1.397   .     A
C641   H676    1.082   .     S
C642   C643    1.397   .     A
C642   H677    1.082   .     S
C643   C644    1.398   .     A
C644   H679    1.083   .     S
C645   C651    1.399   .     A
C645   C647    1.404   .     A
C646   C665    1.389   .     A
C646   Cl670   1.770   .     S
C647   C648    1.398   .     A
C647   H680    1.082   .     S
C648   C649    1.397   .     A
C648   H69     1.080   1_565 S
C649   C650    1.396   .     A
C649   H682    1.082   .     S
C650   H683    1.082   .     S
C650   C651    1.398   .     A
C651   H889    1.082   1_455 S
C652   C658    1.403   .     A
C652   C653    1.404   .     A
C653   C654    1.398   .     A
C653   H686    1.082   .     S
C654   C655    1.397   .     A
C655   C656    1.397   .     A
C655   H688    1.082   .     S
C656   C658    1.397   .     A
C656   H689    1.083   .     S
C657   H673    1.085   .     S
C657   C1552   1.388   1_554 S
C658   H690    1.080   .     S
C659   C660    1.403   .     A
C659   C664    1.404   .     A
C660   H691    1.080   .     S
C660   C661    1.397   .     A
C661   H692    1.082   .     S
C661   C662    1.396   .     A
C662   C663    1.397   .     A
C662   H693    1.082   .     S
C663   C664    1.398   .     A
C663   H82     1.081   1_565 S
C664   H696    1.082   .     S
C665   H684    1.085   .     S
C665   C1554   1.388   .     S
C666   H702    1.085   .     S
C666   C56     1.375   1_565 S
C667   H674    1.085   .     S
C668   Cl671   1.762   .     S
H675   C844    1.082   1_455 S
H678   C31     1.080   1_565 S
H685   C753    1.082   .     S
H687   C42     1.081   1_565 S
N703   Zn713   2.051   .     S
N704   Zn714   2.051   .     S
O705   Zn713   1.972   .     S
O706   Zn714   1.972   .     S
O707   Zn714   1.971   .     S
O708   Zn713   1.971   .     S
O709   Zn713   1.954   .     S
O710   Zn714   1.954   .     S
O711   Zn714   1.888   .     S
O712   Zn713   1.888   .     S
C715   O809    1.294   .     A
C715   O807    1.294   .     A
C715   C718    1.398   .     S
C716   Cl774   1.762   .     S
C716   C718    1.396   .     A
C716   C157    1.375   1_565 S
C717   C770    1.397   .     A
C717   C726    1.398   .     S
C717   C769    1.391   .     A
C718   C768    1.391   .     A
C719   C741    1.475   .     S
C719   N806    1.375   .     A
C719   C823    1.436   .     S
C720   N805    1.375   .     A
C720   C747    1.475   .     S
C721   C754    1.479   .     S
C721   N805    1.375   .     A
C722   N806    1.375   .     A
C722   C761    1.479   .     S
C722   C822    1.436   .     S
C723   O813    1.309   .     A
C723   C725    1.467   .     S
C723   O811    1.313   .     A
C724   O814    1.309   .     A
C724   C727    1.467   .     S
C724   O812    1.313   .     A
C725   C732    1.394   .     A
C725   C730    1.395   .     A
C726   O808    1.294   .     A
C726   O810    1.294   .     A
C727   C733    1.394   .     A
C727   C731    1.395   .     A
C728   C730    1.392   .     A
C728   C736    1.402   .     A
C728   H802    1.084   .     S
C729   H803    1.084   .     S
C729   C731    1.392   .     A
C729   C738    1.402   .     A
C730   H801    1.070   .     S
C731   H800    1.070   .     S
C732   H799    1.072   .     S
C732   C734    1.397   .     A
C733   C735    1.397   .     A
C733   H797    1.073   .     S
C734   C739    1.420   .     A
C734   C736    1.415   .     A
C735   C740    1.420   .     A
C735   C738    1.415   .     A
C736   C1677   1.388   .     S
C737   C759    1.389   .     A
C737   Cl771   1.770   .     S
C737   C740    1.429   .     A
C738   C1685   1.388   1_554 S
C739   C748    1.429   .     A
C739   C1658   1.426   .     S
C740   C1657   1.426   1_554 S
C741   C746    1.405   .     A
C741   C742    1.399   .     A
C742   C743    1.398   .     A
C742   H879    1.082   .     S
C743   C744    1.397   .     A
C743   H778    1.082   .     S
C744   C745    1.397   .     A
C744   H779    1.082   .     S
C745   C746    1.398   .     A
C746   H781    1.083   .     S
C747   C753    1.399   .     A
C747   C749    1.404   .     A
C748   C767    1.389   .     A
C748   Cl772   1.770   .     S
C749   C750    1.398   .     A
C749   H782    1.082   .     S
C750   C751    1.397   .     A
C750   H171    1.080   1_565 S
C751   C752    1.396   .     A
C751   H784    1.082   .     S
C752   H785    1.082   .     S
C752   C753    1.398   .     A
C754   C760    1.403   .     A
C754   C755    1.404   .     A
C755   C756    1.398   .     A
C755   H788    1.082   .     S
C756   C757    1.397   .     A
C757   C758    1.397   .     A
C757   H790    1.082   .     S
C758   C760    1.397   .     A
C758   H791    1.083   .     S
C759   H775    1.085   .     S
C759   C1654   1.388   1_554 S
C760   H792    1.080   .     S
C761   C762    1.403   .     A
C761   C766    1.404   .     A
C762   H793    1.080   .     S
C762   C763    1.397   .     A
C763   H794    1.082   .     S
C763   C764    1.396   .     A
C764   C765    1.397   .     A
C764   H795    1.082   .     S
C765   C766    1.398   .     A
C765   H184    1.081   1_565 S
C766   H798    1.082   .     S
C767   H786    1.085   .     S
C767   C1656   1.388   .     S
C768   H804    1.085   .     S
C768   C158    1.375   1_565 S
C769   H776    1.085   .     S
C770   Cl773   1.762   .     S
H780   C133    1.080   1_565 S
H787   C855    1.082   .     S
H789   C144    1.081   1_565 S
N805   Zn815   2.051   .     S
N806   Zn816   2.051   .     S
O807   Zn815   1.972   .     S
O808   Zn816   1.972   .     S
O809   Zn816   1.971   .     S
O810   Zn815   1.971   .     S
O811   Zn815   1.954   .     S
O812   Zn816   1.954   .     S
O813   Zn816   1.888   .     S
O814   Zn815   1.888   .     S
C817   O911    1.294   .     A
C817   O909    1.294   .     A
C817   C820    1.398   .     S
C818   Cl876   1.762   .     S
C818   C820    1.396   .     A
C818   C259    1.375   1_565 S
C819   C872    1.397   .     A
C819   C828    1.398   .     S
C819   C871    1.391   .     A
C820   C870    1.391   .     A
C821   C843    1.475   .     S
C821   N908    1.375   .     A
C821   C619    1.436   1_655 S
C822   N907    1.375   .     A
C822   C849    1.475   .     S
C823   C856    1.479   .     S
C823   N907    1.375   .     A
C824   N908    1.375   .     A
C824   C863    1.479   .     S
C824   C618    1.436   1_655 S
C825   O915    1.309   .     A
C825   C827    1.467   .     S
C825   O913    1.313   .     A
C826   O916    1.309   .     A
C826   C829    1.467   .     S
C826   O914    1.313   .     A
C827   C834    1.394   .     A
C827   C832    1.395   .     A
C828   O910    1.294   .     A
C828   O912    1.294   .     A
C829   C835    1.394   .     A
C829   C833    1.395   .     A
C830   C832    1.392   .     A
C830   C838    1.402   .     A
C830   H904    1.084   .     S
C831   H905    1.084   .     S
C831   C833    1.392   .     A
C831   C840    1.402   .     A
C832   H903    1.070   .     S
C833   H902    1.070   .     S
C834   H901    1.072   .     S
C834   C836    1.397   .     A
C835   C837    1.397   .     A
C835   H899    1.073   .     S
C836   C841    1.420   .     A
C836   C838    1.415   .     A
C837   C842    1.420   .     A
C837   C840    1.415   .     A
C838   C1779   1.388   .     S
C839   C861    1.389   .     A
C839   Cl873   1.770   .     S
C839   C842    1.429   .     A
C840   C1787   1.388   1_554 S
C841   C850    1.429   .     A
C841   C1760   1.426   .     S
C842   C1759   1.426   1_554 S
C843   C848    1.405   .     A
C843   C844    1.399   .     A
C844   C845    1.398   .     A
C844   H675    1.082   1_655 S
C845   C846    1.397   .     A
C845   H880    1.082   .     S
C846   C847    1.397   .     A
C846   H881    1.082   .     S
C847   C848    1.398   .     A
C848   H883    1.083   .     S
C849   C855    1.399   .     A
C849   C851    1.404   .     A
C850   C869    1.389   .     A
C850   Cl874   1.770   .     S
C851   C852    1.398   .     A
C851   H884    1.082   .     S
C852   C853    1.397   .     A
C852   H273    1.080   1_565 S
C853   C854    1.396   .     A
C853   H886    1.082   .     S
C854   H887    1.082   .     S
C854   C855    1.398   .     A
C856   C862    1.403   .     A
C856   C857    1.404   .     A
C857   C858    1.398   .     A
C857   H890    1.082   .     S
C858   C859    1.397   .     A
C859   C860    1.397   .     A
C859   H892    1.082   .     S
C860   C862    1.397   .     A
C860   H893    1.083   .     S
C861   H877    1.085   .     S
C861   C1756   1.388   1_554 S
C862   H894    1.080   .     S
C863   C864    1.403   .     A
C863   C868    1.404   .     A
C864   H895    1.080   .     S
C864   C865    1.397   .     A
C865   H896    1.082   .     S
C865   C866    1.396   .     A
C866   C867    1.397   .     A
C866   H897    1.082   .     S
C867   C868    1.398   .     A
C867   H286    1.081   1_565 S
C868   H900    1.082   .     S
C869   H888    1.085   .     S
C869   C1758   1.388   .     S
C870   H906    1.085   .     S
C870   C260    1.375   1_565 S
C871   H878    1.085   .     S
C872   Cl875   1.762   .     S
H882   C235    1.080   1_565 S
H889   C651    1.082   1_655 S
H891   C246    1.081   1_565 S
N907   Zn917   2.051   .     S
N908   Zn918   2.051   .     S
O909   Zn917   1.972   .     S
O910   Zn918   1.972   .     S
O911   Zn918   1.971   .     S
O912   Zn917   1.971   .     S
O913   Zn917   1.954   .     S
O914   Zn918   1.954   .     S
O915   Zn918   1.888   .     S
O916   Zn917   1.888   .     S
C919   O1013   1.294   .     A
C919   O1011   1.294   .     A
C919   C922    1.398   .     S
C920   Cl978   1.762   .     S
C920   C922    1.396   .     A
C920   C1279   1.375   .     S
C921   C974    1.397   .     A
C921   C930    1.398   .     S
C921   C973    1.391   .     A
C922   C972    1.391   .     A
C923   C945    1.475   .     S
C923   N1010   1.375   .     A
C923   C1027   1.436   .     S
C924   N1009   1.375   .     A
C924   C951    1.475   .     S
C924   C1130   1.436   1_455 S
C925   C958    1.479   .     S
C925   N1009   1.375   .     A
C925   C1127   1.436   1_455 S
C926   N1010   1.375   .     A
C926   C965    1.479   .     S
C926   C1026   1.436   .     S
C927   O1017   1.309   .     A
C927   C929    1.467   .     S
C927   O1015   1.313   .     A
C928   O1018   1.309   .     A
C928   C931    1.467   .     S
C928   O1016   1.313   .     A
C929   C936    1.394   .     A
C929   C934    1.395   .     A
C930   O1012   1.294   .     A
C930   O1014   1.294   .     A
C931   C937    1.394   .     A
C931   C935    1.395   .     A
C932   C934    1.392   .     A
C932   C940    1.402   .     A
C932   H1006   1.084   .     S
C933   H1007   1.084   .     S
C933   C935    1.392   .     A
C933   C942    1.402   .     A
C934   H1005   1.070   .     S
C935   H1004   1.070   .     S
C936   H1003   1.072   .     S
C936   C938    1.397   .     A
C937   C939    1.397   .     A
C937   H1001   1.073   .     S
C938   C943    1.420   .     A
C938   C940    1.415   .     A
C939   C944    1.420   .     A
C939   C942    1.415   .     A
C940   C45     1.388   1_556 S
C941   C963    1.389   .     A
C941   Cl975   1.770   .     S
C941   C944    1.429   .     A
C943   C952    1.429   .     A
C943   C26     1.426   1_556 S
C945   C950    1.405   .     A
C945   C946    1.399   .     A
C946   C947    1.398   .     A
C946   H1083   1.082   .     S
C947   C948    1.397   .     A
C947   H982    1.082   .     S
C948   C949    1.397   .     A
C948   H983    1.082   .     S
C949   C950    1.398   .     A
C949   H1596   1.080   1_545 S
C950   H985    1.083   .     S
C951   C957    1.399   .     A
C951   C953    1.404   .     A
C952   C971    1.389   .     A
C952   Cl976   1.770   .     S
C953   C954    1.398   .     A
C953   H986    1.082   .     S
C954   C955    1.397   .     A
C954   H1293   1.080   .     S
C955   C956    1.396   .     A
C955   H988    1.082   .     S
C956   H989    1.082   .     S
C956   C957    1.398   .     A
C957   H1195   1.082   1_455 S
C958   C964    1.403   .     A
C958   C959    1.404   .     A
C959   C960    1.398   .     A
C959   H992    1.082   .     S
C960   C961    1.397   .     A
C960   H1605   1.081   1_545 S
C961   C962    1.397   .     A
C961   H994    1.082   .     S
C962   C964    1.397   .     A
C962   H995    1.083   .     S
C963   H979    1.085   .     S
C964   H996    1.080   .     S
C965   C966    1.403   .     A
C965   C970    1.404   .     A
C966   H997    1.080   .     S
C966   C967    1.397   .     A
C967   H998    1.082   .     S
C967   C968    1.396   .     A
C968   C969    1.397   .     A
C968   H999    1.082   .     S
C969   C970    1.398   .     A
C969   H1306   1.081   .     S
C970   H1002   1.082   .     S
C971   H990    1.085   .     S
C971   C24     1.388   1_556 S
C972   H1008   1.085   .     S
C972   C1280   1.375   .     S
C973   H980    1.085   .     S
C973   C1532   1.375   1_545 S
C974   Cl977   1.762   .     S
C974   C1584   1.375   1_545 S
H981   C1150   1.082   1_455 S
H984   C1255   1.080   .     S
H987   C1566   1.080   1_545 S
H991   C1059   1.082   .     S
H993   C1266   1.081   .     S
H1000  C1581   1.081   1_545 S
N1009  Zn1019  2.051   .     S
N1010  Zn1020  2.051   .     S
O1011  Zn1019  1.972   .     S
O1012  Zn1020  1.972   .     S
O1013  Zn1020  1.971   .     S
O1014  Zn1019  1.971   .     S
O1015  Zn1019  1.954   .     S
O1016  Zn1020  1.954   .     S
O1017  Zn1020  1.888   .     S
O1018  Zn1019  1.888   .     S
C1021  O1115   1.294   .     A
C1021  O1113   1.294   .     A
C1021  C1024   1.398   .     S
C1022  Cl1080  1.762   .     S
C1022  C1024   1.396   .     A
C1022  C1381   1.375   .     S
C1023  C1076   1.397   .     A
C1023  C1032   1.398   .     S
C1023  C1075   1.391   .     A
C1024  C1074   1.391   .     A
C1025  C1047   1.475   .     S
C1025  N1112   1.375   .     A
C1025  C1129   1.436   .     S
C1026  N1111   1.375   .     A
C1026  C1053   1.475   .     S
C1027  C1060   1.479   .     S
C1027  N1111   1.375   .     A
C1028  N1112   1.375   .     A
C1028  C1067   1.479   .     S
C1028  C1128   1.436   .     S
C1029  O1119   1.309   .     A
C1029  C1031   1.467   .     S
C1029  O1117   1.313   .     A
C1030  O1120   1.309   .     A
C1030  C1033   1.467   .     S
C1030  O1118   1.313   .     A
C1031  C1038   1.394   .     A
C1031  C1036   1.395   .     A
C1032  O1114   1.294   .     A
C1032  O1116   1.294   .     A
C1033  C1039   1.394   .     A
C1033  C1037   1.395   .     A
C1034  C1036   1.392   .     A
C1034  C1042   1.402   .     A
C1034  H1108   1.084   .     S
C1035  H1109   1.084   .     S
C1035  C1037   1.392   .     A
C1035  C1044   1.402   .     A
C1036  H1107   1.070   .     S
C1037  H1106   1.070   .     S
C1038  H1105   1.072   .     S
C1038  C1040   1.397   .     A
C1039  C1041   1.397   .     A
C1039  H1103   1.073   .     S
C1040  C1045   1.420   .     A
C1040  C1042   1.415   .     A
C1041  C1046   1.420   .     A
C1041  C1044   1.415   .     A
C1042  C147    1.388   1_556 S
C1043  C1065   1.389   .     A
C1043  Cl1077  1.770   .     S
C1043  C1046   1.429   .     A
C1045  C1054   1.429   .     A
C1045  C128    1.426   1_556 S
C1047  C1052   1.405   .     A
C1047  C1048   1.399   .     A
C1048  C1049   1.398   .     A
C1048  H1185   1.082   .     S
C1049  C1050   1.397   .     A
C1049  H1084   1.082   .     S
C1050  C1051   1.397   .     A
C1050  H1085   1.082   .     S
C1051  C1052   1.398   .     A
C1051  H1698   1.080   1_545 S
C1052  H1087   1.083   .     S
C1053  C1059   1.399   .     A
C1053  C1055   1.404   .     A
C1054  C1073   1.389   .     A
C1054  Cl1078  1.770   .     S
C1055  C1056   1.398   .     A
C1055  H1088   1.082   .     S
C1056  C1057   1.397   .     A
C1056  H1395   1.080   .     S
C1057  C1058   1.396   .     A
C1057  H1090   1.082   .     S
C1058  H1091   1.082   .     S
C1058  C1059   1.398   .     A
C1060  C1066   1.403   .     A
C1060  C1061   1.404   .     A
C1061  C1062   1.398   .     A
C1061  H1094   1.082   .     S
C1062  C1063   1.397   .     A
C1062  H1707   1.081   1_545 S
C1063  C1064   1.397   .     A
C1063  H1096   1.082   .     S
C1064  C1066   1.397   .     A
C1064  H1097   1.083   .     S
C1065  H1081   1.085   .     S
C1066  H1098   1.080   .     S
C1067  C1068   1.403   .     A
C1067  C1072   1.404   .     A
C1068  H1099   1.080   .     S
C1068  C1069   1.397   .     A
C1069  H1100   1.082   .     S
C1069  C1070   1.396   .     A
C1070  C1071   1.397   .     A
C1070  H1101   1.082   .     S
C1071  C1072   1.398   .     A
C1071  H1408   1.081   .     S
C1072  H1104   1.082   .     S
C1073  H1092   1.085   .     S
C1073  C126    1.388   1_556 S
C1074  H1110   1.085   .     S
C1074  C1382   1.375   .     S
C1075  H1082   1.085   .     S
C1075  C1634   1.375   1_545 S
C1076  Cl1079  1.762   .     S
C1076  C1686   1.375   1_545 S
H1086  C1357   1.080   .     S
H1089  C1668   1.080   1_545 S
H1093  C1161   1.082   .     S
H1095  C1368   1.081   .     S
H1102  C1683   1.081   1_545 S
N1111  Zn1121  2.051   .     S
N1112  Zn1122  2.051   .     S
O1113  Zn1121  1.972   .     S
O1114  Zn1122  1.972   .     S
O1115  Zn1122  1.971   .     S
O1116  Zn1121  1.971   .     S
O1117  Zn1121  1.954   .     S
O1118  Zn1122  1.954   .     S
O1119  Zn1122  1.888   .     S
O1120  Zn1121  1.888   .     S
C1123  O1217   1.294   .     A
C1123  O1215   1.294   .     A
C1123  C1126   1.398   .     S
C1124  Cl1182  1.762   .     S
C1124  C1126   1.396   .     A
C1124  C1483   1.375   .     S
C1125  C1178   1.397   .     A
C1125  C1134   1.398   .     S
C1125  C1177   1.391   .     A
C1126  C1176   1.391   .     A
C1127  C1149   1.475   .     S
C1127  N1214   1.375   .     A
C1127  C925    1.436   1_655 S
C1128  N1213   1.375   .     A
C1128  C1155   1.475   .     S
C1129  C1162   1.479   .     S
C1129  N1213   1.375   .     A
C1130  N1214   1.375   .     A
C1130  C1169   1.479   .     S
C1130  C924    1.436   1_655 S
C1131  O1221   1.309   .     A
C1131  C1133   1.467   .     S
C1131  O1219   1.313   .     A
C1132  O1222   1.309   .     A
C1132  C1135   1.467   .     S
C1132  O1220   1.313   .     A
C1133  C1140   1.394   .     A
C1133  C1138   1.395   .     A
C1134  O1216   1.294   .     A
C1134  O1218   1.294   .     A
C1135  C1141   1.394   .     A
C1135  C1139   1.395   .     A
C1136  C1138   1.392   .     A
C1136  C1144   1.402   .     A
C1136  H1210   1.084   .     S
C1137  H1211   1.084   .     S
C1137  C1139   1.392   .     A
C1137  C1146   1.402   .     A
C1138  H1209   1.070   .     S
C1139  H1208   1.070   .     S
C1140  H1207   1.072   .     S
C1140  C1142   1.397   .     A
C1141  C1143   1.397   .     A
C1141  H1205   1.073   .     S
C1142  C1147   1.420   .     A
C1142  C1144   1.415   .     A
C1143  C1148   1.420   .     A
C1143  C1146   1.415   .     A
C1144  C249    1.388   1_556 S
C1145  C1167   1.389   .     A
C1145  Cl1179  1.770   .     S
C1145  C1148   1.429   .     A
C1147  C1156   1.429   .     A
C1147  C230    1.426   1_556 S
C1149  C1154   1.405   .     A
C1149  C1150   1.399   .     A
C1150  C1151   1.398   .     A
C1150  H981    1.082   1_655 S
C1151  C1152   1.397   .     A
C1151  H1186   1.082   .     S
C1152  C1153   1.397   .     A
C1152  H1187   1.082   .     S
C1153  C1154   1.398   .     A
C1153  H1800   1.080   1_545 S
C1154  H1189   1.083   .     S
C1155  C1161   1.399   .     A
C1155  C1157   1.404   .     A
C1156  C1175   1.389   .     A
C1156  Cl1180  1.770   .     S
C1157  C1158   1.398   .     A
C1157  H1190   1.082   .     S
C1158  C1159   1.397   .     A
C1158  H1497   1.080   .     S
C1159  C1160   1.396   .     A
C1159  H1192   1.082   .     S
C1160  H1193   1.082   .     S
C1160  C1161   1.398   .     A
C1162  C1168   1.403   .     A
C1162  C1163   1.404   .     A
C1163  C1164   1.398   .     A
C1163  H1196   1.082   .     S
C1164  C1165   1.397   .     A
C1164  H1809   1.081   1_545 S
C1165  C1166   1.397   .     A
C1165  H1198   1.082   .     S
C1166  C1168   1.397   .     A
C1166  H1199   1.083   .     S
C1167  H1183   1.085   .     S
C1168  H1200   1.080   .     S
C1169  C1170   1.403   .     A
C1169  C1174   1.404   .     A
C1170  H1201   1.080   .     S
C1170  C1171   1.397   .     A
C1171  H1202   1.082   .     S
C1171  C1172   1.396   .     A
C1172  C1173   1.397   .     A
C1172  H1203   1.082   .     S
C1173  C1174   1.398   .     A
C1173  H1510   1.081   .     S
C1174  H1206   1.082   .     S
C1175  H1194   1.085   .     S
C1175  C228    1.388   1_556 S
C1176  H1212   1.085   .     S
C1176  C1484   1.375   .     S
C1177  H1184   1.085   .     S
C1177  C1736   1.375   1_545 S
C1178  Cl1181  1.762   .     S
C1178  C1788   1.375   1_545 S
H1188  C1459   1.080   .     S
H1191  C1770   1.080   1_545 S
H1195  C957    1.082   1_655 S
H1197  C1470   1.081   .     S
H1204  C1785   1.081   1_545 S
N1213  Zn1223  2.051   .     S
N1214  Zn1224  2.051   .     S
O1215  Zn1223  1.972   .     S
O1216  Zn1224  1.972   .     S
O1217  Zn1224  1.971   .     S
O1218  Zn1223  1.971   .     S
O1219  Zn1223  1.954   .     S
O1220  Zn1224  1.954   .     S
O1221  Zn1224  1.888   .     S
O1222  Zn1223  1.888   .     S
C1225  O1319   1.294   .     A
C1225  O1317   1.294   .     A
C1225  C1228   1.398   .     S
C1226  Cl1284  1.762   .     S
C1226  C1228   1.396   .     A
C1226  C1585   1.375   .     S
C1227  C1280   1.397   .     A
C1227  C1236   1.398   .     S
C1227  C1279   1.391   .     A
C1228  C1278   1.391   .     A
C1229  C1251   1.475   .     S
C1229  N1316   1.375   .     A
C1229  C1333   1.436   .     S
C1230  N1315   1.375   .     A
C1230  C1257   1.475   .     S
C1230  C1436   1.436   1_455 S
C1231  C1264   1.479   .     S
C1231  N1315   1.375   .     A
C1231  C1433   1.436   1_455 S
C1232  N1316   1.375   .     A
C1232  C1271   1.479   .     S
C1232  C1332   1.436   .     S
C1233  O1323   1.309   .     A
C1233  C1235   1.467   .     S
C1233  O1321   1.313   .     A
C1234  O1324   1.309   .     A
C1234  C1237   1.467   .     S
C1234  O1322   1.313   .     A
C1235  C1242   1.394   .     A
C1235  C1240   1.395   .     A
C1236  O1318   1.294   .     A
C1236  O1320   1.294   .     A
C1237  C1243   1.394   .     A
C1237  C1241   1.395   .     A
C1238  C1240   1.392   .     A
C1238  C1246   1.402   .     A
C1238  H1312   1.084   .     S
C1239  H1313   1.084   .     S
C1239  C1241   1.392   .     A
C1239  C1248   1.402   .     A
C1240  H1311   1.070   .     S
C1241  H1310   1.070   .     S
C1242  H1309   1.072   .     S
C1242  C1244   1.397   .     A
C1243  C1245   1.397   .     A
C1243  H1307   1.073   .     S
C1244  C1249   1.420   .     A
C1244  C1246   1.415   .     A
C1245  C1250   1.420   .     A
C1245  C1248   1.415   .     A
C1246  C351    1.388   1_556 S
C1247  C1269   1.389   .     A
C1247  Cl1281  1.770   .     S
C1247  C1250   1.429   .     A
C1249  C1258   1.429   .     A
C1249  C332    1.426   1_556 S
C1251  C1256   1.405   .     A
C1251  C1252   1.399   .     A
C1252  C1253   1.398   .     A
C1252  H1389   1.082   .     S
C1253  C1254   1.397   .     A
C1253  H1288   1.082   .     S
C1254  C1255   1.397   .     A
C1254  H1289   1.082   .     S
C1255  C1256   1.398   .     A
C1256  H1291   1.083   .     S
C1257  C1263   1.399   .     A
C1257  C1259   1.404   .     A
C1258  C1277   1.389   .     A
C1258  Cl1282  1.770   .     S
C1259  C1260   1.398   .     A
C1259  H1292   1.082   .     S
C1260  C1261   1.397   .     A
C1260  H1599   1.080   .     S
C1261  C1262   1.396   .     A
C1261  H1294   1.082   .     S
C1262  H1295   1.082   .     S
C1262  C1263   1.398   .     A
C1263  H1501   1.082   1_455 S
C1264  C1270   1.403   .     A
C1264  C1265   1.404   .     A
C1265  C1266   1.398   .     A
C1265  H1298   1.082   .     S
C1266  C1267   1.397   .     A
C1267  C1268   1.397   .     A
C1267  H1300   1.082   .     S
C1268  C1270   1.397   .     A
C1268  H1301   1.083   .     S
C1269  H1285   1.085   .     S
C1270  H1302   1.080   .     S
C1271  C1272   1.403   .     A
C1271  C1276   1.404   .     A
C1272  H1303   1.080   .     S
C1272  C1273   1.397   .     A
C1273  H1304   1.082   .     S
C1273  C1274   1.396   .     A
C1274  C1275   1.397   .     A
C1274  H1305   1.082   .     S
C1275  C1276   1.398   .     A
C1275  H1612   1.081   .     S
C1276  H1308   1.082   .     S
C1277  H1296   1.085   .     S
C1277  C330    1.388   1_556 S
C1278  H1314   1.085   .     S
C1278  C1586   1.375   .     S
C1279  H1286   1.085   .     S
C1280  Cl1283  1.762   .     S
H1287  C1456   1.082   1_455 S
H1290  C1561   1.080   .     S
H1297  C1365   1.082   .     S
H1299  C1572   1.081   .     S
N1315  Zn1325  2.051   .     S
N1316  Zn1326  2.051   .     S
O1317  Zn1325  1.972   .     S
O1318  Zn1326  1.972   .     S
O1319  Zn1326  1.971   .     S
O1320  Zn1325  1.971   .     S
O1321  Zn1325  1.954   .     S
O1322  Zn1326  1.954   .     S
O1323  Zn1326  1.888   .     S
O1324  Zn1325  1.888   .     S
C1327  O1421   1.294   .     A
C1327  O1419   1.294   .     A
C1327  C1330   1.398   .     S
C1328  Cl1386  1.762   .     S
C1328  C1330   1.396   .     A
C1328  C1687   1.375   .     S
C1329  C1382   1.397   .     A
C1329  C1338   1.398   .     S
C1329  C1381   1.391   .     A
C1330  C1380   1.391   .     A
C1331  C1353   1.475   .     S
C1331  N1418   1.375   .     A
C1331  C1435   1.436   .     S
C1332  N1417   1.375   .     A
C1332  C1359   1.475   .     S
C1333  C1366   1.479   .     S
C1333  N1417   1.375   .     A
C1334  N1418   1.375   .     A
C1334  C1373   1.479   .     S
C1334  C1434   1.436   .     S
C1335  O1425   1.309   .     A
C1335  C1337   1.467   .     S
C1335  O1423   1.313   .     A
C1336  O1426   1.309   .     A
C1336  C1339   1.467   .     S
C1336  O1424   1.313   .     A
C1337  C1344   1.394   .     A
C1337  C1342   1.395   .     A
C1338  O1420   1.294   .     A
C1338  O1422   1.294   .     A
C1339  C1345   1.394   .     A
C1339  C1343   1.395   .     A
C1340  C1342   1.392   .     A
C1340  C1348   1.402   .     A
C1340  H1414   1.084   .     S
C1341  H1415   1.084   .     S
C1341  C1343   1.392   .     A
C1341  C1350   1.402   .     A
C1342  H1413   1.070   .     S
C1343  H1412   1.070   .     S
C1344  H1411   1.072   .     S
C1344  C1346   1.397   .     A
C1345  C1347   1.397   .     A
C1345  H1409   1.073   .     S
C1346  C1351   1.420   .     A
C1346  C1348   1.415   .     A
C1347  C1352   1.420   .     A
C1347  C1350   1.415   .     A
C1348  C453    1.388   1_556 S
C1349  C1371   1.389   .     A
C1349  Cl1383  1.770   .     S
C1349  C1352   1.429   .     A
C1351  C1360   1.429   .     A
C1351  C434    1.426   1_556 S
C1353  C1358   1.405   .     A
C1353  C1354   1.399   .     A
C1354  C1355   1.398   .     A
C1354  H1491   1.082   .     S
C1355  C1356   1.397   .     A
C1355  H1390   1.082   .     S
C1356  C1357   1.397   .     A
C1356  H1391   1.082   .     S
C1357  C1358   1.398   .     A
C1358  H1393   1.083   .     S
C1359  C1365   1.399   .     A
C1359  C1361   1.404   .     A
C1360  C1379   1.389   .     A
C1360  Cl1384  1.770   .     S
C1361  C1362   1.398   .     A
C1361  H1394   1.082   .     S
C1362  C1363   1.397   .     A
C1362  H1701   1.080   .     S
C1363  C1364   1.396   .     A
C1363  H1396   1.082   .     S
C1364  H1397   1.082   .     S
C1364  C1365   1.398   .     A
C1366  C1372   1.403   .     A
C1366  C1367   1.404   .     A
C1367  C1368   1.398   .     A
C1367  H1400   1.082   .     S
C1368  C1369   1.397   .     A
C1369  C1370   1.397   .     A
C1369  H1402   1.082   .     S
C1370  C1372   1.397   .     A
C1370  H1403   1.083   .     S
C1371  H1387   1.085   .     S
C1372  H1404   1.080   .     S
C1373  C1374   1.403   .     A
C1373  C1378   1.404   .     A
C1374  H1405   1.080   .     S
C1374  C1375   1.397   .     A
C1375  H1406   1.082   .     S
C1375  C1376   1.396   .     A
C1376  C1377   1.397   .     A
C1376  H1407   1.082   .     S
C1377  C1378   1.398   .     A
C1377  H1714   1.081   .     S
C1378  H1410   1.082   .     S
C1379  H1398   1.085   .     S
C1379  C432    1.388   1_556 S
C1380  H1416   1.085   .     S
C1380  C1688   1.375   .     S
C1381  H1388   1.085   .     S
C1382  Cl1385  1.762   .     S
H1392  C1663   1.080   .     S
H1399  C1467   1.082   .     S
H1401  C1674   1.081   .     S
N1417  Zn1427  2.051   .     S
N1418  Zn1428  2.051   .     S
O1419  Zn1427  1.972   .     S
O1420  Zn1428  1.972   .     S
O1421  Zn1428  1.971   .     S
O1422  Zn1427  1.971   .     S
O1423  Zn1427  1.954   .     S
O1424  Zn1428  1.954   .     S
O1425  Zn1428  1.888   .     S
O1426  Zn1427  1.888   .     S
C1429  O1523   1.294   .     A
C1429  O1521   1.294   .     A
C1429  C1432   1.398   .     S
C1430  Cl1488  1.762   .     S
C1430  C1432   1.396   .     A
C1430  C1789   1.375   .     S
C1431  C1484   1.397   .     A
C1431  C1440   1.398   .     S
C1431  C1483   1.391   .     A
C1432  C1482   1.391   .     A
C1433  C1455   1.475   .     S
C1433  N1520   1.375   .     A
C1433  C1231   1.436   1_655 S
C1434  N1519   1.375   .     A
C1434  C1461   1.475   .     S
C1435  C1468   1.479   .     S
C1435  N1519   1.375   .     A
C1436  N1520   1.375   .     A
C1436  C1475   1.479   .     S
C1436  C1230   1.436   1_655 S
C1437  O1527   1.309   .     A
C1437  C1439   1.467   .     S
C1437  O1525   1.313   .     A
C1438  O1528   1.309   .     A
C1438  C1441   1.467   .     S
C1438  O1526   1.313   .     A
C1439  C1446   1.394   .     A
C1439  C1444   1.395   .     A
C1440  O1522   1.294   .     A
C1440  O1524   1.294   .     A
C1441  C1447   1.394   .     A
C1441  C1445   1.395   .     A
C1442  C1444   1.392   .     A
C1442  C1450   1.402   .     A
C1442  H1516   1.084   .     S
C1443  H1517   1.084   .     S
C1443  C1445   1.392   .     A
C1443  C1452   1.402   .     A
C1444  H1515   1.070   .     S
C1445  H1514   1.070   .     S
C1446  H1513   1.072   .     S
C1446  C1448   1.397   .     A
C1447  C1449   1.397   .     A
C1447  H1511   1.073   .     S
C1448  C1453   1.420   .     A
C1448  C1450   1.415   .     A
C1449  C1454   1.420   .     A
C1449  C1452   1.415   .     A
C1450  C555    1.388   1_556 S
C1451  C1473   1.389   .     A
C1451  Cl1485  1.770   .     S
C1451  C1454   1.429   .     A
C1453  C1462   1.429   .     A
C1453  C536    1.426   1_556 S
C1455  C1460   1.405   .     A
C1455  C1456   1.399   .     A
C1456  C1457   1.398   .     A
C1456  H1287   1.082   1_655 S
C1457  C1458   1.397   .     A
C1457  H1492   1.082   .     S
C1458  C1459   1.397   .     A
C1458  H1493   1.082   .     S
C1459  C1460   1.398   .     A
C1460  H1495   1.083   .     S
C1461  C1467   1.399   .     A
C1461  C1463   1.404   .     A
C1462  C1481   1.389   .     A
C1462  Cl1486  1.770   .     S
C1463  C1464   1.398   .     A
C1463  H1496   1.082   .     S
C1464  C1465   1.397   .     A
C1464  H1803   1.080   .     S
C1465  C1466   1.396   .     A
C1465  H1498   1.082   .     S
C1466  H1499   1.082   .     S
C1466  C1467   1.398   .     A
C1468  C1474   1.403   .     A
C1468  C1469   1.404   .     A
C1469  C1470   1.398   .     A
C1469  H1502   1.082   .     S
C1470  C1471   1.397   .     A
C1471  C1472   1.397   .     A
C1471  H1504   1.082   .     S
C1472  C1474   1.397   .     A
C1472  H1505   1.083   .     S
C1473  H1489   1.085   .     S
C1474  H1506   1.080   .     S
C1475  C1476   1.403   .     A
C1475  C1480   1.404   .     A
C1476  H1507   1.080   .     S
C1476  C1477   1.397   .     A
C1477  H1508   1.082   .     S
C1477  C1478   1.396   .     A
C1478  C1479   1.397   .     A
C1478  H1509   1.082   .     S
C1479  C1480   1.398   .     A
C1479  H1816   1.081   .     S
C1480  H1512   1.082   .     S
C1481  H1500   1.085   .     S
C1481  C534    1.388   1_556 S
C1482  H1518   1.085   .     S
C1482  C1790   1.375   .     S
C1483  H1490   1.085   .     S
C1484  Cl1487  1.762   .     S
H1494  C1765   1.080   .     S
H1501  C1263   1.082   1_655 S
H1503  C1776   1.081   .     S
N1519  Zn1529  2.051   .     S
N1520  Zn1530  2.051   .     S
O1521  Zn1529  1.972   .     S
O1522  Zn1530  1.972   .     S
O1523  Zn1530  1.971   .     S
O1524  Zn1529  1.971   .     S
O1525  Zn1529  1.954   .     S
O1526  Zn1530  1.954   .     S
O1527  Zn1530  1.888   .     S
O1528  Zn1529  1.888   .     S
C1531  O1625   1.294   .     A
C1531  O1623   1.294   .     A
C1531  C1534   1.398   .     S
C1532  Cl1590  1.762   .     S
C1532  C1534   1.396   .     A
C1532  C973    1.375   1_565 S
C1533  C1586   1.397   .     A
C1533  C1542   1.398   .     S
C1533  C1585   1.391   .     A
C1534  C1584   1.391   .     A
C1535  C1557   1.475   .     S
C1535  N1622   1.375   .     A
C1535  C1639   1.436   .     S
C1536  N1621   1.375   .     A
C1536  C1563   1.475   .     S
C1536  C1742   1.436   1_455 S
C1537  C1570   1.479   .     S
C1537  N1621   1.375   .     A
C1537  C1739   1.436   1_455 S
C1538  N1622   1.375   .     A
C1538  C1577   1.479   .     S
C1538  C1638   1.436   .     S
C1539  O1629   1.309   .     A
C1539  C1541   1.467   .     S
C1539  O1627   1.313   .     A
C1540  O1630   1.309   .     A
C1540  C1543   1.467   .     S
C1540  O1628   1.313   .     A
C1541  C1548   1.394   .     A
C1541  C1546   1.395   .     A
C1542  O1624   1.294   .     A
C1542  O1626   1.294   .     A
C1543  C1549   1.394   .     A
C1543  C1547   1.395   .     A
C1544  C1546   1.392   .     A
C1544  C1552   1.402   .     A
C1544  H1618   1.084   .     S
C1545  H1619   1.084   .     S
C1545  C1547   1.392   .     A
C1545  C1554   1.402   .     A
C1546  H1617   1.070   .     S
C1547  H1616   1.070   .     S
C1548  H1615   1.072   .     S
C1548  C1550   1.397   .     A
C1549  C1551   1.397   .     A
C1549  H1613   1.073   .     S
C1550  C1555   1.420   .     A
C1550  C1552   1.415   .     A
C1551  C1556   1.420   .     A
C1551  C1554   1.415   .     A
C1552  C657    1.388   1_556 S
C1553  C1575   1.389   .     A
C1553  Cl1587  1.770   .     S
C1553  C1556   1.429   .     A
C1555  C1564   1.429   .     A
C1555  C638    1.426   1_556 S
C1557  C1562   1.405   .     A
C1557  C1558   1.399   .     A
C1558  C1559   1.398   .     A
C1558  H1695   1.082   .     S
C1559  C1560   1.397   .     A
C1559  H1594   1.082   .     S
C1560  C1561   1.397   .     A
C1560  H1595   1.082   .     S
C1561  C1562   1.398   .     A
C1562  H1597   1.083   .     S
C1563  C1569   1.399   .     A
C1563  C1565   1.404   .     A
C1564  C1583   1.389   .     A
C1564  Cl1588  1.770   .     S
C1565  C1566   1.398   .     A
C1565  H1598   1.082   .     S
C1566  C1567   1.397   .     A
C1566  H987    1.080   1_565 S
C1567  C1568   1.396   .     A
C1567  H1600   1.082   .     S
C1568  H1601   1.082   .     S
C1568  C1569   1.398   .     A
C1569  H1807   1.082   1_455 S
C1570  C1576   1.403   .     A
C1570  C1571   1.404   .     A
C1571  C1572   1.398   .     A
C1571  H1604   1.082   .     S
C1572  C1573   1.397   .     A
C1573  C1574   1.397   .     A
C1573  H1606   1.082   .     S
C1574  C1576   1.397   .     A
C1574  H1607   1.083   .     S
C1575  H1591   1.085   .     S
C1576  H1608   1.080   .     S
C1577  C1578   1.403   .     A
C1577  C1582   1.404   .     A
C1578  H1609   1.080   .     S
C1578  C1579   1.397   .     A
C1579  H1610   1.082   .     S
C1579  C1580   1.396   .     A
C1580  C1581   1.397   .     A
C1580  H1611   1.082   .     S
C1581  C1582   1.398   .     A
C1581  H1000   1.081   1_565 S
C1582  H1614   1.082   .     S
C1583  H1602   1.085   .     S
C1583  C636    1.388   1_556 S
C1584  H1620   1.085   .     S
C1584  C974    1.375   1_565 S
C1585  H1592   1.085   .     S
C1586  Cl1589  1.762   .     S
H1593  C1762   1.082   1_455 S
H1596  C949    1.080   1_565 S
H1603  C1671   1.082   .     S
H1605  C960    1.081   1_565 S
N1621  Zn1631  2.051   .     S
N1622  Zn1632  2.051   .     S
O1623  Zn1631  1.972   .     S
O1624  Zn1632  1.972   .     S
O1625  Zn1632  1.971   .     S
O1626  Zn1631  1.971   .     S
O1627  Zn1631  1.954   .     S
O1628  Zn1632  1.954   .     S
O1629  Zn1632  1.888   .     S
O1630  Zn1631  1.888   .     S
C1633  O1727   1.294   .     A
C1633  O1725   1.294   .     A
C1633  C1636   1.398   .     S
C1634  Cl1692  1.762   .     S
C1634  C1636   1.396   .     A
C1634  C1075   1.375   1_565 S
C1635  C1688   1.397   .     A
C1635  C1644   1.398   .     S
C1635  C1687   1.391   .     A
C1636  C1686   1.391   .     A
C1637  C1659   1.475   .     S
C1637  N1724   1.375   .     A
C1637  C1741   1.436   .     S
C1638  N1723   1.375   .     A
C1638  C1665   1.475   .     S
C1639  C1672   1.479   .     S
C1639  N1723   1.375   .     A
C1640  N1724   1.375   .     A
C1640  C1679   1.479   .     S
C1640  C1740   1.436   .     S
C1641  O1731   1.309   .     A
C1641  C1643   1.467   .     S
C1641  O1729   1.313   .     A
C1642  O1732   1.309   .     A
C1642  C1645   1.467   .     S
C1642  O1730   1.313   .     A
C1643  C1650   1.394   .     A
C1643  C1648   1.395   .     A
C1644  O1726   1.294   .     A
C1644  O1728   1.294   .     A
C1645  C1651   1.394   .     A
C1645  C1649   1.395   .     A
C1646  C1648   1.392   .     A
C1646  C1654   1.402   .     A
C1646  H1720   1.084   .     S
C1647  H1721   1.084   .     S
C1647  C1649   1.392   .     A
C1647  C1656   1.402   .     A
C1648  H1719   1.070   .     S
C1649  H1718   1.070   .     S
C1650  H1717   1.072   .     S
C1650  C1652   1.397   .     A
C1651  C1653   1.397   .     A
C1651  H1715   1.073   .     S
C1652  C1657   1.420   .     A
C1652  C1654   1.415   .     A
C1653  C1658   1.420   .     A
C1653  C1656   1.415   .     A
C1654  C759    1.388   1_556 S
C1655  C1677   1.389   .     A
C1655  Cl1689  1.770   .     S
C1655  C1658   1.429   .     A
C1657  C1666   1.429   .     A
C1657  C740    1.426   1_556 S
C1659  C1664   1.405   .     A
C1659  C1660   1.399   .     A
C1660  C1661   1.398   .     A
C1660  H1797   1.082   .     S
C1661  C1662   1.397   .     A
C1661  H1696   1.082   .     S
C1662  C1663   1.397   .     A
C1662  H1697   1.082   .     S
C1663  C1664   1.398   .     A
C1664  H1699   1.083   .     S
C1665  C1671   1.399   .     A
C1665  C1667   1.404   .     A
C1666  C1685   1.389   .     A
C1666  Cl1690  1.770   .     S
C1667  C1668   1.398   .     A
C1667  H1700   1.082   .     S
C1668  C1669   1.397   .     A
C1668  H1089   1.080   1_565 S
C1669  C1670   1.396   .     A
C1669  H1702   1.082   .     S
C1670  H1703   1.082   .     S
C1670  C1671   1.398   .     A
C1672  C1678   1.403   .     A
C1672  C1673   1.404   .     A
C1673  C1674   1.398   .     A
C1673  H1706   1.082   .     S
C1674  C1675   1.397   .     A
C1675  C1676   1.397   .     A
C1675  H1708   1.082   .     S
C1676  C1678   1.397   .     A
C1676  H1709   1.083   .     S
C1677  H1693   1.085   .     S
C1678  H1710   1.080   .     S
C1679  C1680   1.403   .     A
C1679  C1684   1.404   .     A
C1680  H1711   1.080   .     S
C1680  C1681   1.397   .     A
C1681  H1712   1.082   .     S
C1681  C1682   1.396   .     A
C1682  C1683   1.397   .     A
C1682  H1713   1.082   .     S
C1683  C1684   1.398   .     A
C1683  H1102   1.081   1_565 S
C1684  H1716   1.082   .     S
C1685  H1704   1.085   .     S
C1685  C738    1.388   1_556 S
C1686  H1722   1.085   .     S
C1686  C1076   1.375   1_565 S
C1687  H1694   1.085   .     S
C1688  Cl1691  1.762   .     S
H1698  C1051   1.080   1_565 S
H1705  C1773   1.082   .     S
H1707  C1062   1.081   1_565 S
N1723  Zn1733  2.051   .     S
N1724  Zn1734  2.051   .     S
O1725  Zn1733  1.972   .     S
O1726  Zn1734  1.972   .     S
O1727  Zn1734  1.971   .     S
O1728  Zn1733  1.971   .     S
O1729  Zn1733  1.954   .     S
O1730  Zn1734  1.954   .     S
O1731  Zn1734  1.888   .     S
O1732  Zn1733  1.888   .     S
C1735  O1829   1.294   .     A
C1735  O1827   1.294   .     A
C1735  C1738   1.398   .     S
C1736  Cl1794  1.762   .     S
C1736  C1738   1.396   .     A
C1736  C1177   1.375   1_565 S
C1737  C1790   1.397   .     A
C1737  C1746   1.398   .     S
C1737  C1789   1.391   .     A
C1738  C1788   1.391   .     A
C1739  C1761   1.475   .     S
C1739  N1826   1.375   .     A
C1739  C1537   1.436   1_655 S
C1740  N1825   1.375   .     A
C1740  C1767   1.475   .     S
C1741  C1774   1.479   .     S
C1741  N1825   1.375   .     A
C1742  N1826   1.375   .     A
C1742  C1781   1.479   .     S
C1742  C1536   1.436   1_655 S
C1743  O1833   1.309   .     A
C1743  C1745   1.467   .     S
C1743  O1831   1.313   .     A
C1744  O1834   1.309   .     A
C1744  C1747   1.467   .     S
C1744  O1832   1.313   .     A
C1745  C1752   1.394   .     A
C1745  C1750   1.395   .     A
C1746  O1828   1.294   .     A
C1746  O1830   1.294   .     A
C1747  C1753   1.394   .     A
C1747  C1751   1.395   .     A
C1748  C1750   1.392   .     A
C1748  C1756   1.402   .     A
C1748  H1822   1.084   .     S
C1749  H1823   1.084   .     S
C1749  C1751   1.392   .     A
C1749  C1758   1.402   .     A
C1750  H1821   1.070   .     S
C1751  H1820   1.070   .     S
C1752  H1819   1.072   .     S
C1752  C1754   1.397   .     A
C1753  C1755   1.397   .     A
C1753  H1817   1.073   .     S
C1754  C1759   1.420   .     A
C1754  C1756   1.415   .     A
C1755  C1760   1.420   .     A
C1755  C1758   1.415   .     A
C1756  C861    1.388   1_556 S
C1757  C1779   1.389   .     A
C1757  Cl1791  1.770   .     S
C1757  C1760   1.429   .     A
C1759  C1768   1.429   .     A
C1759  C842    1.426   1_556 S
C1761  C1766   1.405   .     A
C1761  C1762   1.399   .     A
C1762  C1763   1.398   .     A
C1762  H1593   1.082   1_655 S
C1763  C1764   1.397   .     A
C1763  H1798   1.082   .     S
C1764  C1765   1.397   .     A
C1764  H1799   1.082   .     S
C1765  C1766   1.398   .     A
C1766  H1801   1.083   .     S
C1767  C1773   1.399   .     A
C1767  C1769   1.404   .     A
C1768  C1787   1.389   .     A
C1768  Cl1792  1.770   .     S
C1769  C1770   1.398   .     A
C1769  H1802   1.082   .     S
C1770  C1771   1.397   .     A
C1770  H1191   1.080   1_565 S
C1771  C1772   1.396   .     A
C1771  H1804   1.082   .     S
C1772  H1805   1.082   .     S
C1772  C1773   1.398   .     A
C1774  C1780   1.403   .     A
C1774  C1775   1.404   .     A
C1775  C1776   1.398   .     A
C1775  H1808   1.082   .     S
C1776  C1777   1.397   .     A
C1777  C1778   1.397   .     A
C1777  H1810   1.082   .     S
C1778  C1780   1.397   .     A
C1778  H1811   1.083   .     S
C1779  H1795   1.085   .     S
C1780  H1812   1.080   .     S
C1781  C1782   1.403   .     A
C1781  C1786   1.404   .     A
C1782  H1813   1.080   .     S
C1782  C1783   1.397   .     A
C1783  H1814   1.082   .     S
C1783  C1784   1.396   .     A
C1784  C1785   1.397   .     A
C1784  H1815   1.082   .     S
C1785  C1786   1.398   .     A
C1785  H1204   1.081   1_565 S
C1786  H1818   1.082   .     S
C1787  H1806   1.085   .     S
C1787  C840    1.388   1_556 S
C1788  H1824   1.085   .     S
C1788  C1178   1.375   1_565 S
C1789  H1796   1.085   .     S
C1790  Cl1793  1.762   .     S
H1800  C1153   1.080   1_565 S
H1807  C1569   1.082   1_655 S
H1809  C1164   1.081   1_565 S
N1825  Zn1835  2.051   .     S
N1826  Zn1836  2.051   .     S
O1827  Zn1835  1.972   .     S
O1828  Zn1836  1.972   .     S
O1829  Zn1836  1.971   .     S
O1830  Zn1835  1.971   .     S
O1831  Zn1835  1.954   .     S
O1832  Zn1836  1.954   .     S
O1833  Zn1836  1.888   .     S
O1834  Zn1835  1.888   .     S
