data_str_m3_o2_o5_pcu_sym.35
_audit_creation_date              2020-01-03
_audit_creation_method            'Materials Studio'
_symmetry_space_group_name_H-M    'P1'
_symmetry_Int_Tables_number       1
_symmetry_cell_setting            triclinic
loop_
_symmetry_equiv_pos_as_xyz
  x,y,z
_cell_length_a                    30.0155
_cell_length_b                    28.5172
_cell_length_c                    26.6026
_cell_angle_alpha                 90.0013
_cell_angle_beta                  90.1825
_cell_angle_gamma                 90.0004
loop_
_atom_site_label
_atom_site_type_symbol
_atom_site_fract_x
_atom_site_fract_y
_atom_site_fract_z
_atom_site_U_iso_or_equiv
_atom_site_adp_type
_atom_site_occupancy
C1     C     0.16396   0.25001   0.16661   0.00000  Uiso   1.00
C2     C     0.21786   0.44726   0.13905   0.00000  Uiso   1.00
C3     C     0.24996   0.25000   0.07294   0.00000  Uiso   1.00
C4     C     0.25004   0.25000   0.26039   0.00000  Uiso   1.00
C5     C     0.24994   0.02614   0.16668   0.00000  Uiso   1.00
C6     C     0.24994   0.47293   0.16670   0.00000  Uiso   1.00
C7     C     0.24998   0.25000   0.02183   0.00000  Uiso   1.00
C8     C     0.25001   0.25000   0.31150   0.00000  Uiso   1.00
C9     C     0.04719   0.28974   0.18391   0.00000  Uiso   1.00
C10    C     0.45304   0.21081   0.18422   0.00000  Uiso   1.00
C11    C     0.45281   0.28972   0.14940   0.00000  Uiso   1.00
C12    C     0.33604   0.25001   0.16672   0.00000  Uiso   1.00
C13    C     0.04696   0.21080   0.14915   0.00000  Uiso   1.00
C14    C     0.09318   0.28977   0.18358   0.00000  Uiso   1.00
C15    C     0.40705   0.21059   0.18391   0.00000  Uiso   1.00
C16    C     0.40682   0.28976   0.14972   0.00000  Uiso   1.00
C17    C     0.09294   0.21058   0.14946   0.00000  Uiso   1.00
C18    C     0.11605   0.25011   0.16656   0.00000  Uiso   1.00
C19    C     0.38395   0.25011   0.16678   0.00000  Uiso   1.00
C20    C     0.02406   0.25029   0.16658   0.00000  Uiso   1.00
C21    C     0.47594   0.25029   0.16676   0.00000  Uiso   1.00
C22    C     0.19694   0.12443   0.06296   0.00000  Uiso   1.00
C23    C     0.24650   0.10151   0.12235   0.00000  Uiso   1.00
C24    C     0.29573   0.37825   0.27767   0.00000  Uiso   1.00
C25    C     0.30307   0.12429   0.27040   0.00000  Uiso   1.00
C26    C     0.20432   0.37835   0.05564   0.00000  Uiso   1.00
C27    C     0.29283   0.02890   0.05580   0.00000  Uiso   1.00
C28    C     0.35457   0.46967   0.19340   0.00000  Uiso   1.00
C29    C     0.20689   0.02948   0.27768   0.00000  Uiso   1.00
C30    C     0.14509   0.46887   0.13994   0.00000  Uiso   1.00
C31    C     0.27929   0.39754   0.19669   0.00000  Uiso   1.00
C32    C     0.25346   0.10152   0.21100   0.00000  Uiso   1.00
C33    C     0.22067   0.39752   0.13667   0.00000  Uiso   1.00
C34    C     0.24975   0.05181   0.12143   0.00000  Uiso   1.00
C35    C     0.28203   0.44728   0.19437   0.00000  Uiso   1.00
C36    C     0.25012   0.05182   0.21193   0.00000  Uiso   1.00
H37    H     0.02971   0.32019   0.19811   0.00000  Uiso   1.00
H38    H     0.17559   0.14114   0.09201   0.00000  Uiso   1.00
H39    H     0.18511   0.08822   0.05495   0.00000  Uiso   1.00
H40    H     0.31285   0.35111   0.30052   0.00000  Uiso   1.00
H41    H     0.25922   0.37369   0.28349   0.00000  Uiso   1.00
H42    H     0.30655   0.41297   0.29212   0.00000  Uiso   1.00
H43    H     0.30684   0.14492   0.30551   0.00000  Uiso   1.00
H44    H     0.32450   0.14090   0.24134   0.00000  Uiso   1.00
H45    H     0.31478   0.08804   0.27844   0.00000  Uiso   1.00
H46    H     0.18720   0.35127   0.03270   0.00000  Uiso   1.00
H47    H     0.24083   0.37379   0.04983   0.00000  Uiso   1.00
H48    H     0.47071   0.18043   0.19843   0.00000  Uiso   1.00
H49    H     0.19352   0.41311   0.04130   0.00000  Uiso   1.00
H50    H     0.30440   0.06522   0.04793   0.00000  Uiso   1.00
H51    H     0.31671   0.01066   0.08110   0.00000  Uiso   1.00
H52    H     0.29248   0.00961   0.01959   0.00000  Uiso   1.00
H53    H     0.36627   0.43316   0.18681   0.00000  Uiso   1.00
H54    H     0.35072   0.48855   0.15713   0.00000  Uiso   1.00
H55    H     0.38079   0.48801   0.21532   0.00000  Uiso   1.00
H56    H     0.18256   0.01230   0.25207   0.00000  Uiso   1.00
H57    H     0.19612   0.06590   0.28637   0.00000  Uiso   1.00
H58    H     0.20692   0.00952   0.31346   0.00000  Uiso   1.00
H59    H     0.47029   0.32017   0.13516   0.00000  Uiso   1.00
H60    H     0.14882   0.48630   0.17707   0.00000  Uiso   1.00
H61    H     0.13321   0.43220   0.14484   0.00000  Uiso   1.00
H62    H     0.11905   0.48816   0.11870   0.00000  Uiso   1.00
H63    H     0.02929   0.18040   0.13496   0.00000  Uiso   1.00
H64    H     0.11079   0.32042   0.19727   0.00000  Uiso   1.00
H65    H     0.38966   0.17989   0.19761   0.00000  Uiso   1.00
H66    H     0.38921   0.32039   0.13601   0.00000  Uiso   1.00
H67    H     0.11034   0.17987   0.13579   0.00000  Uiso   1.00
H68    H     0.19323   0.14505   0.02783   0.00000  Uiso   1.00
N69    N     0.25000   0.12623   0.16667   0.00000  Uiso   1.00
N70    N     0.25000   0.37376   0.16667   0.00000  Uiso   1.00
O71    O     0.18453   0.28974   0.16667   0.00000  Uiso   1.00
O72    O     0.30813   0.37227   0.22690   0.00000  Uiso   1.00
O73    O     0.25781   0.12494   0.25603   0.00000  Uiso   1.00
O74    O     0.19192   0.37222   0.10639   0.00000  Uiso   1.00
O75    O     0.24944   0.02844   0.07584   0.00000  Uiso   1.00
O76    O     0.31471   0.47070   0.22119   0.00000  Uiso   1.00
O77    O     0.25023   0.02843   0.25751   0.00000  Uiso   1.00
O78    O     0.18507   0.47070   0.11242   0.00000  Uiso   1.00
O79    O     0.31547   0.21026   0.16666   0.00000  Uiso   1.00
O80    O     0.31547   0.28974   0.16666   0.00000  Uiso   1.00
O81    O     0.18453   0.21026   0.16667   0.00000  Uiso   1.00
O82    O     0.25000   0.28973   0.09511   0.00000  Uiso   1.00
O83    O     0.25000   0.21027   0.23822   0.00000  Uiso   1.00
O84    O     0.25000   0.28973   0.23822   0.00000  Uiso   1.00
O85    O     0.25000   0.21027   0.09511   0.00000  Uiso   1.00
O86    O     0.24222   0.12491   0.07730   0.00000  Uiso   1.00
Zn87   Zn    0.25000   0.30307   0.16667   0.00000  Uiso   1.00
Zn88   Zn    0.25000   0.19693   0.16667   0.00000  Uiso   1.00
C89    C     0.66396   0.25001   0.16661   0.00000  Uiso   1.00
C90    C     0.71786   0.44726   0.13905   0.00000  Uiso   1.00
C91    C     0.74996   0.25000   0.07294   0.00000  Uiso   1.00
C92    C     0.75004   0.25000   0.26039   0.00000  Uiso   1.00
C93    C     0.74994   0.02614   0.16668   0.00000  Uiso   1.00
C94    C     0.74994   0.47293   0.16670   0.00000  Uiso   1.00
C95    C     0.74998   0.25000   0.02183   0.00000  Uiso   1.00
C96    C     0.75001   0.25000   0.31150   0.00000  Uiso   1.00
C97    C     0.54719   0.28974   0.18391   0.00000  Uiso   1.00
C98    C     0.95304   0.21081   0.18422   0.00000  Uiso   1.00
C99    C     0.95281   0.28972   0.14940   0.00000  Uiso   1.00
C100   C     0.83604   0.25001   0.16672   0.00000  Uiso   1.00
C101   C     0.54696   0.21080   0.14915   0.00000  Uiso   1.00
C102   C     0.59318   0.28977   0.18358   0.00000  Uiso   1.00
C103   C     0.90705   0.21059   0.18391   0.00000  Uiso   1.00
C104   C     0.90682   0.28976   0.14972   0.00000  Uiso   1.00
C105   C     0.59294   0.21058   0.14946   0.00000  Uiso   1.00
C106   C     0.61605   0.25011   0.16656   0.00000  Uiso   1.00
C107   C     0.88395   0.25011   0.16678   0.00000  Uiso   1.00
C108   C     0.52406   0.25029   0.16658   0.00000  Uiso   1.00
C109   C     0.97594   0.25029   0.16676   0.00000  Uiso   1.00
C110   C     0.69694   0.12443   0.06296   0.00000  Uiso   1.00
C111   C     0.74650   0.10151   0.12235   0.00000  Uiso   1.00
C112   C     0.79573   0.37825   0.27767   0.00000  Uiso   1.00
C113   C     0.80307   0.12429   0.27040   0.00000  Uiso   1.00
C114   C     0.70432   0.37835   0.05564   0.00000  Uiso   1.00
C115   C     0.79283   0.02890   0.05580   0.00000  Uiso   1.00
C116   C     0.85457   0.46967   0.19340   0.00000  Uiso   1.00
C117   C     0.70689   0.02948   0.27768   0.00000  Uiso   1.00
C118   C     0.64509   0.46887   0.13994   0.00000  Uiso   1.00
C119   C     0.77929   0.39754   0.19669   0.00000  Uiso   1.00
C120   C     0.75346   0.10152   0.21100   0.00000  Uiso   1.00
C121   C     0.72067   0.39752   0.13667   0.00000  Uiso   1.00
C122   C     0.74975   0.05181   0.12143   0.00000  Uiso   1.00
C123   C     0.78203   0.44728   0.19437   0.00000  Uiso   1.00
C124   C     0.75012   0.05182   0.21193   0.00000  Uiso   1.00
H125   H     0.52971   0.32019   0.19811   0.00000  Uiso   1.00
H126   H     0.67559   0.14114   0.09201   0.00000  Uiso   1.00
H127   H     0.68511   0.08822   0.05495   0.00000  Uiso   1.00
H128   H     0.81285   0.35111   0.30052   0.00000  Uiso   1.00
H129   H     0.75922   0.37369   0.28349   0.00000  Uiso   1.00
H130   H     0.80655   0.41297   0.29212   0.00000  Uiso   1.00
H131   H     0.80684   0.14492   0.30551   0.00000  Uiso   1.00
H132   H     0.82450   0.14090   0.24134   0.00000  Uiso   1.00
H133   H     0.81478   0.08804   0.27844   0.00000  Uiso   1.00
H134   H     0.68720   0.35127   0.03270   0.00000  Uiso   1.00
H135   H     0.74083   0.37379   0.04983   0.00000  Uiso   1.00
H136   H     0.97071   0.18043   0.19843   0.00000  Uiso   1.00
H137   H     0.69352   0.41311   0.04130   0.00000  Uiso   1.00
H138   H     0.80440   0.06522   0.04793   0.00000  Uiso   1.00
H139   H     0.81671   0.01066   0.08110   0.00000  Uiso   1.00
H140   H     0.79248   0.00961   0.01959   0.00000  Uiso   1.00
H141   H     0.86627   0.43316   0.18681   0.00000  Uiso   1.00
H142   H     0.85072   0.48855   0.15713   0.00000  Uiso   1.00
H143   H     0.88079   0.48801   0.21532   0.00000  Uiso   1.00
H144   H     0.68256   0.01230   0.25207   0.00000  Uiso   1.00
H145   H     0.69612   0.06590   0.28637   0.00000  Uiso   1.00
H146   H     0.70692   0.00952   0.31346   0.00000  Uiso   1.00
H147   H     0.97029   0.32017   0.13516   0.00000  Uiso   1.00
H148   H     0.64882   0.48630   0.17707   0.00000  Uiso   1.00
H149   H     0.63321   0.43220   0.14484   0.00000  Uiso   1.00
H150   H     0.61905   0.48816   0.11870   0.00000  Uiso   1.00
H151   H     0.52929   0.18040   0.13496   0.00000  Uiso   1.00
H152   H     0.61079   0.32042   0.19727   0.00000  Uiso   1.00
H153   H     0.88966   0.17989   0.19761   0.00000  Uiso   1.00
H154   H     0.88921   0.32039   0.13601   0.00000  Uiso   1.00
H155   H     0.61034   0.17987   0.13579   0.00000  Uiso   1.00
H156   H     0.69323   0.14505   0.02783   0.00000  Uiso   1.00
N157   N     0.75000   0.12623   0.16667   0.00000  Uiso   1.00
N158   N     0.75000   0.37376   0.16667   0.00000  Uiso   1.00
O159   O     0.68453   0.28974   0.16667   0.00000  Uiso   1.00
O160   O     0.80813   0.37227   0.22690   0.00000  Uiso   1.00
O161   O     0.75781   0.12494   0.25603   0.00000  Uiso   1.00
O162   O     0.69192   0.37222   0.10639   0.00000  Uiso   1.00
O163   O     0.74944   0.02844   0.07584   0.00000  Uiso   1.00
O164   O     0.81471   0.47070   0.22119   0.00000  Uiso   1.00
O165   O     0.75023   0.02843   0.25751   0.00000  Uiso   1.00
O166   O     0.68507   0.47070   0.11242   0.00000  Uiso   1.00
O167   O     0.81547   0.21026   0.16666   0.00000  Uiso   1.00
O168   O     0.81547   0.28974   0.16666   0.00000  Uiso   1.00
O169   O     0.68453   0.21026   0.16667   0.00000  Uiso   1.00
O170   O     0.75000   0.28973   0.09511   0.00000  Uiso   1.00
O171   O     0.75000   0.21027   0.23822   0.00000  Uiso   1.00
O172   O     0.75000   0.28973   0.23822   0.00000  Uiso   1.00
O173   O     0.75000   0.21027   0.09511   0.00000  Uiso   1.00
O174   O     0.74222   0.12491   0.07730   0.00000  Uiso   1.00
Zn175  Zn    0.75000   0.30307   0.16667   0.00000  Uiso   1.00
Zn176  Zn    0.75000   0.19693   0.16667   0.00000  Uiso   1.00
C177   C     0.16396   0.75001   0.16661   0.00000  Uiso   1.00
C178   C     0.21786   0.94726   0.13905   0.00000  Uiso   1.00
C179   C     0.24996   0.75000   0.07294   0.00000  Uiso   1.00
C180   C     0.25004   0.75000   0.26039   0.00000  Uiso   1.00
C181   C     0.24994   0.52614   0.16668   0.00000  Uiso   1.00
C182   C     0.24994   0.97293   0.16670   0.00000  Uiso   1.00
C183   C     0.24998   0.75000   0.02183   0.00000  Uiso   1.00
C184   C     0.25001   0.75000   0.31150   0.00000  Uiso   1.00
C185   C     0.04719   0.78974   0.18391   0.00000  Uiso   1.00
C186   C     0.45304   0.71081   0.18422   0.00000  Uiso   1.00
C187   C     0.45281   0.78972   0.14940   0.00000  Uiso   1.00
C188   C     0.33604   0.75001   0.16672   0.00000  Uiso   1.00
C189   C     0.04696   0.71080   0.14915   0.00000  Uiso   1.00
C190   C     0.09318   0.78977   0.18358   0.00000  Uiso   1.00
C191   C     0.40705   0.71059   0.18391   0.00000  Uiso   1.00
C192   C     0.40682   0.78976   0.14972   0.00000  Uiso   1.00
C193   C     0.09294   0.71058   0.14946   0.00000  Uiso   1.00
C194   C     0.11605   0.75011   0.16656   0.00000  Uiso   1.00
C195   C     0.38395   0.75011   0.16678   0.00000  Uiso   1.00
C196   C     0.02406   0.75029   0.16658   0.00000  Uiso   1.00
C197   C     0.47594   0.75029   0.16676   0.00000  Uiso   1.00
C198   C     0.19694   0.62443   0.06296   0.00000  Uiso   1.00
C199   C     0.24650   0.60151   0.12235   0.00000  Uiso   1.00
C200   C     0.29573   0.87825   0.27767   0.00000  Uiso   1.00
C201   C     0.30307   0.62429   0.27040   0.00000  Uiso   1.00
C202   C     0.20432   0.87835   0.05564   0.00000  Uiso   1.00
C203   C     0.29283   0.52890   0.05580   0.00000  Uiso   1.00
C204   C     0.35457   0.96967   0.19340   0.00000  Uiso   1.00
C205   C     0.20689   0.52948   0.27768   0.00000  Uiso   1.00
C206   C     0.14509   0.96887   0.13994   0.00000  Uiso   1.00
C207   C     0.27929   0.89754   0.19669   0.00000  Uiso   1.00
C208   C     0.25346   0.60152   0.21100   0.00000  Uiso   1.00
C209   C     0.22067   0.89752   0.13667   0.00000  Uiso   1.00
C210   C     0.24975   0.55181   0.12143   0.00000  Uiso   1.00
C211   C     0.28203   0.94728   0.19437   0.00000  Uiso   1.00
C212   C     0.25012   0.55182   0.21193   0.00000  Uiso   1.00
H213   H     0.02971   0.82019   0.19811   0.00000  Uiso   1.00
H214   H     0.17559   0.64114   0.09201   0.00000  Uiso   1.00
H215   H     0.18511   0.58822   0.05495   0.00000  Uiso   1.00
H216   H     0.31285   0.85111   0.30052   0.00000  Uiso   1.00
H217   H     0.25922   0.87369   0.28349   0.00000  Uiso   1.00
H218   H     0.30655   0.91297   0.29212   0.00000  Uiso   1.00
H219   H     0.30684   0.64492   0.30551   0.00000  Uiso   1.00
H220   H     0.32450   0.64090   0.24134   0.00000  Uiso   1.00
H221   H     0.31478   0.58804   0.27844   0.00000  Uiso   1.00
H222   H     0.18720   0.85127   0.03270   0.00000  Uiso   1.00
H223   H     0.24083   0.87379   0.04983   0.00000  Uiso   1.00
H224   H     0.47071   0.68043   0.19843   0.00000  Uiso   1.00
H225   H     0.19352   0.91311   0.04130   0.00000  Uiso   1.00
H226   H     0.30440   0.56522   0.04793   0.00000  Uiso   1.00
H227   H     0.31671   0.51066   0.08110   0.00000  Uiso   1.00
H228   H     0.29248   0.50961   0.01959   0.00000  Uiso   1.00
H229   H     0.36627   0.93316   0.18681   0.00000  Uiso   1.00
H230   H     0.35072   0.98855   0.15713   0.00000  Uiso   1.00
H231   H     0.38079   0.98801   0.21532   0.00000  Uiso   1.00
H232   H     0.18256   0.51230   0.25207   0.00000  Uiso   1.00
H233   H     0.19612   0.56590   0.28637   0.00000  Uiso   1.00
H234   H     0.20692   0.50952   0.31346   0.00000  Uiso   1.00
H235   H     0.47029   0.82017   0.13516   0.00000  Uiso   1.00
H236   H     0.14882   0.98630   0.17707   0.00000  Uiso   1.00
H237   H     0.13321   0.93220   0.14484   0.00000  Uiso   1.00
H238   H     0.11905   0.98816   0.11870   0.00000  Uiso   1.00
H239   H     0.02929   0.68040   0.13496   0.00000  Uiso   1.00
H240   H     0.11079   0.82042   0.19727   0.00000  Uiso   1.00
H241   H     0.38966   0.67989   0.19761   0.00000  Uiso   1.00
H242   H     0.38921   0.82039   0.13601   0.00000  Uiso   1.00
H243   H     0.11034   0.67987   0.13579   0.00000  Uiso   1.00
H244   H     0.19323   0.64505   0.02783   0.00000  Uiso   1.00
N245   N     0.25000   0.62623   0.16667   0.00000  Uiso   1.00
N246   N     0.25000   0.87376   0.16667   0.00000  Uiso   1.00
O247   O     0.18453   0.78974   0.16667   0.00000  Uiso   1.00
O248   O     0.30813   0.87227   0.22690   0.00000  Uiso   1.00
O249   O     0.25781   0.62494   0.25603   0.00000  Uiso   1.00
O250   O     0.19192   0.87222   0.10639   0.00000  Uiso   1.00
O251   O     0.24944   0.52844   0.07584   0.00000  Uiso   1.00
O252   O     0.31471   0.97070   0.22119   0.00000  Uiso   1.00
O253   O     0.25023   0.52843   0.25751   0.00000  Uiso   1.00
O254   O     0.18507   0.97070   0.11242   0.00000  Uiso   1.00
O255   O     0.31547   0.71026   0.16666   0.00000  Uiso   1.00
O256   O     0.31547   0.78974   0.16666   0.00000  Uiso   1.00
O257   O     0.18453   0.71026   0.16667   0.00000  Uiso   1.00
O258   O     0.25000   0.78973   0.09511   0.00000  Uiso   1.00
O259   O     0.25000   0.71027   0.23822   0.00000  Uiso   1.00
O260   O     0.25000   0.78973   0.23822   0.00000  Uiso   1.00
O261   O     0.25000   0.71027   0.09511   0.00000  Uiso   1.00
O262   O     0.24222   0.62491   0.07730   0.00000  Uiso   1.00
Zn263  Zn    0.25000   0.80307   0.16667   0.00000  Uiso   1.00
Zn264  Zn    0.25000   0.69693   0.16667   0.00000  Uiso   1.00
C265   C     0.66396   0.75001   0.16661   0.00000  Uiso   1.00
C266   C     0.71786   0.94726   0.13905   0.00000  Uiso   1.00
C267   C     0.74996   0.75000   0.07294   0.00000  Uiso   1.00
C268   C     0.75004   0.75000   0.26039   0.00000  Uiso   1.00
C269   C     0.74994   0.52614   0.16668   0.00000  Uiso   1.00
C270   C     0.74994   0.97293   0.16670   0.00000  Uiso   1.00
C271   C     0.74998   0.75000   0.02183   0.00000  Uiso   1.00
C272   C     0.75001   0.75000   0.31150   0.00000  Uiso   1.00
C273   C     0.54719   0.78974   0.18391   0.00000  Uiso   1.00
C274   C     0.95304   0.71081   0.18422   0.00000  Uiso   1.00
C275   C     0.95281   0.78972   0.14940   0.00000  Uiso   1.00
C276   C     0.83604   0.75001   0.16672   0.00000  Uiso   1.00
C277   C     0.54696   0.71080   0.14915   0.00000  Uiso   1.00
C278   C     0.59318   0.78977   0.18358   0.00000  Uiso   1.00
C279   C     0.90705   0.71059   0.18391   0.00000  Uiso   1.00
C280   C     0.90682   0.78976   0.14972   0.00000  Uiso   1.00
C281   C     0.59294   0.71058   0.14946   0.00000  Uiso   1.00
C282   C     0.61605   0.75011   0.16656   0.00000  Uiso   1.00
C283   C     0.88395   0.75011   0.16678   0.00000  Uiso   1.00
C284   C     0.52406   0.75029   0.16658   0.00000  Uiso   1.00
C285   C     0.97594   0.75029   0.16676   0.00000  Uiso   1.00
C286   C     0.69694   0.62443   0.06296   0.00000  Uiso   1.00
C287   C     0.74650   0.60151   0.12235   0.00000  Uiso   1.00
C288   C     0.79573   0.87825   0.27767   0.00000  Uiso   1.00
C289   C     0.80307   0.62429   0.27040   0.00000  Uiso   1.00
C290   C     0.70432   0.87835   0.05564   0.00000  Uiso   1.00
C291   C     0.79283   0.52890   0.05580   0.00000  Uiso   1.00
C292   C     0.85457   0.96967   0.19340   0.00000  Uiso   1.00
C293   C     0.70689   0.52948   0.27768   0.00000  Uiso   1.00
C294   C     0.64509   0.96887   0.13994   0.00000  Uiso   1.00
C295   C     0.77929   0.89754   0.19669   0.00000  Uiso   1.00
C296   C     0.75346   0.60152   0.21100   0.00000  Uiso   1.00
C297   C     0.72067   0.89752   0.13667   0.00000  Uiso   1.00
C298   C     0.74975   0.55181   0.12143   0.00000  Uiso   1.00
C299   C     0.78203   0.94728   0.19437   0.00000  Uiso   1.00
C300   C     0.75012   0.55182   0.21193   0.00000  Uiso   1.00
H301   H     0.52971   0.82019   0.19811   0.00000  Uiso   1.00
H302   H     0.67559   0.64114   0.09201   0.00000  Uiso   1.00
H303   H     0.68511   0.58822   0.05495   0.00000  Uiso   1.00
H304   H     0.81285   0.85111   0.30052   0.00000  Uiso   1.00
H305   H     0.75922   0.87369   0.28349   0.00000  Uiso   1.00
H306   H     0.80655   0.91297   0.29212   0.00000  Uiso   1.00
H307   H     0.80684   0.64492   0.30551   0.00000  Uiso   1.00
H308   H     0.82450   0.64090   0.24134   0.00000  Uiso   1.00
H309   H     0.81478   0.58804   0.27844   0.00000  Uiso   1.00
H310   H     0.68720   0.85127   0.03270   0.00000  Uiso   1.00
H311   H     0.74083   0.87379   0.04983   0.00000  Uiso   1.00
H312   H     0.97071   0.68043   0.19843   0.00000  Uiso   1.00
H313   H     0.69352   0.91311   0.04130   0.00000  Uiso   1.00
H314   H     0.80440   0.56522   0.04793   0.00000  Uiso   1.00
H315   H     0.81671   0.51066   0.08110   0.00000  Uiso   1.00
H316   H     0.79248   0.50961   0.01959   0.00000  Uiso   1.00
H317   H     0.86627   0.93316   0.18681   0.00000  Uiso   1.00
H318   H     0.85072   0.98855   0.15713   0.00000  Uiso   1.00
H319   H     0.88079   0.98801   0.21532   0.00000  Uiso   1.00
H320   H     0.68256   0.51230   0.25207   0.00000  Uiso   1.00
H321   H     0.69612   0.56590   0.28637   0.00000  Uiso   1.00
H322   H     0.70692   0.50952   0.31346   0.00000  Uiso   1.00
H323   H     0.97029   0.82017   0.13516   0.00000  Uiso   1.00
H324   H     0.64882   0.98630   0.17707   0.00000  Uiso   1.00
H325   H     0.63321   0.93220   0.14484   0.00000  Uiso   1.00
H326   H     0.61905   0.98816   0.11870   0.00000  Uiso   1.00
H327   H     0.52929   0.68040   0.13496   0.00000  Uiso   1.00
H328   H     0.61079   0.82042   0.19727   0.00000  Uiso   1.00
H329   H     0.88966   0.67989   0.19761   0.00000  Uiso   1.00
H330   H     0.88921   0.82039   0.13601   0.00000  Uiso   1.00
H331   H     0.61034   0.67987   0.13579   0.00000  Uiso   1.00
H332   H     0.69323   0.64505   0.02783   0.00000  Uiso   1.00
N333   N     0.75000   0.62623   0.16667   0.00000  Uiso   1.00
N334   N     0.75000   0.87376   0.16667   0.00000  Uiso   1.00
O335   O     0.68453   0.78974   0.16667   0.00000  Uiso   1.00
O336   O     0.80813   0.87227   0.22690   0.00000  Uiso   1.00
O337   O     0.75781   0.62494   0.25603   0.00000  Uiso   1.00
O338   O     0.69192   0.87222   0.10639   0.00000  Uiso   1.00
O339   O     0.74944   0.52844   0.07584   0.00000  Uiso   1.00
O340   O     0.81471   0.97070   0.22119   0.00000  Uiso   1.00
O341   O     0.75023   0.52843   0.25751   0.00000  Uiso   1.00
O342   O     0.68507   0.97070   0.11242   0.00000  Uiso   1.00
O343   O     0.81547   0.71026   0.16666   0.00000  Uiso   1.00
O344   O     0.81547   0.78974   0.16666   0.00000  Uiso   1.00
O345   O     0.68453   0.71026   0.16667   0.00000  Uiso   1.00
O346   O     0.75000   0.78973   0.09511   0.00000  Uiso   1.00
O347   O     0.75000   0.71027   0.23822   0.00000  Uiso   1.00
O348   O     0.75000   0.78973   0.23822   0.00000  Uiso   1.00
O349   O     0.75000   0.71027   0.09511   0.00000  Uiso   1.00
O350   O     0.74222   0.62491   0.07730   0.00000  Uiso   1.00
Zn351  Zn    0.75000   0.80307   0.16667   0.00000  Uiso   1.00
Zn352  Zn    0.75000   0.69693   0.16667   0.00000  Uiso   1.00
C353   C     0.16396   0.25001   0.49994   0.00000  Uiso   1.00
C354   C     0.21786   0.44726   0.47238   0.00000  Uiso   1.00
C355   C     0.24996   0.25000   0.40627   0.00000  Uiso   1.00
C356   C     0.25004   0.25000   0.59373   0.00000  Uiso   1.00
C357   C     0.24994   0.02614   0.50002   0.00000  Uiso   1.00
C358   C     0.24994   0.47293   0.50003   0.00000  Uiso   1.00
C359   C     0.24998   0.25000   0.35516   0.00000  Uiso   1.00
C360   C     0.25001   0.25000   0.64484   0.00000  Uiso   1.00
C361   C     0.04719   0.28974   0.51724   0.00000  Uiso   1.00
C362   C     0.45304   0.21081   0.51755   0.00000  Uiso   1.00
C363   C     0.45281   0.28972   0.48273   0.00000  Uiso   1.00
C364   C     0.33604   0.25001   0.50006   0.00000  Uiso   1.00
C365   C     0.04696   0.21080   0.48248   0.00000  Uiso   1.00
C366   C     0.09318   0.28977   0.51692   0.00000  Uiso   1.00
C367   C     0.40705   0.21059   0.51725   0.00000  Uiso   1.00
C368   C     0.40682   0.28976   0.48305   0.00000  Uiso   1.00
C369   C     0.09294   0.21058   0.48279   0.00000  Uiso   1.00
C370   C     0.11605   0.25011   0.49989   0.00000  Uiso   1.00
C371   C     0.38395   0.25011   0.50011   0.00000  Uiso   1.00
C372   C     0.02406   0.25029   0.49991   0.00000  Uiso   1.00
C373   C     0.47594   0.25029   0.50009   0.00000  Uiso   1.00
C374   C     0.19694   0.12443   0.39629   0.00000  Uiso   1.00
C375   C     0.24650   0.10151   0.45568   0.00000  Uiso   1.00
C376   C     0.29573   0.37825   0.61100   0.00000  Uiso   1.00
C377   C     0.30307   0.12429   0.60373   0.00000  Uiso   1.00
C378   C     0.20432   0.37835   0.38897   0.00000  Uiso   1.00
C379   C     0.29283   0.02890   0.38913   0.00000  Uiso   1.00
C380   C     0.35457   0.46967   0.52674   0.00000  Uiso   1.00
C381   C     0.20689   0.02948   0.61101   0.00000  Uiso   1.00
C382   C     0.14509   0.46887   0.47328   0.00000  Uiso   1.00
C383   C     0.27929   0.39754   0.53002   0.00000  Uiso   1.00
C384   C     0.25346   0.10152   0.54433   0.00000  Uiso   1.00
C385   C     0.22067   0.39752   0.47000   0.00000  Uiso   1.00
C386   C     0.24975   0.05181   0.45476   0.00000  Uiso   1.00
C387   C     0.28203   0.44728   0.52771   0.00000  Uiso   1.00
C388   C     0.25012   0.05182   0.54526   0.00000  Uiso   1.00
H389   H     0.02971   0.32019   0.53145   0.00000  Uiso   1.00
H390   H     0.17559   0.14114   0.42534   0.00000  Uiso   1.00
H391   H     0.18511   0.08822   0.38829   0.00000  Uiso   1.00
H392   H     0.31285   0.35111   0.63385   0.00000  Uiso   1.00
H393   H     0.25922   0.37369   0.61682   0.00000  Uiso   1.00
H394   H     0.30655   0.41297   0.62545   0.00000  Uiso   1.00
H395   H     0.30684   0.14492   0.63885   0.00000  Uiso   1.00
H396   H     0.32450   0.14090   0.57468   0.00000  Uiso   1.00
H397   H     0.31478   0.08804   0.61177   0.00000  Uiso   1.00
H398   H     0.18720   0.35127   0.36603   0.00000  Uiso   1.00
H399   H     0.24083   0.37379   0.38316   0.00000  Uiso   1.00
H400   H     0.47071   0.18043   0.53176   0.00000  Uiso   1.00
H401   H     0.19352   0.41311   0.37464   0.00000  Uiso   1.00
H402   H     0.30440   0.06522   0.38126   0.00000  Uiso   1.00
H403   H     0.31671   0.01066   0.41443   0.00000  Uiso   1.00
H404   H     0.29248   0.00961   0.35293   0.00000  Uiso   1.00
H405   H     0.36627   0.43316   0.52014   0.00000  Uiso   1.00
H406   H     0.35072   0.48855   0.49046   0.00000  Uiso   1.00
H407   H     0.38079   0.48801   0.54865   0.00000  Uiso   1.00
H408   H     0.18256   0.01230   0.58540   0.00000  Uiso   1.00
H409   H     0.19612   0.06590   0.61970   0.00000  Uiso   1.00
H410   H     0.20692   0.00952   0.64679   0.00000  Uiso   1.00
H411   H     0.47029   0.32017   0.46850   0.00000  Uiso   1.00
H412   H     0.14882   0.48630   0.51040   0.00000  Uiso   1.00
H413   H     0.13321   0.43220   0.47818   0.00000  Uiso   1.00
H414   H     0.11905   0.48816   0.45204   0.00000  Uiso   1.00
H415   H     0.02929   0.18040   0.46830   0.00000  Uiso   1.00
H416   H     0.11079   0.32042   0.53060   0.00000  Uiso   1.00
H417   H     0.38966   0.17989   0.53094   0.00000  Uiso   1.00
H418   H     0.38921   0.32039   0.46934   0.00000  Uiso   1.00
H419   H     0.11034   0.17987   0.46912   0.00000  Uiso   1.00
H420   H     0.19323   0.14505   0.36116   0.00000  Uiso   1.00
N421   N     0.25000   0.12623   0.50000   0.00000  Uiso   1.00
N422   N     0.25000   0.37376   0.50000   0.00000  Uiso   1.00
O423   O     0.18453   0.28974   0.50000   0.00000  Uiso   1.00
O424   O     0.30813   0.37227   0.56023   0.00000  Uiso   1.00
O425   O     0.25781   0.12494   0.58936   0.00000  Uiso   1.00
O426   O     0.19192   0.37222   0.43972   0.00000  Uiso   1.00
O427   O     0.24944   0.02844   0.40917   0.00000  Uiso   1.00
O428   O     0.31471   0.47070   0.55452   0.00000  Uiso   1.00
O429   O     0.25023   0.02843   0.59084   0.00000  Uiso   1.00
O430   O     0.18507   0.47070   0.44575   0.00000  Uiso   1.00
O431   O     0.31547   0.21026   0.50000   0.00000  Uiso   1.00
O432   O     0.31547   0.28974   0.50000   0.00000  Uiso   1.00
O433   O     0.18453   0.21026   0.50000   0.00000  Uiso   1.00
O434   O     0.25000   0.28973   0.42845   0.00000  Uiso   1.00
O435   O     0.25000   0.21027   0.57155   0.00000  Uiso   1.00
O436   O     0.25000   0.28973   0.57155   0.00000  Uiso   1.00
O437   O     0.25000   0.21027   0.42845   0.00000  Uiso   1.00
O438   O     0.24222   0.12491   0.41063   0.00000  Uiso   1.00
Zn439  Zn    0.25000   0.30307   0.50000   0.00000  Uiso   1.00
Zn440  Zn    0.25000   0.19693   0.50000   0.00000  Uiso   1.00
C441   C     0.66396   0.25001   0.49994   0.00000  Uiso   1.00
C442   C     0.71786   0.44726   0.47238   0.00000  Uiso   1.00
C443   C     0.74996   0.25000   0.40627   0.00000  Uiso   1.00
C444   C     0.75004   0.25000   0.59373   0.00000  Uiso   1.00
C445   C     0.74994   0.02614   0.50002   0.00000  Uiso   1.00
C446   C     0.74994   0.47293   0.50003   0.00000  Uiso   1.00
C447   C     0.74998   0.25000   0.35516   0.00000  Uiso   1.00
C448   C     0.75001   0.25000   0.64484   0.00000  Uiso   1.00
C449   C     0.54719   0.28974   0.51724   0.00000  Uiso   1.00
C450   C     0.95304   0.21081   0.51755   0.00000  Uiso   1.00
C451   C     0.95281   0.28972   0.48273   0.00000  Uiso   1.00
C452   C     0.83604   0.25001   0.50006   0.00000  Uiso   1.00
C453   C     0.54696   0.21080   0.48248   0.00000  Uiso   1.00
C454   C     0.59318   0.28977   0.51692   0.00000  Uiso   1.00
C455   C     0.90705   0.21059   0.51725   0.00000  Uiso   1.00
C456   C     0.90682   0.28976   0.48305   0.00000  Uiso   1.00
C457   C     0.59294   0.21058   0.48279   0.00000  Uiso   1.00
C458   C     0.61605   0.25011   0.49989   0.00000  Uiso   1.00
C459   C     0.88395   0.25011   0.50011   0.00000  Uiso   1.00
C460   C     0.52406   0.25029   0.49991   0.00000  Uiso   1.00
C461   C     0.97594   0.25029   0.50009   0.00000  Uiso   1.00
C462   C     0.69694   0.12443   0.39629   0.00000  Uiso   1.00
C463   C     0.74650   0.10151   0.45568   0.00000  Uiso   1.00
C464   C     0.79573   0.37825   0.61100   0.00000  Uiso   1.00
C465   C     0.80307   0.12429   0.60373   0.00000  Uiso   1.00
C466   C     0.70432   0.37835   0.38897   0.00000  Uiso   1.00
C467   C     0.79283   0.02890   0.38913   0.00000  Uiso   1.00
C468   C     0.85457   0.46967   0.52674   0.00000  Uiso   1.00
C469   C     0.70689   0.02948   0.61101   0.00000  Uiso   1.00
C470   C     0.64509   0.46887   0.47328   0.00000  Uiso   1.00
C471   C     0.77929   0.39754   0.53002   0.00000  Uiso   1.00
C472   C     0.75346   0.10152   0.54433   0.00000  Uiso   1.00
C473   C     0.72067   0.39752   0.47000   0.00000  Uiso   1.00
C474   C     0.74975   0.05181   0.45476   0.00000  Uiso   1.00
C475   C     0.78203   0.44728   0.52771   0.00000  Uiso   1.00
C476   C     0.75012   0.05182   0.54526   0.00000  Uiso   1.00
H477   H     0.52971   0.32019   0.53145   0.00000  Uiso   1.00
H478   H     0.67559   0.14114   0.42534   0.00000  Uiso   1.00
H479   H     0.68511   0.08822   0.38829   0.00000  Uiso   1.00
H480   H     0.81285   0.35111   0.63385   0.00000  Uiso   1.00
H481   H     0.75922   0.37369   0.61682   0.00000  Uiso   1.00
H482   H     0.80655   0.41297   0.62545   0.00000  Uiso   1.00
H483   H     0.80684   0.14492   0.63885   0.00000  Uiso   1.00
H484   H     0.82450   0.14090   0.57468   0.00000  Uiso   1.00
H485   H     0.81478   0.08804   0.61177   0.00000  Uiso   1.00
H486   H     0.68720   0.35127   0.36603   0.00000  Uiso   1.00
H487   H     0.74083   0.37379   0.38316   0.00000  Uiso   1.00
H488   H     0.97071   0.18043   0.53176   0.00000  Uiso   1.00
H489   H     0.69352   0.41311   0.37464   0.00000  Uiso   1.00
H490   H     0.80440   0.06522   0.38126   0.00000  Uiso   1.00
H491   H     0.81671   0.01066   0.41443   0.00000  Uiso   1.00
H492   H     0.79248   0.00961   0.35293   0.00000  Uiso   1.00
H493   H     0.86627   0.43316   0.52014   0.00000  Uiso   1.00
H494   H     0.85072   0.48855   0.49046   0.00000  Uiso   1.00
H495   H     0.88079   0.48801   0.54865   0.00000  Uiso   1.00
H496   H     0.68256   0.01230   0.58540   0.00000  Uiso   1.00
H497   H     0.69612   0.06590   0.61970   0.00000  Uiso   1.00
H498   H     0.70692   0.00952   0.64679   0.00000  Uiso   1.00
H499   H     0.97029   0.32017   0.46850   0.00000  Uiso   1.00
H500   H     0.64882   0.48630   0.51040   0.00000  Uiso   1.00
H501   H     0.63321   0.43220   0.47818   0.00000  Uiso   1.00
H502   H     0.61905   0.48816   0.45204   0.00000  Uiso   1.00
H503   H     0.52929   0.18040   0.46830   0.00000  Uiso   1.00
H504   H     0.61079   0.32042   0.53060   0.00000  Uiso   1.00
H505   H     0.88966   0.17989   0.53094   0.00000  Uiso   1.00
H506   H     0.88921   0.32039   0.46934   0.00000  Uiso   1.00
H507   H     0.61034   0.17987   0.46912   0.00000  Uiso   1.00
H508   H     0.69323   0.14505   0.36116   0.00000  Uiso   1.00
N509   N     0.75000   0.12623   0.50000   0.00000  Uiso   1.00
N510   N     0.75000   0.37376   0.50000   0.00000  Uiso   1.00
O511   O     0.68453   0.28974   0.50000   0.00000  Uiso   1.00
O512   O     0.80813   0.37227   0.56023   0.00000  Uiso   1.00
O513   O     0.75781   0.12494   0.58936   0.00000  Uiso   1.00
O514   O     0.69192   0.37222   0.43972   0.00000  Uiso   1.00
O515   O     0.74944   0.02844   0.40917   0.00000  Uiso   1.00
O516   O     0.81471   0.47070   0.55452   0.00000  Uiso   1.00
O517   O     0.75023   0.02843   0.59084   0.00000  Uiso   1.00
O518   O     0.68507   0.47070   0.44575   0.00000  Uiso   1.00
O519   O     0.81547   0.21026   0.50000   0.00000  Uiso   1.00
O520   O     0.81547   0.28974   0.50000   0.00000  Uiso   1.00
O521   O     0.68453   0.21026   0.50000   0.00000  Uiso   1.00
O522   O     0.75000   0.28973   0.42845   0.00000  Uiso   1.00
O523   O     0.75000   0.21027   0.57155   0.00000  Uiso   1.00
O524   O     0.75000   0.28973   0.57155   0.00000  Uiso   1.00
O525   O     0.75000   0.21027   0.42845   0.00000  Uiso   1.00
O526   O     0.74222   0.12491   0.41063   0.00000  Uiso   1.00
Zn527  Zn    0.75000   0.30307   0.50000   0.00000  Uiso   1.00
Zn528  Zn    0.75000   0.19693   0.50000   0.00000  Uiso   1.00
C529   C     0.16396   0.75001   0.49994   0.00000  Uiso   1.00
C530   C     0.21786   0.94726   0.47238   0.00000  Uiso   1.00
C531   C     0.24996   0.75000   0.40627   0.00000  Uiso   1.00
C532   C     0.25004   0.75000   0.59373   0.00000  Uiso   1.00
C533   C     0.24994   0.52614   0.50002   0.00000  Uiso   1.00
C534   C     0.24994   0.97293   0.50003   0.00000  Uiso   1.00
C535   C     0.24998   0.75000   0.35516   0.00000  Uiso   1.00
C536   C     0.25001   0.75000   0.64484   0.00000  Uiso   1.00
C537   C     0.04719   0.78974   0.51724   0.00000  Uiso   1.00
C538   C     0.45304   0.71081   0.51755   0.00000  Uiso   1.00
C539   C     0.45281   0.78972   0.48273   0.00000  Uiso   1.00
C540   C     0.33604   0.75001   0.50006   0.00000  Uiso   1.00
C541   C     0.04696   0.71080   0.48248   0.00000  Uiso   1.00
C542   C     0.09318   0.78977   0.51692   0.00000  Uiso   1.00
C543   C     0.40705   0.71059   0.51725   0.00000  Uiso   1.00
C544   C     0.40682   0.78976   0.48305   0.00000  Uiso   1.00
C545   C     0.09294   0.71058   0.48279   0.00000  Uiso   1.00
C546   C     0.11605   0.75011   0.49989   0.00000  Uiso   1.00
C547   C     0.38395   0.75011   0.50011   0.00000  Uiso   1.00
C548   C     0.02406   0.75029   0.49991   0.00000  Uiso   1.00
C549   C     0.47594   0.75029   0.50009   0.00000  Uiso   1.00
C550   C     0.19694   0.62443   0.39629   0.00000  Uiso   1.00
C551   C     0.24650   0.60151   0.45568   0.00000  Uiso   1.00
C552   C     0.29573   0.87825   0.61100   0.00000  Uiso   1.00
C553   C     0.30307   0.62429   0.60373   0.00000  Uiso   1.00
C554   C     0.20432   0.87835   0.38897   0.00000  Uiso   1.00
C555   C     0.29283   0.52890   0.38913   0.00000  Uiso   1.00
C556   C     0.35457   0.96967   0.52674   0.00000  Uiso   1.00
C557   C     0.20689   0.52948   0.61101   0.00000  Uiso   1.00
C558   C     0.14509   0.96887   0.47328   0.00000  Uiso   1.00
C559   C     0.27929   0.89754   0.53002   0.00000  Uiso   1.00
C560   C     0.25346   0.60152   0.54433   0.00000  Uiso   1.00
C561   C     0.22067   0.89752   0.47000   0.00000  Uiso   1.00
C562   C     0.24975   0.55181   0.45476   0.00000  Uiso   1.00
C563   C     0.28203   0.94728   0.52771   0.00000  Uiso   1.00
C564   C     0.25012   0.55182   0.54526   0.00000  Uiso   1.00
H565   H     0.02971   0.82019   0.53145   0.00000  Uiso   1.00
H566   H     0.17559   0.64114   0.42534   0.00000  Uiso   1.00
H567   H     0.18511   0.58822   0.38829   0.00000  Uiso   1.00
H568   H     0.31285   0.85111   0.63385   0.00000  Uiso   1.00
H569   H     0.25922   0.87369   0.61682   0.00000  Uiso   1.00
H570   H     0.30655   0.91297   0.62545   0.00000  Uiso   1.00
H571   H     0.30684   0.64492   0.63885   0.00000  Uiso   1.00
H572   H     0.32450   0.64090   0.57468   0.00000  Uiso   1.00
H573   H     0.31478   0.58804   0.61177   0.00000  Uiso   1.00
H574   H     0.18720   0.85127   0.36603   0.00000  Uiso   1.00
H575   H     0.24083   0.87379   0.38316   0.00000  Uiso   1.00
H576   H     0.47071   0.68043   0.53176   0.00000  Uiso   1.00
H577   H     0.19352   0.91311   0.37464   0.00000  Uiso   1.00
H578   H     0.30440   0.56522   0.38126   0.00000  Uiso   1.00
H579   H     0.31671   0.51066   0.41443   0.00000  Uiso   1.00
H580   H     0.29248   0.50961   0.35293   0.00000  Uiso   1.00
H581   H     0.36627   0.93316   0.52014   0.00000  Uiso   1.00
H582   H     0.35072   0.98855   0.49046   0.00000  Uiso   1.00
H583   H     0.38079   0.98801   0.54865   0.00000  Uiso   1.00
H584   H     0.18256   0.51230   0.58540   0.00000  Uiso   1.00
H585   H     0.19612   0.56590   0.61970   0.00000  Uiso   1.00
H586   H     0.20692   0.50952   0.64679   0.00000  Uiso   1.00
H587   H     0.47029   0.82017   0.46850   0.00000  Uiso   1.00
H588   H     0.14882   0.98630   0.51040   0.00000  Uiso   1.00
H589   H     0.13321   0.93220   0.47818   0.00000  Uiso   1.00
H590   H     0.11905   0.98816   0.45204   0.00000  Uiso   1.00
H591   H     0.02929   0.68040   0.46830   0.00000  Uiso   1.00
H592   H     0.11079   0.82042   0.53060   0.00000  Uiso   1.00
H593   H     0.38966   0.67989   0.53094   0.00000  Uiso   1.00
H594   H     0.38921   0.82039   0.46934   0.00000  Uiso   1.00
H595   H     0.11034   0.67987   0.46912   0.00000  Uiso   1.00
H596   H     0.19323   0.64505   0.36116   0.00000  Uiso   1.00
N597   N     0.25000   0.62623   0.50000   0.00000  Uiso   1.00
N598   N     0.25000   0.87376   0.50000   0.00000  Uiso   1.00
O599   O     0.18453   0.78974   0.50000   0.00000  Uiso   1.00
O600   O     0.30813   0.87227   0.56023   0.00000  Uiso   1.00
O601   O     0.25781   0.62494   0.58936   0.00000  Uiso   1.00
O602   O     0.19192   0.87222   0.43972   0.00000  Uiso   1.00
O603   O     0.24944   0.52844   0.40917   0.00000  Uiso   1.00
O604   O     0.31471   0.97070   0.55452   0.00000  Uiso   1.00
O605   O     0.25023   0.52843   0.59084   0.00000  Uiso   1.00
O606   O     0.18507   0.97070   0.44575   0.00000  Uiso   1.00
O607   O     0.31547   0.71026   0.50000   0.00000  Uiso   1.00
O608   O     0.31547   0.78974   0.50000   0.00000  Uiso   1.00
O609   O     0.18453   0.71026   0.50000   0.00000  Uiso   1.00
O610   O     0.25000   0.78973   0.42845   0.00000  Uiso   1.00
O611   O     0.25000   0.71027   0.57155   0.00000  Uiso   1.00
O612   O     0.25000   0.78973   0.57155   0.00000  Uiso   1.00
O613   O     0.25000   0.71027   0.42845   0.00000  Uiso   1.00
O614   O     0.24222   0.62491   0.41063   0.00000  Uiso   1.00
Zn615  Zn    0.25000   0.80307   0.50000   0.00000  Uiso   1.00
Zn616  Zn    0.25000   0.69693   0.50000   0.00000  Uiso   1.00
C617   C     0.66396   0.75001   0.49994   0.00000  Uiso   1.00
C618   C     0.71786   0.94726   0.47238   0.00000  Uiso   1.00
C619   C     0.74996   0.75000   0.40627   0.00000  Uiso   1.00
C620   C     0.75004   0.75000   0.59373   0.00000  Uiso   1.00
C621   C     0.74994   0.52614   0.50002   0.00000  Uiso   1.00
C622   C     0.74994   0.97293   0.50003   0.00000  Uiso   1.00
C623   C     0.74998   0.75000   0.35516   0.00000  Uiso   1.00
C624   C     0.75001   0.75000   0.64484   0.00000  Uiso   1.00
C625   C     0.54719   0.78974   0.51724   0.00000  Uiso   1.00
C626   C     0.95304   0.71081   0.51755   0.00000  Uiso   1.00
C627   C     0.95281   0.78972   0.48273   0.00000  Uiso   1.00
C628   C     0.83604   0.75001   0.50006   0.00000  Uiso   1.00
C629   C     0.54696   0.71080   0.48248   0.00000  Uiso   1.00
C630   C     0.59318   0.78977   0.51692   0.00000  Uiso   1.00
C631   C     0.90705   0.71059   0.51725   0.00000  Uiso   1.00
C632   C     0.90682   0.78976   0.48305   0.00000  Uiso   1.00
C633   C     0.59294   0.71058   0.48279   0.00000  Uiso   1.00
C634   C     0.61605   0.75011   0.49989   0.00000  Uiso   1.00
C635   C     0.88395   0.75011   0.50011   0.00000  Uiso   1.00
C636   C     0.52406   0.75029   0.49991   0.00000  Uiso   1.00
C637   C     0.97594   0.75029   0.50009   0.00000  Uiso   1.00
C638   C     0.69694   0.62443   0.39629   0.00000  Uiso   1.00
C639   C     0.74650   0.60151   0.45568   0.00000  Uiso   1.00
C640   C     0.79573   0.87825   0.61100   0.00000  Uiso   1.00
C641   C     0.80307   0.62429   0.60373   0.00000  Uiso   1.00
C642   C     0.70432   0.87835   0.38897   0.00000  Uiso   1.00
C643   C     0.79283   0.52890   0.38913   0.00000  Uiso   1.00
C644   C     0.85457   0.96967   0.52674   0.00000  Uiso   1.00
C645   C     0.70689   0.52948   0.61101   0.00000  Uiso   1.00
C646   C     0.64509   0.96887   0.47328   0.00000  Uiso   1.00
C647   C     0.77929   0.89754   0.53002   0.00000  Uiso   1.00
C648   C     0.75346   0.60152   0.54433   0.00000  Uiso   1.00
C649   C     0.72067   0.89752   0.47000   0.00000  Uiso   1.00
C650   C     0.74975   0.55181   0.45476   0.00000  Uiso   1.00
C651   C     0.78203   0.94728   0.52771   0.00000  Uiso   1.00
C652   C     0.75012   0.55182   0.54526   0.00000  Uiso   1.00
H653   H     0.52971   0.82019   0.53145   0.00000  Uiso   1.00
H654   H     0.67559   0.64114   0.42534   0.00000  Uiso   1.00
H655   H     0.68511   0.58822   0.38829   0.00000  Uiso   1.00
H656   H     0.81285   0.85111   0.63385   0.00000  Uiso   1.00
H657   H     0.75922   0.87369   0.61682   0.00000  Uiso   1.00
H658   H     0.80655   0.91297   0.62545   0.00000  Uiso   1.00
H659   H     0.80684   0.64492   0.63885   0.00000  Uiso   1.00
H660   H     0.82450   0.64090   0.57468   0.00000  Uiso   1.00
H661   H     0.81478   0.58804   0.61177   0.00000  Uiso   1.00
H662   H     0.68720   0.85127   0.36603   0.00000  Uiso   1.00
H663   H     0.74083   0.87379   0.38316   0.00000  Uiso   1.00
H664   H     0.97071   0.68043   0.53176   0.00000  Uiso   1.00
H665   H     0.69352   0.91311   0.37464   0.00000  Uiso   1.00
H666   H     0.80440   0.56522   0.38126   0.00000  Uiso   1.00
H667   H     0.81671   0.51066   0.41443   0.00000  Uiso   1.00
H668   H     0.79248   0.50961   0.35293   0.00000  Uiso   1.00
H669   H     0.86627   0.93316   0.52014   0.00000  Uiso   1.00
H670   H     0.85072   0.98855   0.49046   0.00000  Uiso   1.00
H671   H     0.88079   0.98801   0.54865   0.00000  Uiso   1.00
H672   H     0.68256   0.51230   0.58540   0.00000  Uiso   1.00
H673   H     0.69612   0.56590   0.61970   0.00000  Uiso   1.00
H674   H     0.70692   0.50952   0.64679   0.00000  Uiso   1.00
H675   H     0.97029   0.82017   0.46850   0.00000  Uiso   1.00
H676   H     0.64882   0.98630   0.51040   0.00000  Uiso   1.00
H677   H     0.63321   0.93220   0.47818   0.00000  Uiso   1.00
H678   H     0.61905   0.98816   0.45204   0.00000  Uiso   1.00
H679   H     0.52929   0.68040   0.46830   0.00000  Uiso   1.00
H680   H     0.61079   0.82042   0.53060   0.00000  Uiso   1.00
H681   H     0.88966   0.67989   0.53094   0.00000  Uiso   1.00
H682   H     0.88921   0.82039   0.46934   0.00000  Uiso   1.00
H683   H     0.61034   0.67987   0.46912   0.00000  Uiso   1.00
H684   H     0.69323   0.64505   0.36116   0.00000  Uiso   1.00
N685   N     0.75000   0.62623   0.50000   0.00000  Uiso   1.00
N686   N     0.75000   0.87376   0.50000   0.00000  Uiso   1.00
O687   O     0.68453   0.78974   0.50000   0.00000  Uiso   1.00
O688   O     0.80813   0.87227   0.56023   0.00000  Uiso   1.00
O689   O     0.75781   0.62494   0.58936   0.00000  Uiso   1.00
O690   O     0.69192   0.87222   0.43972   0.00000  Uiso   1.00
O691   O     0.74944   0.52844   0.40917   0.00000  Uiso   1.00
O692   O     0.81471   0.97070   0.55452   0.00000  Uiso   1.00
O693   O     0.75023   0.52843   0.59084   0.00000  Uiso   1.00
O694   O     0.68507   0.97070   0.44575   0.00000  Uiso   1.00
O695   O     0.81547   0.71026   0.50000   0.00000  Uiso   1.00
O696   O     0.81547   0.78974   0.50000   0.00000  Uiso   1.00
O697   O     0.68453   0.71026   0.50000   0.00000  Uiso   1.00
O698   O     0.75000   0.78973   0.42845   0.00000  Uiso   1.00
O699   O     0.75000   0.71027   0.57155   0.00000  Uiso   1.00
O700   O     0.75000   0.78973   0.57155   0.00000  Uiso   1.00
O701   O     0.75000   0.71027   0.42845   0.00000  Uiso   1.00
O702   O     0.74222   0.62491   0.41063   0.00000  Uiso   1.00
Zn703  Zn    0.75000   0.80307   0.50000   0.00000  Uiso   1.00
Zn704  Zn    0.75000   0.69693   0.50000   0.00000  Uiso   1.00
C705   C     0.16396   0.25001   0.83328   0.00000  Uiso   1.00
C706   C     0.21786   0.44726   0.80572   0.00000  Uiso   1.00
C707   C     0.24996   0.25000   0.73961   0.00000  Uiso   1.00
C708   C     0.25004   0.25000   0.92706   0.00000  Uiso   1.00
C709   C     0.24994   0.02614   0.83335   0.00000  Uiso   1.00
C710   C     0.24994   0.47293   0.83337   0.00000  Uiso   1.00
C711   C     0.24998   0.25000   0.68850   0.00000  Uiso   1.00
C712   C     0.25001   0.25000   0.97817   0.00000  Uiso   1.00
C713   C     0.04719   0.28974   0.85057   0.00000  Uiso   1.00
C714   C     0.45304   0.21081   0.85089   0.00000  Uiso   1.00
C715   C     0.45281   0.28972   0.81606   0.00000  Uiso   1.00
C716   C     0.33604   0.25001   0.83339   0.00000  Uiso   1.00
C717   C     0.04696   0.21080   0.81581   0.00000  Uiso   1.00
C718   C     0.09318   0.28977   0.85025   0.00000  Uiso   1.00
C719   C     0.40705   0.21059   0.85058   0.00000  Uiso   1.00
C720   C     0.40682   0.28976   0.81638   0.00000  Uiso   1.00
C721   C     0.09294   0.21058   0.81612   0.00000  Uiso   1.00
C722   C     0.11605   0.25011   0.83322   0.00000  Uiso   1.00
C723   C     0.38395   0.25011   0.83345   0.00000  Uiso   1.00
C724   C     0.02406   0.25029   0.83325   0.00000  Uiso   1.00
C725   C     0.47594   0.25029   0.83342   0.00000  Uiso   1.00
C726   C     0.19694   0.12443   0.72962   0.00000  Uiso   1.00
C727   C     0.24650   0.10151   0.78901   0.00000  Uiso   1.00
C728   C     0.29573   0.37825   0.94434   0.00000  Uiso   1.00
C729   C     0.30307   0.12429   0.93706   0.00000  Uiso   1.00
C730   C     0.20432   0.37835   0.72231   0.00000  Uiso   1.00
C731   C     0.29283   0.02890   0.72247   0.00000  Uiso   1.00
C732   C     0.35457   0.46967   0.86007   0.00000  Uiso   1.00
C733   C     0.20689   0.02948   0.94434   0.00000  Uiso   1.00
C734   C     0.14509   0.46887   0.80661   0.00000  Uiso   1.00
C735   C     0.27929   0.39754   0.86336   0.00000  Uiso   1.00
C736   C     0.25346   0.10152   0.87766   0.00000  Uiso   1.00
C737   C     0.22067   0.39752   0.80333   0.00000  Uiso   1.00
C738   C     0.24975   0.05181   0.78809   0.00000  Uiso   1.00
C739   C     0.28203   0.44728   0.86104   0.00000  Uiso   1.00
C740   C     0.25012   0.05182   0.87860   0.00000  Uiso   1.00
H741   H     0.02971   0.32019   0.86478   0.00000  Uiso   1.00
H742   H     0.17559   0.14114   0.75867   0.00000  Uiso   1.00
H743   H     0.18511   0.08822   0.72162   0.00000  Uiso   1.00
H744   H     0.31285   0.35111   0.96719   0.00000  Uiso   1.00
H745   H     0.25922   0.37369   0.95016   0.00000  Uiso   1.00
H746   H     0.30655   0.41297   0.95878   0.00000  Uiso   1.00
H747   H     0.30684   0.14492   0.97218   0.00000  Uiso   1.00
H748   H     0.32450   0.14090   0.90801   0.00000  Uiso   1.00
H749   H     0.31478   0.08804   0.94510   0.00000  Uiso   1.00
H750   H     0.18720   0.35127   0.69936   0.00000  Uiso   1.00
H751   H     0.24083   0.37379   0.71649   0.00000  Uiso   1.00
H752   H     0.47071   0.18043   0.86510   0.00000  Uiso   1.00
H753   H     0.19352   0.41311   0.70797   0.00000  Uiso   1.00
H754   H     0.30440   0.06522   0.71460   0.00000  Uiso   1.00
H755   H     0.31671   0.01066   0.74776   0.00000  Uiso   1.00
H756   H     0.29248   0.00961   0.68626   0.00000  Uiso   1.00
H757   H     0.36627   0.43316   0.85347   0.00000  Uiso   1.00
H758   H     0.35072   0.48855   0.82379   0.00000  Uiso   1.00
H759   H     0.38079   0.48801   0.88199   0.00000  Uiso   1.00
H760   H     0.18256   0.01230   0.91874   0.00000  Uiso   1.00
H761   H     0.19612   0.06590   0.95304   0.00000  Uiso   1.00
H762   H     0.20692   0.00952   0.98012   0.00000  Uiso   1.00
H763   H     0.47029   0.32017   0.80183   0.00000  Uiso   1.00
H764   H     0.14882   0.48630   0.84374   0.00000  Uiso   1.00
H765   H     0.13321   0.43220   0.81151   0.00000  Uiso   1.00
H766   H     0.11905   0.48816   0.78537   0.00000  Uiso   1.00
H767   H     0.02929   0.18040   0.80163   0.00000  Uiso   1.00
H768   H     0.11079   0.32042   0.86393   0.00000  Uiso   1.00
H769   H     0.38966   0.17989   0.86427   0.00000  Uiso   1.00
H770   H     0.38921   0.32039   0.80267   0.00000  Uiso   1.00
H771   H     0.11034   0.17987   0.80245   0.00000  Uiso   1.00
H772   H     0.19323   0.14505   0.69449   0.00000  Uiso   1.00
N773   N     0.25000   0.12623   0.83333   0.00000  Uiso   1.00
N774   N     0.25000   0.37376   0.83333   0.00000  Uiso   1.00
O775   O     0.18453   0.28974   0.83334   0.00000  Uiso   1.00
O776   O     0.30813   0.37227   0.89356   0.00000  Uiso   1.00
O777   O     0.25781   0.12494   0.92269   0.00000  Uiso   1.00
O778   O     0.19192   0.37222   0.77306   0.00000  Uiso   1.00
O779   O     0.24944   0.02844   0.74250   0.00000  Uiso   1.00
O780   O     0.31471   0.47070   0.88786   0.00000  Uiso   1.00
O781   O     0.25023   0.02843   0.92418   0.00000  Uiso   1.00
O782   O     0.18507   0.47070   0.77909   0.00000  Uiso   1.00
O783   O     0.31547   0.21026   0.83333   0.00000  Uiso   1.00
O784   O     0.31547   0.28974   0.83333   0.00000  Uiso   1.00
O785   O     0.18453   0.21026   0.83334   0.00000  Uiso   1.00
O786   O     0.25000   0.28973   0.76178   0.00000  Uiso   1.00
O787   O     0.25000   0.21027   0.90489   0.00000  Uiso   1.00
O788   O     0.25000   0.28973   0.90489   0.00000  Uiso   1.00
O789   O     0.25000   0.21027   0.76178   0.00000  Uiso   1.00
O790   O     0.24222   0.12491   0.74397   0.00000  Uiso   1.00
Zn791  Zn    0.25000   0.30307   0.83333   0.00000  Uiso   1.00
Zn792  Zn    0.25000   0.19693   0.83333   0.00000  Uiso   1.00
C793   C     0.66396   0.25001   0.83328   0.00000  Uiso   1.00
C794   C     0.71786   0.44726   0.80572   0.00000  Uiso   1.00
C795   C     0.74996   0.25000   0.73961   0.00000  Uiso   1.00
C796   C     0.75004   0.25000   0.92706   0.00000  Uiso   1.00
C797   C     0.74994   0.02614   0.83335   0.00000  Uiso   1.00
C798   C     0.74994   0.47293   0.83337   0.00000  Uiso   1.00
C799   C     0.74998   0.25000   0.68850   0.00000  Uiso   1.00
C800   C     0.75001   0.25000   0.97817   0.00000  Uiso   1.00
C801   C     0.54719   0.28974   0.85057   0.00000  Uiso   1.00
C802   C     0.95304   0.21081   0.85089   0.00000  Uiso   1.00
C803   C     0.95281   0.28972   0.81606   0.00000  Uiso   1.00
C804   C     0.83604   0.25001   0.83339   0.00000  Uiso   1.00
C805   C     0.54696   0.21080   0.81581   0.00000  Uiso   1.00
C806   C     0.59318   0.28977   0.85025   0.00000  Uiso   1.00
C807   C     0.90705   0.21059   0.85058   0.00000  Uiso   1.00
C808   C     0.90682   0.28976   0.81638   0.00000  Uiso   1.00
C809   C     0.59294   0.21058   0.81612   0.00000  Uiso   1.00
C810   C     0.61605   0.25011   0.83322   0.00000  Uiso   1.00
C811   C     0.88395   0.25011   0.83345   0.00000  Uiso   1.00
C812   C     0.52406   0.25029   0.83325   0.00000  Uiso   1.00
C813   C     0.97594   0.25029   0.83342   0.00000  Uiso   1.00
C814   C     0.69694   0.12443   0.72962   0.00000  Uiso   1.00
C815   C     0.74650   0.10151   0.78901   0.00000  Uiso   1.00
C816   C     0.79573   0.37825   0.94434   0.00000  Uiso   1.00
C817   C     0.80307   0.12429   0.93706   0.00000  Uiso   1.00
C818   C     0.70432   0.37835   0.72231   0.00000  Uiso   1.00
C819   C     0.79283   0.02890   0.72247   0.00000  Uiso   1.00
C820   C     0.85457   0.46967   0.86007   0.00000  Uiso   1.00
C821   C     0.70689   0.02948   0.94434   0.00000  Uiso   1.00
C822   C     0.64509   0.46887   0.80661   0.00000  Uiso   1.00
C823   C     0.77929   0.39754   0.86336   0.00000  Uiso   1.00
C824   C     0.75346   0.10152   0.87766   0.00000  Uiso   1.00
C825   C     0.72067   0.39752   0.80333   0.00000  Uiso   1.00
C826   C     0.74975   0.05181   0.78809   0.00000  Uiso   1.00
C827   C     0.78203   0.44728   0.86104   0.00000  Uiso   1.00
C828   C     0.75012   0.05182   0.87860   0.00000  Uiso   1.00
H829   H     0.52971   0.32019   0.86478   0.00000  Uiso   1.00
H830   H     0.67559   0.14114   0.75867   0.00000  Uiso   1.00
H831   H     0.68511   0.08822   0.72162   0.00000  Uiso   1.00
H832   H     0.81285   0.35111   0.96719   0.00000  Uiso   1.00
H833   H     0.75922   0.37369   0.95016   0.00000  Uiso   1.00
H834   H     0.80655   0.41297   0.95878   0.00000  Uiso   1.00
H835   H     0.80684   0.14492   0.97218   0.00000  Uiso   1.00
H836   H     0.82450   0.14090   0.90801   0.00000  Uiso   1.00
H837   H     0.81478   0.08804   0.94510   0.00000  Uiso   1.00
H838   H     0.68720   0.35127   0.69936   0.00000  Uiso   1.00
H839   H     0.74083   0.37379   0.71649   0.00000  Uiso   1.00
H840   H     0.97071   0.18043   0.86510   0.00000  Uiso   1.00
H841   H     0.69352   0.41311   0.70797   0.00000  Uiso   1.00
H842   H     0.80440   0.06522   0.71460   0.00000  Uiso   1.00
H843   H     0.81671   0.01066   0.74776   0.00000  Uiso   1.00
H844   H     0.79248   0.00961   0.68626   0.00000  Uiso   1.00
H845   H     0.86627   0.43316   0.85347   0.00000  Uiso   1.00
H846   H     0.85072   0.48855   0.82379   0.00000  Uiso   1.00
H847   H     0.88079   0.48801   0.88199   0.00000  Uiso   1.00
H848   H     0.68256   0.01230   0.91874   0.00000  Uiso   1.00
H849   H     0.69612   0.06590   0.95304   0.00000  Uiso   1.00
H850   H     0.70692   0.00952   0.98012   0.00000  Uiso   1.00
H851   H     0.97029   0.32017   0.80183   0.00000  Uiso   1.00
H852   H     0.64882   0.48630   0.84374   0.00000  Uiso   1.00
H853   H     0.63321   0.43220   0.81151   0.00000  Uiso   1.00
H854   H     0.61905   0.48816   0.78537   0.00000  Uiso   1.00
H855   H     0.52929   0.18040   0.80163   0.00000  Uiso   1.00
H856   H     0.61079   0.32042   0.86393   0.00000  Uiso   1.00
H857   H     0.88966   0.17989   0.86427   0.00000  Uiso   1.00
H858   H     0.88921   0.32039   0.80267   0.00000  Uiso   1.00
H859   H     0.61034   0.17987   0.80245   0.00000  Uiso   1.00
H860   H     0.69323   0.14505   0.69449   0.00000  Uiso   1.00
N861   N     0.75000   0.12623   0.83333   0.00000  Uiso   1.00
N862   N     0.75000   0.37376   0.83333   0.00000  Uiso   1.00
O863   O     0.68453   0.28974   0.83334   0.00000  Uiso   1.00
O864   O     0.80813   0.37227   0.89356   0.00000  Uiso   1.00
O865   O     0.75781   0.12494   0.92269   0.00000  Uiso   1.00
O866   O     0.69192   0.37222   0.77306   0.00000  Uiso   1.00
O867   O     0.74944   0.02844   0.74250   0.00000  Uiso   1.00
O868   O     0.81471   0.47070   0.88786   0.00000  Uiso   1.00
O869   O     0.75023   0.02843   0.92418   0.00000  Uiso   1.00
O870   O     0.68507   0.47070   0.77909   0.00000  Uiso   1.00
O871   O     0.81547   0.21026   0.83333   0.00000  Uiso   1.00
O872   O     0.81547   0.28974   0.83333   0.00000  Uiso   1.00
O873   O     0.68453   0.21026   0.83334   0.00000  Uiso   1.00
O874   O     0.75000   0.28973   0.76178   0.00000  Uiso   1.00
O875   O     0.75000   0.21027   0.90489   0.00000  Uiso   1.00
O876   O     0.75000   0.28973   0.90489   0.00000  Uiso   1.00
O877   O     0.75000   0.21027   0.76178   0.00000  Uiso   1.00
O878   O     0.74222   0.12491   0.74397   0.00000  Uiso   1.00
Zn879  Zn    0.75000   0.30307   0.83333   0.00000  Uiso   1.00
Zn880  Zn    0.75000   0.19693   0.83333   0.00000  Uiso   1.00
C881   C     0.16396   0.75001   0.83328   0.00000  Uiso   1.00
C882   C     0.21786   0.94726   0.80572   0.00000  Uiso   1.00
C883   C     0.24996   0.75000   0.73961   0.00000  Uiso   1.00
C884   C     0.25004   0.75000   0.92706   0.00000  Uiso   1.00
C885   C     0.24994   0.52614   0.83335   0.00000  Uiso   1.00
C886   C     0.24994   0.97293   0.83337   0.00000  Uiso   1.00
C887   C     0.24998   0.75000   0.68850   0.00000  Uiso   1.00
C888   C     0.25001   0.75000   0.97817   0.00000  Uiso   1.00
C889   C     0.04719   0.78974   0.85057   0.00000  Uiso   1.00
C890   C     0.45304   0.71081   0.85089   0.00000  Uiso   1.00
C891   C     0.45281   0.78972   0.81606   0.00000  Uiso   1.00
C892   C     0.33604   0.75001   0.83339   0.00000  Uiso   1.00
C893   C     0.04696   0.71080   0.81581   0.00000  Uiso   1.00
C894   C     0.09318   0.78977   0.85025   0.00000  Uiso   1.00
C895   C     0.40705   0.71059   0.85058   0.00000  Uiso   1.00
C896   C     0.40682   0.78976   0.81638   0.00000  Uiso   1.00
C897   C     0.09294   0.71058   0.81612   0.00000  Uiso   1.00
C898   C     0.11605   0.75011   0.83322   0.00000  Uiso   1.00
C899   C     0.38395   0.75011   0.83345   0.00000  Uiso   1.00
C900   C     0.02406   0.75029   0.83325   0.00000  Uiso   1.00
C901   C     0.47594   0.75029   0.83342   0.00000  Uiso   1.00
C902   C     0.19694   0.62443   0.72962   0.00000  Uiso   1.00
C903   C     0.24650   0.60151   0.78901   0.00000  Uiso   1.00
C904   C     0.29573   0.87825   0.94434   0.00000  Uiso   1.00
C905   C     0.30307   0.62429   0.93706   0.00000  Uiso   1.00
C906   C     0.20432   0.87835   0.72231   0.00000  Uiso   1.00
C907   C     0.29283   0.52890   0.72247   0.00000  Uiso   1.00
C908   C     0.35457   0.96967   0.86007   0.00000  Uiso   1.00
C909   C     0.20689   0.52948   0.94434   0.00000  Uiso   1.00
C910   C     0.14509   0.96887   0.80661   0.00000  Uiso   1.00
C911   C     0.27929   0.89754   0.86336   0.00000  Uiso   1.00
C912   C     0.25346   0.60152   0.87766   0.00000  Uiso   1.00
C913   C     0.22067   0.89752   0.80333   0.00000  Uiso   1.00
C914   C     0.24975   0.55181   0.78809   0.00000  Uiso   1.00
C915   C     0.28203   0.94728   0.86104   0.00000  Uiso   1.00
C916   C     0.25012   0.55182   0.87860   0.00000  Uiso   1.00
H917   H     0.02971   0.82019   0.86478   0.00000  Uiso   1.00
H918   H     0.17559   0.64114   0.75867   0.00000  Uiso   1.00
H919   H     0.18511   0.58822   0.72162   0.00000  Uiso   1.00
H920   H     0.31285   0.85111   0.96719   0.00000  Uiso   1.00
H921   H     0.25922   0.87369   0.95016   0.00000  Uiso   1.00
H922   H     0.30655   0.91297   0.95878   0.00000  Uiso   1.00
H923   H     0.30684   0.64492   0.97218   0.00000  Uiso   1.00
H924   H     0.32450   0.64090   0.90801   0.00000  Uiso   1.00
H925   H     0.31478   0.58804   0.94510   0.00000  Uiso   1.00
H926   H     0.18720   0.85127   0.69936   0.00000  Uiso   1.00
H927   H     0.24083   0.87379   0.71649   0.00000  Uiso   1.00
H928   H     0.47071   0.68043   0.86510   0.00000  Uiso   1.00
H929   H     0.19352   0.91311   0.70797   0.00000  Uiso   1.00
H930   H     0.30440   0.56522   0.71460   0.00000  Uiso   1.00
H931   H     0.31671   0.51066   0.74776   0.00000  Uiso   1.00
H932   H     0.29248   0.50961   0.68626   0.00000  Uiso   1.00
H933   H     0.36627   0.93316   0.85347   0.00000  Uiso   1.00
H934   H     0.35072   0.98855   0.82379   0.00000  Uiso   1.00
H935   H     0.38079   0.98801   0.88199   0.00000  Uiso   1.00
H936   H     0.18256   0.51230   0.91874   0.00000  Uiso   1.00
H937   H     0.19612   0.56590   0.95304   0.00000  Uiso   1.00
H938   H     0.20692   0.50952   0.98012   0.00000  Uiso   1.00
H939   H     0.47029   0.82017   0.80183   0.00000  Uiso   1.00
H940   H     0.14882   0.98630   0.84374   0.00000  Uiso   1.00
H941   H     0.13321   0.93220   0.81151   0.00000  Uiso   1.00
H942   H     0.11905   0.98816   0.78537   0.00000  Uiso   1.00
H943   H     0.02929   0.68040   0.80163   0.00000  Uiso   1.00
H944   H     0.11079   0.82042   0.86393   0.00000  Uiso   1.00
H945   H     0.38966   0.67989   0.86427   0.00000  Uiso   1.00
H946   H     0.38921   0.82039   0.80267   0.00000  Uiso   1.00
H947   H     0.11034   0.67987   0.80245   0.00000  Uiso   1.00
H948   H     0.19323   0.64505   0.69449   0.00000  Uiso   1.00
N949   N     0.25000   0.62623   0.83333   0.00000  Uiso   1.00
N950   N     0.25000   0.87376   0.83333   0.00000  Uiso   1.00
O951   O     0.18453   0.78974   0.83334   0.00000  Uiso   1.00
O952   O     0.30813   0.87227   0.89356   0.00000  Uiso   1.00
O953   O     0.25781   0.62494   0.92269   0.00000  Uiso   1.00
O954   O     0.19192   0.87222   0.77306   0.00000  Uiso   1.00
O955   O     0.24944   0.52844   0.74250   0.00000  Uiso   1.00
O956   O     0.31471   0.97070   0.88786   0.00000  Uiso   1.00
O957   O     0.25023   0.52843   0.92418   0.00000  Uiso   1.00
O958   O     0.18507   0.97070   0.77909   0.00000  Uiso   1.00
O959   O     0.31547   0.71026   0.83333   0.00000  Uiso   1.00
O960   O     0.31547   0.78974   0.83333   0.00000  Uiso   1.00
O961   O     0.18453   0.71026   0.83334   0.00000  Uiso   1.00
O962   O     0.25000   0.78973   0.76178   0.00000  Uiso   1.00
O963   O     0.25000   0.71027   0.90489   0.00000  Uiso   1.00
O964   O     0.25000   0.78973   0.90489   0.00000  Uiso   1.00
O965   O     0.25000   0.71027   0.76178   0.00000  Uiso   1.00
O966   O     0.24222   0.62491   0.74397   0.00000  Uiso   1.00
Zn967  Zn    0.25000   0.80307   0.83333   0.00000  Uiso   1.00
Zn968  Zn    0.25000   0.69693   0.83333   0.00000  Uiso   1.00
C969   C     0.66396   0.75001   0.83328   0.00000  Uiso   1.00
C970   C     0.71786   0.94726   0.80572   0.00000  Uiso   1.00
C971   C     0.74996   0.75000   0.73961   0.00000  Uiso   1.00
C972   C     0.75004   0.75000   0.92706   0.00000  Uiso   1.00
C973   C     0.74994   0.52614   0.83335   0.00000  Uiso   1.00
C974   C     0.74994   0.97293   0.83337   0.00000  Uiso   1.00
C975   C     0.74998   0.75000   0.68850   0.00000  Uiso   1.00
C976   C     0.75001   0.75000   0.97817   0.00000  Uiso   1.00
C977   C     0.54719   0.78974   0.85057   0.00000  Uiso   1.00
C978   C     0.95304   0.71081   0.85089   0.00000  Uiso   1.00
C979   C     0.95281   0.78972   0.81606   0.00000  Uiso   1.00
C980   C     0.83604   0.75001   0.83339   0.00000  Uiso   1.00
C981   C     0.54696   0.71080   0.81581   0.00000  Uiso   1.00
C982   C     0.59318   0.78977   0.85025   0.00000  Uiso   1.00
C983   C     0.90705   0.71059   0.85058   0.00000  Uiso   1.00
C984   C     0.90682   0.78976   0.81638   0.00000  Uiso   1.00
C985   C     0.59294   0.71058   0.81612   0.00000  Uiso   1.00
C986   C     0.61605   0.75011   0.83322   0.00000  Uiso   1.00
C987   C     0.88395   0.75011   0.83345   0.00000  Uiso   1.00
C988   C     0.52406   0.75029   0.83325   0.00000  Uiso   1.00
C989   C     0.97594   0.75029   0.83342   0.00000  Uiso   1.00
C990   C     0.69694   0.62443   0.72962   0.00000  Uiso   1.00
C991   C     0.74650   0.60151   0.78901   0.00000  Uiso   1.00
C992   C     0.79573   0.87825   0.94434   0.00000  Uiso   1.00
C993   C     0.80307   0.62429   0.93706   0.00000  Uiso   1.00
C994   C     0.70432   0.87835   0.72231   0.00000  Uiso   1.00
C995   C     0.79283   0.52890   0.72247   0.00000  Uiso   1.00
C996   C     0.85457   0.96967   0.86007   0.00000  Uiso   1.00
C997   C     0.70689   0.52948   0.94434   0.00000  Uiso   1.00
C998   C     0.64509   0.96887   0.80661   0.00000  Uiso   1.00
C999   C     0.77929   0.89754   0.86336   0.00000  Uiso   1.00
C1000  C     0.75346   0.60152   0.87766   0.00000  Uiso   1.00
C1001  C     0.72067   0.89752   0.80333   0.00000  Uiso   1.00
C1002  C     0.74975   0.55181   0.78809   0.00000  Uiso   1.00
C1003  C     0.78203   0.94728   0.86104   0.00000  Uiso   1.00
C1004  C     0.75012   0.55182   0.87860   0.00000  Uiso   1.00
H1005  H     0.52971   0.82019   0.86478   0.00000  Uiso   1.00
H1006  H     0.67559   0.64114   0.75867   0.00000  Uiso   1.00
H1007  H     0.68511   0.58822   0.72162   0.00000  Uiso   1.00
H1008  H     0.81285   0.85111   0.96719   0.00000  Uiso   1.00
H1009  H     0.75922   0.87369   0.95016   0.00000  Uiso   1.00
H1010  H     0.80655   0.91297   0.95878   0.00000  Uiso   1.00
H1011  H     0.80684   0.64492   0.97218   0.00000  Uiso   1.00
H1012  H     0.82450   0.64090   0.90801   0.00000  Uiso   1.00
H1013  H     0.81478   0.58804   0.94510   0.00000  Uiso   1.00
H1014  H     0.68720   0.85127   0.69936   0.00000  Uiso   1.00
H1015  H     0.74083   0.87379   0.71649   0.00000  Uiso   1.00
H1016  H     0.97071   0.68043   0.86510   0.00000  Uiso   1.00
H1017  H     0.69352   0.91311   0.70797   0.00000  Uiso   1.00
H1018  H     0.80440   0.56522   0.71460   0.00000  Uiso   1.00
H1019  H     0.81671   0.51066   0.74776   0.00000  Uiso   1.00
H1020  H     0.79248   0.50961   0.68626   0.00000  Uiso   1.00
H1021  H     0.86627   0.93316   0.85347   0.00000  Uiso   1.00
H1022  H     0.85072   0.98855   0.82379   0.00000  Uiso   1.00
H1023  H     0.88079   0.98801   0.88199   0.00000  Uiso   1.00
H1024  H     0.68256   0.51230   0.91874   0.00000  Uiso   1.00
H1025  H     0.69612   0.56590   0.95304   0.00000  Uiso   1.00
H1026  H     0.70692   0.50952   0.98012   0.00000  Uiso   1.00
H1027  H     0.97029   0.82017   0.80183   0.00000  Uiso   1.00
H1028  H     0.64882   0.98630   0.84374   0.00000  Uiso   1.00
H1029  H     0.63321   0.93220   0.81151   0.00000  Uiso   1.00
H1030  H     0.61905   0.98816   0.78537   0.00000  Uiso   1.00
H1031  H     0.52929   0.68040   0.80163   0.00000  Uiso   1.00
H1032  H     0.61079   0.82042   0.86393   0.00000  Uiso   1.00
H1033  H     0.88966   0.67989   0.86427   0.00000  Uiso   1.00
H1034  H     0.88921   0.82039   0.80267   0.00000  Uiso   1.00
H1035  H     0.61034   0.67987   0.80245   0.00000  Uiso   1.00
H1036  H     0.69323   0.64505   0.69449   0.00000  Uiso   1.00
N1037  N     0.75000   0.62623   0.83333   0.00000  Uiso   1.00
N1038  N     0.75000   0.87376   0.83333   0.00000  Uiso   1.00
O1039  O     0.68453   0.78974   0.83334   0.00000  Uiso   1.00
O1040  O     0.80813   0.87227   0.89356   0.00000  Uiso   1.00
O1041  O     0.75781   0.62494   0.92269   0.00000  Uiso   1.00
O1042  O     0.69192   0.87222   0.77306   0.00000  Uiso   1.00
O1043  O     0.74944   0.52844   0.74250   0.00000  Uiso   1.00
O1044  O     0.81471   0.97070   0.88786   0.00000  Uiso   1.00
O1045  O     0.75023   0.52843   0.92418   0.00000  Uiso   1.00
O1046  O     0.68507   0.97070   0.77909   0.00000  Uiso   1.00
O1047  O     0.81547   0.71026   0.83333   0.00000  Uiso   1.00
O1048  O     0.81547   0.78974   0.83333   0.00000  Uiso   1.00
O1049  O     0.68453   0.71026   0.83334   0.00000  Uiso   1.00
O1050  O     0.75000   0.78973   0.76178   0.00000  Uiso   1.00
O1051  O     0.75000   0.71027   0.90489   0.00000  Uiso   1.00
O1052  O     0.75000   0.78973   0.90489   0.00000  Uiso   1.00
O1053  O     0.75000   0.71027   0.76178   0.00000  Uiso   1.00
O1054  O     0.74222   0.62491   0.74397   0.00000  Uiso   1.00
Zn1055 Zn    0.75000   0.80307   0.83333   0.00000  Uiso   1.00
Zn1056 Zn    0.75000   0.69693   0.83333   0.00000  Uiso   1.00
loop_
_geom_bond_atom_site_label_1
_geom_bond_atom_site_label_2
_geom_bond_distance
_geom_bond_site_symmetry_2
_ccdc_geom_bond_type
C1     C18     1.438   .     S
C1     O71     1.290   .     A
C1     O81     1.291   .     A
C2     C6      1.414   .     A
C2     O78     1.383   .     S
C2     C33     1.422   .     A
C3     O85     1.277   .     A
C3     C7      1.360   .     S
C3     O82     1.277   .     A
C4     C8      1.360   .     S
C4     O84     1.277   .     A
C4     O83     1.277   .     A
C5     C36     1.409   .     A
C5     C34     1.409   .     A
C5     C182    1.517   1_545 S
C6     C35     1.414   .     A
C6     C181    1.517   .     S
C7     C712    1.162   1_554 S
C8     C359    1.162   .     S
C9     C14     1.380   .     A
C9     C20     1.399   .     A
C9     H37     1.083   .     S
C10    C21     1.399   .     A
C10    H48     1.083   .     S
C10    C15     1.380   .     A
C11    H59     1.083   .     S
C11    C21     1.399   .     A
C11    C16     1.380   .     A
C12    O79     1.291   .     A
C12    O80     1.290   .     A
C12    C19     1.438   .     S
C13    H63     1.083   .     S
C13    C20     1.399   .     A
C13    C17     1.380   .     A
C14    C18     1.399   .     A
C14    H64     1.084   .     S
C15    C19     1.399   .     A
C15    H65     1.083   .     S
C16    H66     1.084   .     S
C16    C19     1.399   .     A
C17    H67     1.083   .     S
C17    C18     1.399   .     A
C20    C109    1.445   1_455 S
C21    C108    1.445   .     S
C22    H68     1.110   .     S
C22    H39     1.112   .     S
C22    O86     1.410   .     S
C22    H38     1.113   .     S
C23    N69     1.377   .     A
C23    O86     1.377   .     S
C23    C34     1.421   .     A
C24    H42     1.110   .     S
C24    H40     1.109   .     S
C24    H41     1.115   .     S
C24    O72     1.412   .     S
C25    H43     1.110   .     S
C25    H44     1.113   .     S
C25    H45     1.112   .     S
C25    O73     1.410   .     S
C26    H49     1.110   .     S
C26    H47     1.115   .     S
C26    O74     1.412   .     S
C26    H46     1.109   .     S
C27    H50     1.112   .     S
C27    O75     1.409   .     S
C27    H51     1.111   .     S
C27    H52     1.109   .     S
C28    H55     1.109   .     S
C28    H54     1.111   .     S
C28    O76     1.409   .     S
C28    H53     1.113   .     S
C29    H58     1.109   .     S
C29    H57     1.112   .     S
C29    H56     1.111   .     S
C29    O77     1.409   .     S
C30    H60     1.111   .     S
C30    H62     1.109   .     S
C30    O78     1.409   .     S
C30    H61     1.113   .     S
C31    N70     1.366   .     A
C31    O72     1.382   .     S
C31    C35     1.422   .     A
C32    C36     1.421   .     A
C32    O73     1.377   .     S
C32    N69     1.377   .     A
C33    N70     1.366   .     A
C33    O74     1.382   .     S
C34    O75     1.384   .     S
C35    O76     1.383   .     S
C36    O77     1.384   .     S
N69    Zn88    2.016   .     S
N70    Zn87    2.016   .     S
O71    Zn87    2.002   .     S
O79    Zn88    2.002   .     S
O80    Zn87    2.002   .     S
O81    Zn88    2.002   .     S
O82    Zn87    1.941   .     S
O83    Zn88    1.941   .     S
O84    Zn87    1.941   .     S
O85    Zn88    1.941   .     S
C89    C106    1.438   .     S
C89    O159    1.290   .     A
C89    O169    1.291   .     A
C90    C94     1.414   .     A
C90    O166    1.383   .     S
C90    C121    1.422   .     A
C91    O173    1.277   .     A
C91    C95     1.360   .     S
C91    O170    1.277   .     A
C92    C96     1.360   .     S
C92    O172    1.277   .     A
C92    O171    1.277   .     A
C93    C124    1.409   .     A
C93    C122    1.409   .     A
C93    C270    1.517   1_545 S
C94    C123    1.414   .     A
C94    C269    1.517   .     S
C95    C800    1.162   1_554 S
C96    C447    1.162   .     S
C97    C102    1.380   .     A
C97    C108    1.399   .     A
C97    H125    1.083   .     S
C98    C109    1.399   .     A
C98    H136    1.083   .     S
C98    C103    1.380   .     A
C99    H147    1.083   .     S
C99    C109    1.399   .     A
C99    C104    1.380   .     A
C100   O167    1.291   .     A
C100   O168    1.290   .     A
C100   C107    1.438   .     S
C101   H151    1.083   .     S
C101   C108    1.399   .     A
C101   C105    1.380   .     A
C102   C106    1.399   .     A
C102   H152    1.084   .     S
C103   C107    1.399   .     A
C103   H153    1.083   .     S
C104   H154    1.084   .     S
C104   C107    1.399   .     A
C105   H155    1.083   .     S
C105   C106    1.399   .     A
C109   C20     1.445   1_655 S
C110   H156    1.110   .     S
C110   H127    1.112   .     S
C110   O174    1.410   .     S
C110   H126    1.113   .     S
C111   N157    1.377   .     A
C111   O174    1.377   .     S
C111   C122    1.421   .     A
C112   H130    1.110   .     S
C112   H128    1.109   .     S
C112   H129    1.115   .     S
C112   O160    1.412   .     S
C113   H131    1.110   .     S
C113   H132    1.113   .     S
C113   H133    1.112   .     S
C113   O161    1.410   .     S
C114   H137    1.110   .     S
C114   H135    1.115   .     S
C114   O162    1.412   .     S
C114   H134    1.109   .     S
C115   H138    1.112   .     S
C115   O163    1.409   .     S
C115   H139    1.111   .     S
C115   H140    1.109   .     S
C116   H143    1.109   .     S
C116   H142    1.111   .     S
C116   O164    1.409   .     S
C116   H141    1.113   .     S
C117   H146    1.109   .     S
C117   H145    1.112   .     S
C117   H144    1.111   .     S
C117   O165    1.409   .     S
C118   H148    1.111   .     S
C118   H150    1.109   .     S
C118   O166    1.409   .     S
C118   H149    1.113   .     S
C119   N158    1.366   .     A
C119   O160    1.382   .     S
C119   C123    1.422   .     A
C120   C124    1.421   .     A
C120   O161    1.377   .     S
C120   N157    1.377   .     A
C121   N158    1.366   .     A
C121   O162    1.382   .     S
C122   O163    1.384   .     S
C123   O164    1.383   .     S
C124   O165    1.384   .     S
N157   Zn176   2.016   .     S
N158   Zn175   2.016   .     S
O159   Zn175   2.002   .     S
O167   Zn176   2.002   .     S
O168   Zn175   2.002   .     S
O169   Zn176   2.002   .     S
O170   Zn175   1.941   .     S
O171   Zn176   1.941   .     S
O172   Zn175   1.941   .     S
O173   Zn176   1.941   .     S
C177   C194    1.438   .     S
C177   O247    1.290   .     A
C177   O257    1.291   .     A
C178   C182    1.414   .     A
C178   O254    1.383   .     S
C178   C209    1.422   .     A
C179   O261    1.277   .     A
C179   C183    1.360   .     S
C179   O258    1.277   .     A
C180   C184    1.360   .     S
C180   O260    1.277   .     A
C180   O259    1.277   .     A
C181   C212    1.409   .     A
C181   C210    1.409   .     A
C182   C211    1.414   .     A
C182   C5      1.517   1_565 S
C183   C888    1.162   1_554 S
C184   C535    1.162   .     S
C185   C190    1.380   .     A
C185   C196    1.399   .     A
C185   H213    1.083   .     S
C186   C197    1.399   .     A
C186   H224    1.083   .     S
C186   C191    1.380   .     A
C187   H235    1.083   .     S
C187   C197    1.399   .     A
C187   C192    1.380   .     A
C188   O255    1.291   .     A
C188   O256    1.290   .     A
C188   C195    1.438   .     S
C189   H239    1.083   .     S
C189   C196    1.399   .     A
C189   C193    1.380   .     A
C190   C194    1.399   .     A
C190   H240    1.084   .     S
C191   C195    1.399   .     A
C191   H241    1.083   .     S
C192   H242    1.084   .     S
C192   C195    1.399   .     A
C193   H243    1.083   .     S
C193   C194    1.399   .     A
C196   C285    1.445   1_455 S
C197   C284    1.445   .     S
C198   H244    1.110   .     S
C198   H215    1.112   .     S
C198   O262    1.410   .     S
C198   H214    1.113   .     S
C199   N245    1.377   .     A
C199   O262    1.377   .     S
C199   C210    1.421   .     A
C200   H218    1.110   .     S
C200   H216    1.109   .     S
C200   H217    1.115   .     S
C200   O248    1.412   .     S
C201   H219    1.110   .     S
C201   H220    1.113   .     S
C201   H221    1.112   .     S
C201   O249    1.410   .     S
C202   H225    1.110   .     S
C202   H223    1.115   .     S
C202   O250    1.412   .     S
C202   H222    1.109   .     S
C203   H226    1.112   .     S
C203   O251    1.409   .     S
C203   H227    1.111   .     S
C203   H228    1.109   .     S
C204   H231    1.109   .     S
C204   H230    1.111   .     S
C204   O252    1.409   .     S
C204   H229    1.113   .     S
C205   H234    1.109   .     S
C205   H233    1.112   .     S
C205   H232    1.111   .     S
C205   O253    1.409   .     S
C206   H236    1.111   .     S
C206   H238    1.109   .     S
C206   O254    1.409   .     S
C206   H237    1.113   .     S
C207   N246    1.366   .     A
C207   O248    1.382   .     S
C207   C211    1.422   .     A
C208   C212    1.421   .     A
C208   O249    1.377   .     S
C208   N245    1.377   .     A
C209   N246    1.366   .     A
C209   O250    1.382   .     S
C210   O251    1.384   .     S
C211   O252    1.383   .     S
C212   O253    1.384   .     S
N245   Zn264   2.016   .     S
N246   Zn263   2.016   .     S
O247   Zn263   2.002   .     S
O255   Zn264   2.002   .     S
O256   Zn263   2.002   .     S
O257   Zn264   2.002   .     S
O258   Zn263   1.941   .     S
O259   Zn264   1.941   .     S
O260   Zn263   1.941   .     S
O261   Zn264   1.941   .     S
C265   C282    1.438   .     S
C265   O335    1.290   .     A
C265   O345    1.291   .     A
C266   C270    1.414   .     A
C266   O342    1.383   .     S
C266   C297    1.422   .     A
C267   O349    1.277   .     A
C267   C271    1.360   .     S
C267   O346    1.277   .     A
C268   C272    1.360   .     S
C268   O348    1.277   .     A
C268   O347    1.277   .     A
C269   C300    1.409   .     A
C269   C298    1.409   .     A
C270   C299    1.414   .     A
C270   C93     1.517   1_565 S
C271   C976    1.162   1_554 S
C272   C623    1.162   .     S
C273   C278    1.380   .     A
C273   C284    1.399   .     A
C273   H301    1.083   .     S
C274   C285    1.399   .     A
C274   H312    1.083   .     S
C274   C279    1.380   .     A
C275   H323    1.083   .     S
C275   C285    1.399   .     A
C275   C280    1.380   .     A
C276   O343    1.291   .     A
C276   O344    1.290   .     A
C276   C283    1.438   .     S
C277   H327    1.083   .     S
C277   C284    1.399   .     A
C277   C281    1.380   .     A
C278   C282    1.399   .     A
C278   H328    1.084   .     S
C279   C283    1.399   .     A
C279   H329    1.083   .     S
C280   H330    1.084   .     S
C280   C283    1.399   .     A
C281   H331    1.083   .     S
C281   C282    1.399   .     A
C285   C196    1.445   1_655 S
C286   H332    1.110   .     S
C286   H303    1.112   .     S
C286   O350    1.410   .     S
C286   H302    1.113   .     S
C287   N333    1.377   .     A
C287   O350    1.377   .     S
C287   C298    1.421   .     A
C288   H306    1.110   .     S
C288   H304    1.109   .     S
C288   H305    1.115   .     S
C288   O336    1.412   .     S
C289   H307    1.110   .     S
C289   H308    1.113   .     S
C289   H309    1.112   .     S
C289   O337    1.410   .     S
C290   H313    1.110   .     S
C290   H311    1.115   .     S
C290   O338    1.412   .     S
C290   H310    1.109   .     S
C291   H314    1.112   .     S
C291   O339    1.409   .     S
C291   H315    1.111   .     S
C291   H316    1.109   .     S
C292   H319    1.109   .     S
C292   H318    1.111   .     S
C292   O340    1.409   .     S
C292   H317    1.113   .     S
C293   H322    1.109   .     S
C293   H321    1.112   .     S
C293   H320    1.111   .     S
C293   O341    1.409   .     S
C294   H324    1.111   .     S
C294   H326    1.109   .     S
C294   O342    1.409   .     S
C294   H325    1.113   .     S
C295   N334    1.366   .     A
C295   O336    1.382   .     S
C295   C299    1.422   .     A
C296   C300    1.421   .     A
C296   O337    1.377   .     S
C296   N333    1.377   .     A
C297   N334    1.366   .     A
C297   O338    1.382   .     S
C298   O339    1.384   .     S
C299   O340    1.383   .     S
C300   O341    1.384   .     S
N333   Zn352   2.016   .     S
N334   Zn351   2.016   .     S
O335   Zn351   2.002   .     S
O343   Zn352   2.002   .     S
O344   Zn351   2.002   .     S
O345   Zn352   2.002   .     S
O346   Zn351   1.941   .     S
O347   Zn352   1.941   .     S
O348   Zn351   1.941   .     S
O349   Zn352   1.941   .     S
C353   C370    1.438   .     S
C353   O423    1.290   .     A
C353   O433    1.291   .     A
C354   C358    1.414   .     A
C354   O430    1.383   .     S
C354   C385    1.422   .     A
C355   O437    1.277   .     A
C355   C359    1.360   .     S
C355   O434    1.277   .     A
C356   C360    1.360   .     S
C356   O436    1.277   .     A
C356   O435    1.277   .     A
C357   C388    1.409   .     A
C357   C386    1.409   .     A
C357   C534    1.517   1_545 S
C358   C387    1.414   .     A
C358   C533    1.517   .     S
C360   C711    1.162   .     S
C361   C366    1.380   .     A
C361   C372    1.399   .     A
C361   H389    1.083   .     S
C362   C373    1.399   .     A
C362   H400    1.083   .     S
C362   C367    1.380   .     A
C363   H411    1.083   .     S
C363   C373    1.399   .     A
C363   C368    1.380   .     A
C364   O431    1.291   .     A
C364   O432    1.290   .     A
C364   C371    1.438   .     S
C365   H415    1.083   .     S
C365   C372    1.399   .     A
C365   C369    1.380   .     A
C366   C370    1.399   .     A
C366   H416    1.084   .     S
C367   C371    1.399   .     A
C367   H417    1.083   .     S
C368   H418    1.084   .     S
C368   C371    1.399   .     A
C369   H419    1.083   .     S
C369   C370    1.399   .     A
C372   C461    1.445   1_455 S
C373   C460    1.445   .     S
C374   H420    1.110   .     S
C374   H391    1.112   .     S
C374   O438    1.410   .     S
C374   H390    1.113   .     S
C375   N421    1.377   .     A
C375   O438    1.377   .     S
C375   C386    1.421   .     A
C376   H394    1.110   .     S
C376   H392    1.109   .     S
C376   H393    1.115   .     S
C376   O424    1.412   .     S
C377   H395    1.110   .     S
C377   H396    1.113   .     S
C377   H397    1.112   .     S
C377   O425    1.410   .     S
C378   H401    1.110   .     S
C378   H399    1.115   .     S
C378   O426    1.412   .     S
C378   H398    1.109   .     S
C379   H402    1.112   .     S
C379   O427    1.409   .     S
C379   H403    1.111   .     S
C379   H404    1.109   .     S
C380   H407    1.109   .     S
C380   H406    1.111   .     S
C380   O428    1.409   .     S
C380   H405    1.113   .     S
C381   H410    1.109   .     S
C381   H409    1.112   .     S
C381   H408    1.111   .     S
C381   O429    1.409   .     S
C382   H412    1.111   .     S
C382   H414    1.109   .     S
C382   O430    1.409   .     S
C382   H413    1.113   .     S
C383   N422    1.366   .     A
C383   O424    1.382   .     S
C383   C387    1.422   .     A
C384   C388    1.421   .     A
C384   O425    1.377   .     S
C384   N421    1.377   .     A
C385   N422    1.366   .     A
C385   O426    1.382   .     S
C386   O427    1.384   .     S
C387   O428    1.383   .     S
C388   O429    1.384   .     S
N421   Zn440   2.016   .     S
N422   Zn439   2.016   .     S
O423   Zn439   2.002   .     S
O431   Zn440   2.002   .     S
O432   Zn439   2.002   .     S
O433   Zn440   2.002   .     S
O434   Zn439   1.941   .     S
O435   Zn440   1.941   .     S
O436   Zn439   1.941   .     S
O437   Zn440   1.941   .     S
C441   C458    1.438   .     S
C441   O511    1.290   .     A
C441   O521    1.291   .     A
C442   C446    1.414   .     A
C442   O518    1.383   .     S
C442   C473    1.422   .     A
C443   O525    1.277   .     A
C443   C447    1.360   .     S
C443   O522    1.277   .     A
C444   C448    1.360   .     S
C444   O524    1.277   .     A
C444   O523    1.277   .     A
C445   C476    1.409   .     A
C445   C474    1.409   .     A
C445   C622    1.517   1_545 S
C446   C475    1.414   .     A
C446   C621    1.517   .     S
C448   C799    1.162   .     S
C449   C454    1.380   .     A
C449   C460    1.399   .     A
C449   H477    1.083   .     S
C450   C461    1.399   .     A
C450   H488    1.083   .     S
C450   C455    1.380   .     A
C451   H499    1.083   .     S
C451   C461    1.399   .     A
C451   C456    1.380   .     A
C452   O519    1.291   .     A
C452   O520    1.290   .     A
C452   C459    1.438   .     S
C453   H503    1.083   .     S
C453   C460    1.399   .     A
C453   C457    1.380   .     A
C454   C458    1.399   .     A
C454   H504    1.084   .     S
C455   C459    1.399   .     A
C455   H505    1.083   .     S
C456   H506    1.084   .     S
C456   C459    1.399   .     A
C457   H507    1.083   .     S
C457   C458    1.399   .     A
C461   C372    1.445   1_655 S
C462   H508    1.110   .     S
C462   H479    1.112   .     S
C462   O526    1.410   .     S
C462   H478    1.113   .     S
C463   N509    1.377   .     A
C463   O526    1.377   .     S
C463   C474    1.421   .     A
C464   H482    1.110   .     S
C464   H480    1.109   .     S
C464   H481    1.115   .     S
C464   O512    1.412   .     S
C465   H483    1.110   .     S
C465   H484    1.113   .     S
C465   H485    1.112   .     S
C465   O513    1.410   .     S
C466   H489    1.110   .     S
C466   H487    1.115   .     S
C466   O514    1.412   .     S
C466   H486    1.109   .     S
C467   H490    1.112   .     S
C467   O515    1.409   .     S
C467   H491    1.111   .     S
C467   H492    1.109   .     S
C468   H495    1.109   .     S
C468   H494    1.111   .     S
C468   O516    1.409   .     S
C468   H493    1.113   .     S
C469   H498    1.109   .     S
C469   H497    1.112   .     S
C469   H496    1.111   .     S
C469   O517    1.409   .     S
C470   H500    1.111   .     S
C470   H502    1.109   .     S
C470   O518    1.409   .     S
C470   H501    1.113   .     S
C471   N510    1.366   .     A
C471   O512    1.382   .     S
C471   C475    1.422   .     A
C472   C476    1.421   .     A
C472   O513    1.377   .     S
C472   N509    1.377   .     A
C473   N510    1.366   .     A
C473   O514    1.382   .     S
C474   O515    1.384   .     S
C475   O516    1.383   .     S
C476   O517    1.384   .     S
N509   Zn528   2.016   .     S
N510   Zn527   2.016   .     S
O511   Zn527   2.002   .     S
O519   Zn528   2.002   .     S
O520   Zn527   2.002   .     S
O521   Zn528   2.002   .     S
O522   Zn527   1.941   .     S
O523   Zn528   1.941   .     S
O524   Zn527   1.941   .     S
O525   Zn528   1.941   .     S
C529   C546    1.438   .     S
C529   O599    1.290   .     A
C529   O609    1.291   .     A
C530   C534    1.414   .     A
C530   O606    1.383   .     S
C530   C561    1.422   .     A
C531   O613    1.277   .     A
C531   C535    1.360   .     S
C531   O610    1.277   .     A
C532   C536    1.360   .     S
C532   O612    1.277   .     A
C532   O611    1.277   .     A
C533   C564    1.409   .     A
C533   C562    1.409   .     A
C534   C563    1.414   .     A
C534   C357    1.517   1_565 S
C536   C887    1.162   .     S
C537   C542    1.380   .     A
C537   C548    1.399   .     A
C537   H565    1.083   .     S
C538   C549    1.399   .     A
C538   H576    1.083   .     S
C538   C543    1.380   .     A
C539   H587    1.083   .     S
C539   C549    1.399   .     A
C539   C544    1.380   .     A
C540   O607    1.291   .     A
C540   O608    1.290   .     A
C540   C547    1.438   .     S
C541   H591    1.083   .     S
C541   C548    1.399   .     A
C541   C545    1.380   .     A
C542   C546    1.399   .     A
C542   H592    1.084   .     S
C543   C547    1.399   .     A
C543   H593    1.083   .     S
C544   H594    1.084   .     S
C544   C547    1.399   .     A
C545   H595    1.083   .     S
C545   C546    1.399   .     A
C548   C637    1.445   1_455 S
C549   C636    1.445   .     S
C550   H596    1.110   .     S
C550   H567    1.112   .     S
C550   O614    1.410   .     S
C550   H566    1.113   .     S
C551   N597    1.377   .     A
C551   O614    1.377   .     S
C551   C562    1.421   .     A
C552   H570    1.110   .     S
C552   H568    1.109   .     S
C552   H569    1.115   .     S
C552   O600    1.412   .     S
C553   H571    1.110   .     S
C553   H572    1.113   .     S
C553   H573    1.112   .     S
C553   O601    1.410   .     S
C554   H577    1.110   .     S
C554   H575    1.115   .     S
C554   O602    1.412   .     S
C554   H574    1.109   .     S
C555   H578    1.112   .     S
C555   O603    1.409   .     S
C555   H579    1.111   .     S
C555   H580    1.109   .     S
C556   H583    1.109   .     S
C556   H582    1.111   .     S
C556   O604    1.409   .     S
C556   H581    1.113   .     S
C557   H586    1.109   .     S
C557   H585    1.112   .     S
C557   H584    1.111   .     S
C557   O605    1.409   .     S
C558   H588    1.111   .     S
C558   H590    1.109   .     S
C558   O606    1.409   .     S
C558   H589    1.113   .     S
C559   N598    1.366   .     A
C559   O600    1.382   .     S
C559   C563    1.422   .     A
C560   C564    1.421   .     A
C560   O601    1.377   .     S
C560   N597    1.377   .     A
C561   N598    1.366   .     A
C561   O602    1.382   .     S
C562   O603    1.384   .     S
C563   O604    1.383   .     S
C564   O605    1.384   .     S
N597   Zn616   2.016   .     S
N598   Zn615   2.016   .     S
O599   Zn615   2.002   .     S
O607   Zn616   2.002   .     S
O608   Zn615   2.002   .     S
O609   Zn616   2.002   .     S
O610   Zn615   1.941   .     S
O611   Zn616   1.941   .     S
O612   Zn615   1.941   .     S
O613   Zn616   1.941   .     S
C617   C634    1.438   .     S
C617   O687    1.290   .     A
C617   O697    1.291   .     A
C618   C622    1.414   .     A
C618   O694    1.383   .     S
C618   C649    1.422   .     A
C619   O701    1.277   .     A
C619   C623    1.360   .     S
C619   O698    1.277   .     A
C620   C624    1.360   .     S
C620   O700    1.277   .     A
C620   O699    1.277   .     A
C621   C652    1.409   .     A
C621   C650    1.409   .     A
C622   C651    1.414   .     A
C622   C445    1.517   1_565 S
C624   C975    1.162   .     S
C625   C630    1.380   .     A
C625   C636    1.399   .     A
C625   H653    1.083   .     S
C626   C637    1.399   .     A
C626   H664    1.083   .     S
C626   C631    1.380   .     A
C627   H675    1.083   .     S
C627   C637    1.399   .     A
C627   C632    1.380   .     A
C628   O695    1.291   .     A
C628   O696    1.290   .     A
C628   C635    1.438   .     S
C629   H679    1.083   .     S
C629   C636    1.399   .     A
C629   C633    1.380   .     A
C630   C634    1.399   .     A
C630   H680    1.084   .     S
C631   C635    1.399   .     A
C631   H681    1.083   .     S
C632   H682    1.084   .     S
C632   C635    1.399   .     A
C633   H683    1.083   .     S
C633   C634    1.399   .     A
C637   C548    1.445   1_655 S
C638   H684    1.110   .     S
C638   H655    1.112   .     S
C638   O702    1.410   .     S
C638   H654    1.113   .     S
C639   N685    1.377   .     A
C639   O702    1.377   .     S
C639   C650    1.421   .     A
C640   H658    1.110   .     S
C640   H656    1.109   .     S
C640   H657    1.115   .     S
C640   O688    1.412   .     S
C641   H659    1.110   .     S
C641   H660    1.113   .     S
C641   H661    1.112   .     S
C641   O689    1.410   .     S
C642   H665    1.110   .     S
C642   H663    1.115   .     S
C642   O690    1.412   .     S
C642   H662    1.109   .     S
C643   H666    1.112   .     S
C643   O691    1.409   .     S
C643   H667    1.111   .     S
C643   H668    1.109   .     S
C644   H671    1.109   .     S
C644   H670    1.111   .     S
C644   O692    1.409   .     S
C644   H669    1.113   .     S
C645   H674    1.109   .     S
C645   H673    1.112   .     S
C645   H672    1.111   .     S
C645   O693    1.409   .     S
C646   H676    1.111   .     S
C646   H678    1.109   .     S
C646   O694    1.409   .     S
C646   H677    1.113   .     S
C647   N686    1.366   .     A
C647   O688    1.382   .     S
C647   C651    1.422   .     A
C648   C652    1.421   .     A
C648   O689    1.377   .     S
C648   N685    1.377   .     A
C649   N686    1.366   .     A
C649   O690    1.382   .     S
C650   O691    1.384   .     S
C651   O692    1.383   .     S
C652   O693    1.384   .     S
N685   Zn704   2.016   .     S
N686   Zn703   2.016   .     S
O687   Zn703   2.002   .     S
O695   Zn704   2.002   .     S
O696   Zn703   2.002   .     S
O697   Zn704   2.002   .     S
O698   Zn703   1.941   .     S
O699   Zn704   1.941   .     S
O700   Zn703   1.941   .     S
O701   Zn704   1.941   .     S
C705   C722    1.438   .     S
C705   O775    1.290   .     A
C705   O785    1.291   .     A
C706   C710    1.414   .     A
C706   O782    1.383   .     S
C706   C737    1.422   .     A
C707   O789    1.277   .     A
C707   C711    1.360   .     S
C707   O786    1.277   .     A
C708   C712    1.360   .     S
C708   O788    1.277   .     A
C708   O787    1.277   .     A
C709   C740    1.409   .     A
C709   C738    1.409   .     A
C709   C886    1.517   1_545 S
C710   C739    1.414   .     A
C710   C885    1.517   .     S
C712   C7      1.162   1_556 S
C713   C718    1.380   .     A
C713   C724    1.399   .     A
C713   H741    1.083   .     S
C714   C725    1.399   .     A
C714   H752    1.083   .     S
C714   C719    1.380   .     A
C715   H763    1.083   .     S
C715   C725    1.399   .     A
C715   C720    1.380   .     A
C716   O783    1.291   .     A
C716   O784    1.290   .     A
C716   C723    1.438   .     S
C717   H767    1.083   .     S
C717   C724    1.399   .     A
C717   C721    1.380   .     A
C718   C722    1.399   .     A
C718   H768    1.084   .     S
C719   C723    1.399   .     A
C719   H769    1.083   .     S
C720   H770    1.084   .     S
C720   C723    1.399   .     A
C721   H771    1.083   .     S
C721   C722    1.399   .     A
C724   C813    1.445   1_455 S
C725   C812    1.445   .     S
C726   H772    1.110   .     S
C726   H743    1.112   .     S
C726   O790    1.410   .     S
C726   H742    1.113   .     S
C727   N773    1.377   .     A
C727   O790    1.377   .     S
C727   C738    1.421   .     A
C728   H746    1.110   .     S
C728   H744    1.109   .     S
C728   H745    1.115   .     S
C728   O776    1.412   .     S
C729   H747    1.110   .     S
C729   H748    1.113   .     S
C729   H749    1.112   .     S
C729   O777    1.410   .     S
C730   H753    1.110   .     S
C730   H751    1.115   .     S
C730   O778    1.412   .     S
C730   H750    1.109   .     S
C731   H754    1.112   .     S
C731   O779    1.409   .     S
C731   H755    1.111   .     S
C731   H756    1.109   .     S
C732   H759    1.109   .     S
C732   H758    1.111   .     S
C732   O780    1.409   .     S
C732   H757    1.113   .     S
C733   H762    1.109   .     S
C733   H761    1.112   .     S
C733   H760    1.111   .     S
C733   O781    1.409   .     S
C734   H764    1.111   .     S
C734   H766    1.109   .     S
C734   O782    1.409   .     S
C734   H765    1.113   .     S
C735   N774    1.366   .     A
C735   O776    1.382   .     S
C735   C739    1.422   .     A
C736   C740    1.421   .     A
C736   O777    1.377   .     S
C736   N773    1.377   .     A
C737   N774    1.366   .     A
C737   O778    1.382   .     S
C738   O779    1.384   .     S
C739   O780    1.383   .     S
C740   O781    1.384   .     S
N773   Zn792   2.016   .     S
N774   Zn791   2.016   .     S
O775   Zn791   2.002   .     S
O783   Zn792   2.002   .     S
O784   Zn791   2.002   .     S
O785   Zn792   2.002   .     S
O786   Zn791   1.941   .     S
O787   Zn792   1.941   .     S
O788   Zn791   1.941   .     S
O789   Zn792   1.941   .     S
C793   C810    1.438   .     S
C793   O863    1.290   .     A
C793   O873    1.291   .     A
C794   C798    1.414   .     A
C794   O870    1.383   .     S
C794   C825    1.422   .     A
C795   O877    1.277   .     A
C795   C799    1.360   .     S
C795   O874    1.277   .     A
C796   C800    1.360   .     S
C796   O876    1.277   .     A
C796   O875    1.277   .     A
C797   C828    1.409   .     A
C797   C826    1.409   .     A
C797   C974    1.517   1_545 S
C798   C827    1.414   .     A
C798   C973    1.517   .     S
C800   C95     1.162   1_556 S
C801   C806    1.380   .     A
C801   C812    1.399   .     A
C801   H829    1.083   .     S
C802   C813    1.399   .     A
C802   H840    1.083   .     S
C802   C807    1.380   .     A
C803   H851    1.083   .     S
C803   C813    1.399   .     A
C803   C808    1.380   .     A
C804   O871    1.291   .     A
C804   O872    1.290   .     A
C804   C811    1.438   .     S
C805   H855    1.083   .     S
C805   C812    1.399   .     A
C805   C809    1.380   .     A
C806   C810    1.399   .     A
C806   H856    1.084   .     S
C807   C811    1.399   .     A
C807   H857    1.083   .     S
C808   H858    1.084   .     S
C808   C811    1.399   .     A
C809   H859    1.083   .     S
C809   C810    1.399   .     A
C813   C724    1.445   1_655 S
C814   H860    1.110   .     S
C814   H831    1.112   .     S
C814   O878    1.410   .     S
C814   H830    1.113   .     S
C815   N861    1.377   .     A
C815   O878    1.377   .     S
C815   C826    1.421   .     A
C816   H834    1.110   .     S
C816   H832    1.109   .     S
C816   H833    1.115   .     S
C816   O864    1.412   .     S
C817   H835    1.110   .     S
C817   H836    1.113   .     S
C817   H837    1.112   .     S
C817   O865    1.410   .     S
C818   H841    1.110   .     S
C818   H839    1.115   .     S
C818   O866    1.412   .     S
C818   H838    1.109   .     S
C819   H842    1.112   .     S
C819   O867    1.409   .     S
C819   H843    1.111   .     S
C819   H844    1.109   .     S
C820   H847    1.109   .     S
C820   H846    1.111   .     S
C820   O868    1.409   .     S
C820   H845    1.113   .     S
C821   H850    1.109   .     S
C821   H849    1.112   .     S
C821   H848    1.111   .     S
C821   O869    1.409   .     S
C822   H852    1.111   .     S
C822   H854    1.109   .     S
C822   O870    1.409   .     S
C822   H853    1.113   .     S
C823   N862    1.366   .     A
C823   O864    1.382   .     S
C823   C827    1.422   .     A
C824   C828    1.421   .     A
C824   O865    1.377   .     S
C824   N861    1.377   .     A
C825   N862    1.366   .     A
C825   O866    1.382   .     S
C826   O867    1.384   .     S
C827   O868    1.383   .     S
C828   O869    1.384   .     S
N861   Zn880   2.016   .     S
N862   Zn879   2.016   .     S
O863   Zn879   2.002   .     S
O871   Zn880   2.002   .     S
O872   Zn879   2.002   .     S
O873   Zn880   2.002   .     S
O874   Zn879   1.941   .     S
O875   Zn880   1.941   .     S
O876   Zn879   1.941   .     S
O877   Zn880   1.941   .     S
C881   C898    1.438   .     S
C881   O951    1.290   .     A
C881   O961    1.291   .     A
C882   C886    1.414   .     A
C882   O958    1.383   .     S
C882   C913    1.422   .     A
C883   O965    1.277   .     A
C883   C887    1.360   .     S
C883   O962    1.277   .     A
C884   C888    1.360   .     S
C884   O964    1.277   .     A
C884   O963    1.277   .     A
C885   C916    1.409   .     A
C885   C914    1.409   .     A
C886   C915    1.414   .     A
C886   C709    1.517   1_565 S
C888   C183    1.162   1_556 S
C889   C894    1.380   .     A
C889   C900    1.399   .     A
C889   H917    1.083   .     S
C890   C901    1.399   .     A
C890   H928    1.083   .     S
C890   C895    1.380   .     A
C891   H939    1.083   .     S
C891   C901    1.399   .     A
C891   C896    1.380   .     A
C892   O959    1.291   .     A
C892   O960    1.290   .     A
C892   C899    1.438   .     S
C893   H943    1.083   .     S
C893   C900    1.399   .     A
C893   C897    1.380   .     A
C894   C898    1.399   .     A
C894   H944    1.084   .     S
C895   C899    1.399   .     A
C895   H945    1.083   .     S
C896   H946    1.084   .     S
C896   C899    1.399   .     A
C897   H947    1.083   .     S
C897   C898    1.399   .     A
C900   C989    1.445   1_455 S
C901   C988    1.445   .     S
C902   H948    1.110   .     S
C902   H919    1.112   .     S
C902   O966    1.410   .     S
C902   H918    1.113   .     S
C903   N949    1.377   .     A
C903   O966    1.377   .     S
C903   C914    1.421   .     A
C904   H922    1.110   .     S
C904   H920    1.109   .     S
C904   H921    1.115   .     S
C904   O952    1.412   .     S
C905   H923    1.110   .     S
C905   H924    1.113   .     S
C905   H925    1.112   .     S
C905   O953    1.410   .     S
C906   H929    1.110   .     S
C906   H927    1.115   .     S
C906   O954    1.412   .     S
C906   H926    1.109   .     S
C907   H930    1.112   .     S
C907   O955    1.409   .     S
C907   H931    1.111   .     S
C907   H932    1.109   .     S
C908   H935    1.109   .     S
C908   H934    1.111   .     S
C908   O956    1.409   .     S
C908   H933    1.113   .     S
C909   H938    1.109   .     S
C909   H937    1.112   .     S
C909   H936    1.111   .     S
C909   O957    1.409   .     S
C910   H940    1.111   .     S
C910   H942    1.109   .     S
C910   O958    1.409   .     S
C910   H941    1.113   .     S
C911   N950    1.366   .     A
C911   O952    1.382   .     S
C911   C915    1.422   .     A
C912   C916    1.421   .     A
C912   O953    1.377   .     S
C912   N949    1.377   .     A
C913   N950    1.366   .     A
C913   O954    1.382   .     S
C914   O955    1.384   .     S
C915   O956    1.383   .     S
C916   O957    1.384   .     S
N949   Zn968   2.016   .     S
N950   Zn967   2.016   .     S
O951   Zn967   2.002   .     S
O959   Zn968   2.002   .     S
O960   Zn967   2.002   .     S
O961   Zn968   2.002   .     S
O962   Zn967   1.941   .     S
O963   Zn968   1.941   .     S
O964   Zn967   1.941   .     S
O965   Zn968   1.941   .     S
C969   C986    1.438   .     S
C969   O1039   1.290   .     A
C969   O1049   1.291   .     A
C970   C974    1.414   .     A
C970   O1046   1.383   .     S
C970   C1001   1.422   .     A
C971   O1053   1.277   .     A
C971   C975    1.360   .     S
C971   O1050   1.277   .     A
C972   C976    1.360   .     S
C972   O1052   1.277   .     A
C972   O1051   1.277   .     A
C973   C1004   1.409   .     A
C973   C1002   1.409   .     A
C974   C1003   1.414   .     A
C974   C797    1.517   1_565 S
C976   C271    1.162   1_556 S
C977   C982    1.380   .     A
C977   C988    1.399   .     A
C977   H1005   1.083   .     S
C978   C989    1.399   .     A
C978   H1016   1.083   .     S
C978   C983    1.380   .     A
C979   H1027   1.083   .     S
C979   C989    1.399   .     A
C979   C984    1.380   .     A
C980   O1047   1.291   .     A
C980   O1048   1.290   .     A
C980   C987    1.438   .     S
C981   H1031   1.083   .     S
C981   C988    1.399   .     A
C981   C985    1.380   .     A
C982   C986    1.399   .     A
C982   H1032   1.084   .     S
C983   C987    1.399   .     A
C983   H1033   1.083   .     S
C984   H1034   1.084   .     S
C984   C987    1.399   .     A
C985   H1035   1.083   .     S
C985   C986    1.399   .     A
C989   C900    1.445   1_655 S
C990   H1036   1.110   .     S
C990   H1007   1.112   .     S
C990   O1054   1.410   .     S
C990   H1006   1.113   .     S
C991   N1037   1.377   .     A
C991   O1054   1.377   .     S
C991   C1002   1.421   .     A
C992   H1010   1.110   .     S
C992   H1008   1.109   .     S
C992   H1009   1.115   .     S
C992   O1040   1.412   .     S
C993   H1011   1.110   .     S
C993   H1012   1.113   .     S
C993   H1013   1.112   .     S
C993   O1041   1.410   .     S
C994   H1017   1.110   .     S
C994   H1015   1.115   .     S
C994   O1042   1.412   .     S
C994   H1014   1.109   .     S
C995   H1018   1.112   .     S
C995   O1043   1.409   .     S
C995   H1019   1.111   .     S
C995   H1020   1.109   .     S
C996   H1023   1.109   .     S
C996   H1022   1.111   .     S
C996   O1044   1.409   .     S
C996   H1021   1.113   .     S
C997   H1026   1.109   .     S
C997   H1025   1.112   .     S
C997   H1024   1.111   .     S
C997   O1045   1.409   .     S
C998   H1028   1.111   .     S
C998   H1030   1.109   .     S
C998   O1046   1.409   .     S
C998   H1029   1.113   .     S
C999   N1038   1.366   .     A
C999   O1040   1.382   .     S
C999   C1003   1.422   .     A
C1000  C1004   1.421   .     A
C1000  O1041   1.377   .     S
C1000  N1037   1.377   .     A
C1001  N1038   1.366   .     A
C1001  O1042   1.382   .     S
C1002  O1043   1.384   .     S
C1003  O1044   1.383   .     S
C1004  O1045   1.384   .     S
N1037  Zn1056  2.016   .     S
N1038  Zn1055  2.016   .     S
O1039  Zn1055  2.002   .     S
O1047  Zn1056  2.002   .     S
O1048  Zn1055  2.002   .     S
O1049  Zn1056  2.002   .     S
O1050  Zn1055  1.941   .     S
O1051  Zn1056  1.941   .     S
O1052  Zn1055  1.941   .     S
O1053  Zn1056  1.941   .     S
