data_str_m3_o1_o17_pcu_sym.123
_audit_creation_date              2020-01-03
_audit_creation_method            'Materials Studio'
_symmetry_space_group_name_H-M    'P1'
_symmetry_Int_Tables_number       1
_symmetry_cell_setting            triclinic
loop_
_symmetry_equiv_pos_as_xyz
  x,y,z
_cell_length_a                    32.1686
_cell_length_b                    29.8536
_cell_length_c                    30.0143
_cell_angle_alpha                 90.3301
_cell_angle_beta                  92.3235
_cell_angle_gamma                 89.9904
loop_
_atom_site_label
_atom_site_type_symbol
_atom_site_fract_x
_atom_site_fract_y
_atom_site_fract_z
_atom_site_U_iso_or_equiv
_atom_site_adp_type
_atom_site_occupancy
C1     C     0.08673   0.16667   0.24988   0.00000  Uiso   1.00
C2     C     0.24660   0.16667   0.25012   0.00000  Uiso   1.00
C3     C     0.13643   0.24161   0.02282   0.00000  Uiso   1.00
C4     C     0.19690   0.09173   0.47718   0.00000  Uiso   1.00
C5     C     0.02148   0.12611   0.25459   0.00000  Uiso   1.00
C6     C     0.31185   0.20723   0.24541   0.00000  Uiso   1.00
C7     C     0.31223   0.12612   0.25472   0.00000  Uiso   1.00
C8     C     0.02110   0.20722   0.24528   0.00000  Uiso   1.00
C9     C     0.29082   0.16667   0.25011   0.00000  Uiso   1.00
C10    C     0.04251   0.16666   0.24989   0.00000  Uiso   1.00
C11    C     0.19581   0.02379   0.27505   0.00000  Uiso   1.00
C12    C     0.13753   0.30955   0.22495   0.00000  Uiso   1.00
C13    C     0.13754   0.02355   0.22494   0.00000  Uiso   1.00
C14    C     0.19579   0.30978   0.27506   0.00000  Uiso   1.00
C15    C     0.16694   0.16651   0.16346   0.00000  Uiso   1.00
C16    C     0.16639   0.16683   0.33654   0.00000  Uiso   1.00
C17    C     0.18122   0.12972   0.40759   0.00000  Uiso   1.00
C18    C     0.15211   0.20362   0.09241   0.00000  Uiso   1.00
C19    C     0.16604   0.16715   0.38447   0.00000  Uiso   1.00
C20    C     0.16729   0.16618   0.11553   0.00000  Uiso   1.00
C21    C     0.15075   0.20450   0.40710   0.00000  Uiso   1.00
C22    C     0.18258   0.12883   0.09290   0.00000  Uiso   1.00
C23    C     0.15103   0.20456   0.45335   0.00000  Uiso   1.00
C24    C     0.18230   0.12877   0.04665   0.00000  Uiso   1.00
C25    C     0.16650   0.16676   0.47676   0.00000  Uiso   1.00
C26    C     0.16683   0.16657   0.02324   0.00000  Uiso   1.00
C27    C     0.18160   0.12913   0.45372   0.00000  Uiso   1.00
C28    C     0.15173   0.20420   0.04628   0.00000  Uiso   1.00
C29    C     0.13609   0.24170   0.47655   0.00000  Uiso   1.00
C30    C     0.19724   0.09163   0.02345   0.00000  Uiso   1.00
H31    H     0.19316   0.10122   0.38954   0.00000  Uiso   1.00
H32    H     0.14017   0.23211   0.11046   0.00000  Uiso   1.00
H33    H     0.12417   0.27092   0.45901   0.00000  Uiso   1.00
H34    H     0.20916   0.06241   0.04099   0.00000  Uiso   1.00
H35    H     0.03777   0.09449   0.25833   0.00000  Uiso   1.00
H36    H     0.29556   0.23884   0.24167   0.00000  Uiso   1.00
H37    H     0.29625   0.09451   0.25855   0.00000  Uiso   1.00
H38    H     0.03709   0.23882   0.24145   0.00000  Uiso   1.00
N39    N     0.16667   0.28573   0.25000   0.00000  Uiso   1.00
N40    N     0.16667   0.04760   0.25000   0.00000  Uiso   1.00
O41    O     0.10559   0.20487   0.24999   0.00000  Uiso   1.00
O42    O     0.22774   0.12846   0.25000   0.00000  Uiso   1.00
O43    O     0.22774   0.20487   0.25000   0.00000  Uiso   1.00
O44    O     0.10559   0.12846   0.24999   0.00000  Uiso   1.00
O45    O     0.16666   0.20489   0.18392   0.00000  Uiso   1.00
O46    O     0.16667   0.12844   0.31607   0.00000  Uiso   1.00
O47    O     0.16667   0.20489   0.31607   0.00000  Uiso   1.00
O48    O     0.16666   0.12844   0.18392   0.00000  Uiso   1.00
Zn49   Zn    0.16667   0.21771   0.25000   0.00000  Uiso   1.00
Zn50   Zn    0.16667   0.11563   0.25000   0.00000  Uiso   1.00
F51    F     0.13489   0.24028   0.38424   0.00000  Uiso   1.00
F52    F     0.19845   0.09305   0.11576   0.00000  Uiso   1.00
F53    F     0.12184   0.27804   0.04456   0.00000  Uiso   1.00
F54    F     0.21149   0.05530   0.45544   0.00000  Uiso   1.00
O55    O     0.22594   0.04459   0.30161   0.00000  Uiso   1.00
H56    H     0.21812   0.07603   0.30539   0.00000  Uiso   1.00
O57    O     0.10739   0.28875   0.19839   0.00000  Uiso   1.00
H58    H     0.11522   0.25730   0.19461   0.00000  Uiso   1.00
O59    O     0.10748   0.04414   0.19837   0.00000  Uiso   1.00
H60    H     0.11556   0.07544   0.19436   0.00000  Uiso   1.00
O61    O     0.22586   0.28919   0.30163   0.00000  Uiso   1.00
H62    H     0.21777   0.25789   0.30564   0.00000  Uiso   1.00
C63    C     0.42006   0.16667   0.24988   0.00000  Uiso   1.00
C64    C     0.57994   0.16667   0.25012   0.00000  Uiso   1.00
C65    C     0.46977   0.24161   0.02282   0.00000  Uiso   1.00
C66    C     0.53023   0.09173   0.47718   0.00000  Uiso   1.00
C67    C     0.35481   0.12611   0.25459   0.00000  Uiso   1.00
C68    C     0.64519   0.20723   0.24541   0.00000  Uiso   1.00
C69    C     0.64556   0.12612   0.25472   0.00000  Uiso   1.00
C70    C     0.35444   0.20722   0.24528   0.00000  Uiso   1.00
C71    C     0.62415   0.16667   0.25011   0.00000  Uiso   1.00
C72    C     0.37585   0.16666   0.24989   0.00000  Uiso   1.00
C73    C     0.52914   0.02379   0.27505   0.00000  Uiso   1.00
C74    C     0.47086   0.30955   0.22495   0.00000  Uiso   1.00
C75    C     0.47088   0.02355   0.22494   0.00000  Uiso   1.00
C76    C     0.52912   0.30978   0.27506   0.00000  Uiso   1.00
C77    C     0.50027   0.16651   0.16346   0.00000  Uiso   1.00
C78    C     0.49973   0.16683   0.33654   0.00000  Uiso   1.00
C79    C     0.51455   0.12972   0.40759   0.00000  Uiso   1.00
C80    C     0.48545   0.20362   0.09241   0.00000  Uiso   1.00
C81    C     0.49938   0.16715   0.38447   0.00000  Uiso   1.00
C82    C     0.50062   0.16618   0.11553   0.00000  Uiso   1.00
C83    C     0.48409   0.20450   0.40710   0.00000  Uiso   1.00
C84    C     0.51591   0.12883   0.09290   0.00000  Uiso   1.00
C85    C     0.48436   0.20456   0.45335   0.00000  Uiso   1.00
C86    C     0.51564   0.12877   0.04665   0.00000  Uiso   1.00
C87    C     0.49983   0.16676   0.47676   0.00000  Uiso   1.00
C88    C     0.50017   0.16657   0.02324   0.00000  Uiso   1.00
C89    C     0.51494   0.12913   0.45372   0.00000  Uiso   1.00
C90    C     0.48506   0.20420   0.04628   0.00000  Uiso   1.00
C91    C     0.46942   0.24170   0.47655   0.00000  Uiso   1.00
C92    C     0.53058   0.09163   0.02345   0.00000  Uiso   1.00
H93    H     0.52650   0.10122   0.38954   0.00000  Uiso   1.00
H94    H     0.47350   0.23211   0.11046   0.00000  Uiso   1.00
H95    H     0.45751   0.27092   0.45901   0.00000  Uiso   1.00
H96    H     0.54249   0.06241   0.04099   0.00000  Uiso   1.00
H97    H     0.37110   0.09449   0.25833   0.00000  Uiso   1.00
H98    H     0.62890   0.23884   0.24167   0.00000  Uiso   1.00
H99    H     0.62958   0.09451   0.25855   0.00000  Uiso   1.00
H100   H     0.37042   0.23882   0.24145   0.00000  Uiso   1.00
N101   N     0.50000   0.28573   0.25000   0.00000  Uiso   1.00
N102   N     0.50000   0.04760   0.25000   0.00000  Uiso   1.00
O103   O     0.43892   0.20487   0.24999   0.00000  Uiso   1.00
O104   O     0.56108   0.12846   0.25000   0.00000  Uiso   1.00
O105   O     0.56108   0.20487   0.25000   0.00000  Uiso   1.00
O106   O     0.43892   0.12846   0.24999   0.00000  Uiso   1.00
O107   O     0.49999   0.20489   0.18392   0.00000  Uiso   1.00
O108   O     0.50001   0.12844   0.31607   0.00000  Uiso   1.00
O109   O     0.50001   0.20489   0.31607   0.00000  Uiso   1.00
O110   O     0.49999   0.12844   0.18392   0.00000  Uiso   1.00
Zn111  Zn    0.50000   0.21771   0.25000   0.00000  Uiso   1.00
Zn112  Zn    0.50000   0.11563   0.25000   0.00000  Uiso   1.00
F113   F     0.46822   0.24028   0.38424   0.00000  Uiso   1.00
F114   F     0.53178   0.09305   0.11576   0.00000  Uiso   1.00
F115   F     0.45517   0.27804   0.04456   0.00000  Uiso   1.00
F116   F     0.54483   0.05530   0.45544   0.00000  Uiso   1.00
O117   O     0.55927   0.04459   0.30161   0.00000  Uiso   1.00
H118   H     0.55145   0.07603   0.30539   0.00000  Uiso   1.00
O119   O     0.44073   0.28875   0.19839   0.00000  Uiso   1.00
H120   H     0.44855   0.25730   0.19461   0.00000  Uiso   1.00
O121   O     0.44081   0.04414   0.19837   0.00000  Uiso   1.00
H122   H     0.44890   0.07544   0.19436   0.00000  Uiso   1.00
O123   O     0.55919   0.28919   0.30163   0.00000  Uiso   1.00
H124   H     0.55110   0.25789   0.30564   0.00000  Uiso   1.00
C125   C     0.75340   0.16667   0.24988   0.00000  Uiso   1.00
C126   C     0.91327   0.16667   0.25012   0.00000  Uiso   1.00
C127   C     0.80310   0.24161   0.02282   0.00000  Uiso   1.00
C128   C     0.86357   0.09173   0.47718   0.00000  Uiso   1.00
C129   C     0.68815   0.12611   0.25459   0.00000  Uiso   1.00
C130   C     0.97852   0.20723   0.24541   0.00000  Uiso   1.00
C131   C     0.97889   0.12612   0.25472   0.00000  Uiso   1.00
C132   C     0.68777   0.20722   0.24528   0.00000  Uiso   1.00
C133   C     0.95749   0.16667   0.25011   0.00000  Uiso   1.00
C134   C     0.70918   0.16666   0.24989   0.00000  Uiso   1.00
C135   C     0.86247   0.02379   0.27505   0.00000  Uiso   1.00
C136   C     0.80419   0.30955   0.22495   0.00000  Uiso   1.00
C137   C     0.80421   0.02355   0.22494   0.00000  Uiso   1.00
C138   C     0.86246   0.30978   0.27506   0.00000  Uiso   1.00
C139   C     0.83360   0.16651   0.16346   0.00000  Uiso   1.00
C140   C     0.83306   0.16683   0.33654   0.00000  Uiso   1.00
C141   C     0.84788   0.12972   0.40759   0.00000  Uiso   1.00
C142   C     0.81878   0.20362   0.09241   0.00000  Uiso   1.00
C143   C     0.83271   0.16715   0.38447   0.00000  Uiso   1.00
C144   C     0.83396   0.16618   0.11553   0.00000  Uiso   1.00
C145   C     0.81742   0.20450   0.40710   0.00000  Uiso   1.00
C146   C     0.84924   0.12883   0.09290   0.00000  Uiso   1.00
C147   C     0.81770   0.20456   0.45335   0.00000  Uiso   1.00
C148   C     0.84897   0.12877   0.04665   0.00000  Uiso   1.00
C149   C     0.83317   0.16676   0.47676   0.00000  Uiso   1.00
C150   C     0.83350   0.16657   0.02324   0.00000  Uiso   1.00
C151   C     0.84827   0.12913   0.45372   0.00000  Uiso   1.00
C152   C     0.81840   0.20420   0.04628   0.00000  Uiso   1.00
C153   C     0.80276   0.24170   0.47655   0.00000  Uiso   1.00
C154   C     0.86391   0.09163   0.02345   0.00000  Uiso   1.00
H155   H     0.85983   0.10122   0.38954   0.00000  Uiso   1.00
H156   H     0.80684   0.23211   0.11046   0.00000  Uiso   1.00
H157   H     0.79084   0.27092   0.45901   0.00000  Uiso   1.00
H158   H     0.87583   0.06241   0.04099   0.00000  Uiso   1.00
H159   H     0.70444   0.09449   0.25833   0.00000  Uiso   1.00
H160   H     0.96223   0.23884   0.24167   0.00000  Uiso   1.00
H161   H     0.96291   0.09451   0.25855   0.00000  Uiso   1.00
H162   H     0.70375   0.23882   0.24145   0.00000  Uiso   1.00
N163   N     0.83333   0.28573   0.25000   0.00000  Uiso   1.00
N164   N     0.83333   0.04760   0.25000   0.00000  Uiso   1.00
O165   O     0.77226   0.20487   0.24999   0.00000  Uiso   1.00
O166   O     0.89441   0.12846   0.25000   0.00000  Uiso   1.00
O167   O     0.89441   0.20487   0.25000   0.00000  Uiso   1.00
O168   O     0.77226   0.12846   0.24999   0.00000  Uiso   1.00
O169   O     0.83333   0.20489   0.18392   0.00000  Uiso   1.00
O170   O     0.83334   0.12844   0.31607   0.00000  Uiso   1.00
O171   O     0.83334   0.20489   0.31607   0.00000  Uiso   1.00
O172   O     0.83333   0.12844   0.18392   0.00000  Uiso   1.00
Zn173  Zn    0.83333   0.21771   0.25000   0.00000  Uiso   1.00
Zn174  Zn    0.83333   0.11563   0.25000   0.00000  Uiso   1.00
F175   F     0.80155   0.24028   0.38424   0.00000  Uiso   1.00
F176   F     0.86511   0.09305   0.11576   0.00000  Uiso   1.00
F177   F     0.78851   0.27804   0.04456   0.00000  Uiso   1.00
F178   F     0.87816   0.05530   0.45544   0.00000  Uiso   1.00
O179   O     0.89261   0.04459   0.30161   0.00000  Uiso   1.00
H180   H     0.88478   0.07603   0.30539   0.00000  Uiso   1.00
O181   O     0.77406   0.28875   0.19839   0.00000  Uiso   1.00
H182   H     0.78188   0.25730   0.19461   0.00000  Uiso   1.00
O183   O     0.77414   0.04414   0.19837   0.00000  Uiso   1.00
H184   H     0.78223   0.07544   0.19436   0.00000  Uiso   1.00
O185   O     0.89252   0.28919   0.30163   0.00000  Uiso   1.00
H186   H     0.88444   0.25789   0.30564   0.00000  Uiso   1.00
C187   C     0.08673   0.50000   0.24988   0.00000  Uiso   1.00
C188   C     0.24660   0.50000   0.25012   0.00000  Uiso   1.00
C189   C     0.13643   0.57494   0.02282   0.00000  Uiso   1.00
C190   C     0.19690   0.42506   0.47718   0.00000  Uiso   1.00
C191   C     0.02148   0.45944   0.25459   0.00000  Uiso   1.00
C192   C     0.31185   0.54056   0.24541   0.00000  Uiso   1.00
C193   C     0.31223   0.45945   0.25472   0.00000  Uiso   1.00
C194   C     0.02110   0.54055   0.24528   0.00000  Uiso   1.00
C195   C     0.29082   0.50000   0.25011   0.00000  Uiso   1.00
C196   C     0.04251   0.50000   0.24989   0.00000  Uiso   1.00
C197   C     0.19581   0.35712   0.27505   0.00000  Uiso   1.00
C198   C     0.13753   0.64288   0.22495   0.00000  Uiso   1.00
C199   C     0.13754   0.35688   0.22494   0.00000  Uiso   1.00
C200   C     0.19579   0.64312   0.27506   0.00000  Uiso   1.00
C201   C     0.16694   0.49984   0.16346   0.00000  Uiso   1.00
C202   C     0.16639   0.50016   0.33654   0.00000  Uiso   1.00
C203   C     0.18122   0.46305   0.40759   0.00000  Uiso   1.00
C204   C     0.15211   0.53695   0.09241   0.00000  Uiso   1.00
C205   C     0.16604   0.50048   0.38447   0.00000  Uiso   1.00
C206   C     0.16729   0.49952   0.11553   0.00000  Uiso   1.00
C207   C     0.15075   0.53783   0.40710   0.00000  Uiso   1.00
C208   C     0.18258   0.46217   0.09290   0.00000  Uiso   1.00
C209   C     0.15103   0.53790   0.45335   0.00000  Uiso   1.00
C210   C     0.18230   0.46210   0.04665   0.00000  Uiso   1.00
C211   C     0.16650   0.50009   0.47676   0.00000  Uiso   1.00
C212   C     0.16683   0.49991   0.02324   0.00000  Uiso   1.00
C213   C     0.18160   0.46246   0.45372   0.00000  Uiso   1.00
C214   C     0.15173   0.53754   0.04628   0.00000  Uiso   1.00
C215   C     0.13609   0.57504   0.47655   0.00000  Uiso   1.00
C216   C     0.19724   0.42497   0.02345   0.00000  Uiso   1.00
H217   H     0.19316   0.43456   0.38954   0.00000  Uiso   1.00
H218   H     0.14017   0.56544   0.11046   0.00000  Uiso   1.00
H219   H     0.12417   0.60426   0.45901   0.00000  Uiso   1.00
H220   H     0.20916   0.39574   0.04099   0.00000  Uiso   1.00
H221   H     0.03777   0.42783   0.25833   0.00000  Uiso   1.00
H222   H     0.29556   0.57217   0.24167   0.00000  Uiso   1.00
H223   H     0.29625   0.42784   0.25855   0.00000  Uiso   1.00
H224   H     0.03709   0.57216   0.24145   0.00000  Uiso   1.00
N225   N     0.16667   0.61907   0.25000   0.00000  Uiso   1.00
N226   N     0.16667   0.38093   0.25000   0.00000  Uiso   1.00
O227   O     0.10559   0.53821   0.24999   0.00000  Uiso   1.00
O228   O     0.22774   0.46179   0.25000   0.00000  Uiso   1.00
O229   O     0.22774   0.53821   0.25000   0.00000  Uiso   1.00
O230   O     0.10559   0.46179   0.24999   0.00000  Uiso   1.00
O231   O     0.16666   0.53823   0.18392   0.00000  Uiso   1.00
O232   O     0.16667   0.46177   0.31607   0.00000  Uiso   1.00
O233   O     0.16667   0.53823   0.31607   0.00000  Uiso   1.00
O234   O     0.16666   0.46177   0.18392   0.00000  Uiso   1.00
Zn235  Zn    0.16667   0.55104   0.25000   0.00000  Uiso   1.00
Zn236  Zn    0.16667   0.44896   0.25000   0.00000  Uiso   1.00
F237   F     0.13489   0.57362   0.38424   0.00000  Uiso   1.00
F238   F     0.19845   0.42638   0.11576   0.00000  Uiso   1.00
F239   F     0.12184   0.61137   0.04456   0.00000  Uiso   1.00
F240   F     0.21149   0.38863   0.45544   0.00000  Uiso   1.00
O241   O     0.22594   0.37792   0.30161   0.00000  Uiso   1.00
H242   H     0.21812   0.40936   0.30539   0.00000  Uiso   1.00
O243   O     0.10739   0.62208   0.19839   0.00000  Uiso   1.00
H244   H     0.11522   0.59064   0.19461   0.00000  Uiso   1.00
O245   O     0.10748   0.37747   0.19837   0.00000  Uiso   1.00
H246   H     0.11556   0.40878   0.19436   0.00000  Uiso   1.00
O247   O     0.22586   0.62253   0.30163   0.00000  Uiso   1.00
H248   H     0.21777   0.59123   0.30564   0.00000  Uiso   1.00
C249   C     0.42006   0.50000   0.24988   0.00000  Uiso   1.00
C250   C     0.57994   0.50000   0.25012   0.00000  Uiso   1.00
C251   C     0.46977   0.57494   0.02282   0.00000  Uiso   1.00
C252   C     0.53023   0.42506   0.47718   0.00000  Uiso   1.00
C253   C     0.35481   0.45944   0.25459   0.00000  Uiso   1.00
C254   C     0.64519   0.54056   0.24541   0.00000  Uiso   1.00
C255   C     0.64556   0.45945   0.25472   0.00000  Uiso   1.00
C256   C     0.35444   0.54055   0.24528   0.00000  Uiso   1.00
C257   C     0.62415   0.50000   0.25011   0.00000  Uiso   1.00
C258   C     0.37585   0.50000   0.24989   0.00000  Uiso   1.00
C259   C     0.52914   0.35712   0.27505   0.00000  Uiso   1.00
C260   C     0.47086   0.64288   0.22495   0.00000  Uiso   1.00
C261   C     0.47088   0.35688   0.22494   0.00000  Uiso   1.00
C262   C     0.52912   0.64312   0.27506   0.00000  Uiso   1.00
C263   C     0.50027   0.49984   0.16346   0.00000  Uiso   1.00
C264   C     0.49973   0.50016   0.33654   0.00000  Uiso   1.00
C265   C     0.51455   0.46305   0.40759   0.00000  Uiso   1.00
C266   C     0.48545   0.53695   0.09241   0.00000  Uiso   1.00
C267   C     0.49938   0.50048   0.38447   0.00000  Uiso   1.00
C268   C     0.50062   0.49952   0.11553   0.00000  Uiso   1.00
C269   C     0.48409   0.53783   0.40710   0.00000  Uiso   1.00
C270   C     0.51591   0.46217   0.09290   0.00000  Uiso   1.00
C271   C     0.48436   0.53790   0.45335   0.00000  Uiso   1.00
C272   C     0.51564   0.46210   0.04665   0.00000  Uiso   1.00
C273   C     0.49983   0.50009   0.47676   0.00000  Uiso   1.00
C274   C     0.50017   0.49991   0.02324   0.00000  Uiso   1.00
C275   C     0.51494   0.46246   0.45372   0.00000  Uiso   1.00
C276   C     0.48506   0.53754   0.04628   0.00000  Uiso   1.00
C277   C     0.46942   0.57504   0.47655   0.00000  Uiso   1.00
C278   C     0.53058   0.42497   0.02345   0.00000  Uiso   1.00
H279   H     0.52650   0.43456   0.38954   0.00000  Uiso   1.00
H280   H     0.47350   0.56544   0.11046   0.00000  Uiso   1.00
H281   H     0.45751   0.60426   0.45901   0.00000  Uiso   1.00
H282   H     0.54249   0.39574   0.04099   0.00000  Uiso   1.00
H283   H     0.37110   0.42783   0.25833   0.00000  Uiso   1.00
H284   H     0.62890   0.57217   0.24167   0.00000  Uiso   1.00
H285   H     0.62958   0.42784   0.25855   0.00000  Uiso   1.00
H286   H     0.37042   0.57216   0.24145   0.00000  Uiso   1.00
N287   N     0.50000   0.61907   0.25000   0.00000  Uiso   1.00
N288   N     0.50000   0.38093   0.25000   0.00000  Uiso   1.00
O289   O     0.43892   0.53821   0.24999   0.00000  Uiso   1.00
O290   O     0.56108   0.46179   0.25000   0.00000  Uiso   1.00
O291   O     0.56108   0.53821   0.25000   0.00000  Uiso   1.00
O292   O     0.43892   0.46179   0.24999   0.00000  Uiso   1.00
O293   O     0.49999   0.53823   0.18392   0.00000  Uiso   1.00
O294   O     0.50001   0.46177   0.31607   0.00000  Uiso   1.00
O295   O     0.50001   0.53823   0.31607   0.00000  Uiso   1.00
O296   O     0.49999   0.46177   0.18392   0.00000  Uiso   1.00
Zn297  Zn    0.50000   0.55104   0.25000   0.00000  Uiso   1.00
Zn298  Zn    0.50000   0.44896   0.25000   0.00000  Uiso   1.00
F299   F     0.46822   0.57362   0.38424   0.00000  Uiso   1.00
F300   F     0.53178   0.42638   0.11576   0.00000  Uiso   1.00
F301   F     0.45517   0.61137   0.04456   0.00000  Uiso   1.00
F302   F     0.54483   0.38863   0.45544   0.00000  Uiso   1.00
O303   O     0.55927   0.37792   0.30161   0.00000  Uiso   1.00
H304   H     0.55145   0.40936   0.30539   0.00000  Uiso   1.00
O305   O     0.44073   0.62208   0.19839   0.00000  Uiso   1.00
H306   H     0.44855   0.59064   0.19461   0.00000  Uiso   1.00
O307   O     0.44081   0.37747   0.19837   0.00000  Uiso   1.00
H308   H     0.44890   0.40878   0.19436   0.00000  Uiso   1.00
O309   O     0.55919   0.62253   0.30163   0.00000  Uiso   1.00
H310   H     0.55110   0.59123   0.30564   0.00000  Uiso   1.00
C311   C     0.75340   0.50000   0.24988   0.00000  Uiso   1.00
C312   C     0.91327   0.50000   0.25012   0.00000  Uiso   1.00
C313   C     0.80310   0.57494   0.02282   0.00000  Uiso   1.00
C314   C     0.86357   0.42506   0.47718   0.00000  Uiso   1.00
C315   C     0.68815   0.45944   0.25459   0.00000  Uiso   1.00
C316   C     0.97852   0.54056   0.24541   0.00000  Uiso   1.00
C317   C     0.97889   0.45945   0.25472   0.00000  Uiso   1.00
C318   C     0.68777   0.54055   0.24528   0.00000  Uiso   1.00
C319   C     0.95749   0.50000   0.25011   0.00000  Uiso   1.00
C320   C     0.70918   0.50000   0.24989   0.00000  Uiso   1.00
C321   C     0.86247   0.35712   0.27505   0.00000  Uiso   1.00
C322   C     0.80419   0.64288   0.22495   0.00000  Uiso   1.00
C323   C     0.80421   0.35688   0.22494   0.00000  Uiso   1.00
C324   C     0.86246   0.64312   0.27506   0.00000  Uiso   1.00
C325   C     0.83360   0.49984   0.16346   0.00000  Uiso   1.00
C326   C     0.83306   0.50016   0.33654   0.00000  Uiso   1.00
C327   C     0.84788   0.46305   0.40759   0.00000  Uiso   1.00
C328   C     0.81878   0.53695   0.09241   0.00000  Uiso   1.00
C329   C     0.83271   0.50048   0.38447   0.00000  Uiso   1.00
C330   C     0.83396   0.49952   0.11553   0.00000  Uiso   1.00
C331   C     0.81742   0.53783   0.40710   0.00000  Uiso   1.00
C332   C     0.84924   0.46217   0.09290   0.00000  Uiso   1.00
C333   C     0.81770   0.53790   0.45335   0.00000  Uiso   1.00
C334   C     0.84897   0.46210   0.04665   0.00000  Uiso   1.00
C335   C     0.83317   0.50009   0.47676   0.00000  Uiso   1.00
C336   C     0.83350   0.49991   0.02324   0.00000  Uiso   1.00
C337   C     0.84827   0.46246   0.45372   0.00000  Uiso   1.00
C338   C     0.81840   0.53754   0.04628   0.00000  Uiso   1.00
C339   C     0.80276   0.57504   0.47655   0.00000  Uiso   1.00
C340   C     0.86391   0.42497   0.02345   0.00000  Uiso   1.00
H341   H     0.85983   0.43456   0.38954   0.00000  Uiso   1.00
H342   H     0.80684   0.56544   0.11046   0.00000  Uiso   1.00
H343   H     0.79084   0.60426   0.45901   0.00000  Uiso   1.00
H344   H     0.87583   0.39574   0.04099   0.00000  Uiso   1.00
H345   H     0.70444   0.42783   0.25833   0.00000  Uiso   1.00
H346   H     0.96223   0.57217   0.24167   0.00000  Uiso   1.00
H347   H     0.96291   0.42784   0.25855   0.00000  Uiso   1.00
H348   H     0.70375   0.57216   0.24145   0.00000  Uiso   1.00
N349   N     0.83333   0.61907   0.25000   0.00000  Uiso   1.00
N350   N     0.83333   0.38093   0.25000   0.00000  Uiso   1.00
O351   O     0.77226   0.53821   0.24999   0.00000  Uiso   1.00
O352   O     0.89441   0.46179   0.25000   0.00000  Uiso   1.00
O353   O     0.89441   0.53821   0.25000   0.00000  Uiso   1.00
O354   O     0.77226   0.46179   0.24999   0.00000  Uiso   1.00
O355   O     0.83333   0.53823   0.18392   0.00000  Uiso   1.00
O356   O     0.83334   0.46177   0.31607   0.00000  Uiso   1.00
O357   O     0.83334   0.53823   0.31607   0.00000  Uiso   1.00
O358   O     0.83333   0.46177   0.18392   0.00000  Uiso   1.00
Zn359  Zn    0.83333   0.55104   0.25000   0.00000  Uiso   1.00
Zn360  Zn    0.83333   0.44896   0.25000   0.00000  Uiso   1.00
F361   F     0.80155   0.57362   0.38424   0.00000  Uiso   1.00
F362   F     0.86511   0.42638   0.11576   0.00000  Uiso   1.00
F363   F     0.78851   0.61137   0.04456   0.00000  Uiso   1.00
F364   F     0.87816   0.38863   0.45544   0.00000  Uiso   1.00
O365   O     0.89261   0.37792   0.30161   0.00000  Uiso   1.00
H366   H     0.88478   0.40936   0.30539   0.00000  Uiso   1.00
O367   O     0.77406   0.62208   0.19839   0.00000  Uiso   1.00
H368   H     0.78188   0.59064   0.19461   0.00000  Uiso   1.00
O369   O     0.77414   0.37747   0.19837   0.00000  Uiso   1.00
H370   H     0.78223   0.40878   0.19436   0.00000  Uiso   1.00
O371   O     0.89252   0.62253   0.30163   0.00000  Uiso   1.00
H372   H     0.88444   0.59123   0.30564   0.00000  Uiso   1.00
C373   C     0.08673   0.83333   0.24988   0.00000  Uiso   1.00
C374   C     0.24660   0.83333   0.25012   0.00000  Uiso   1.00
C375   C     0.13643   0.90827   0.02282   0.00000  Uiso   1.00
C376   C     0.19690   0.75839   0.47718   0.00000  Uiso   1.00
C377   C     0.02148   0.79277   0.25459   0.00000  Uiso   1.00
C378   C     0.31185   0.87389   0.24541   0.00000  Uiso   1.00
C379   C     0.31223   0.79278   0.25472   0.00000  Uiso   1.00
C380   C     0.02110   0.87388   0.24528   0.00000  Uiso   1.00
C381   C     0.29082   0.83334   0.25011   0.00000  Uiso   1.00
C382   C     0.04251   0.83333   0.24989   0.00000  Uiso   1.00
C383   C     0.19581   0.69045   0.27505   0.00000  Uiso   1.00
C384   C     0.13753   0.97621   0.22495   0.00000  Uiso   1.00
C385   C     0.13754   0.69022   0.22494   0.00000  Uiso   1.00
C386   C     0.19579   0.97645   0.27506   0.00000  Uiso   1.00
C387   C     0.16694   0.83317   0.16346   0.00000  Uiso   1.00
C388   C     0.16639   0.83349   0.33654   0.00000  Uiso   1.00
C389   C     0.18122   0.79638   0.40759   0.00000  Uiso   1.00
C390   C     0.15211   0.87028   0.09241   0.00000  Uiso   1.00
C391   C     0.16604   0.83382   0.38447   0.00000  Uiso   1.00
C392   C     0.16729   0.83285   0.11553   0.00000  Uiso   1.00
C393   C     0.15075   0.87117   0.40710   0.00000  Uiso   1.00
C394   C     0.18258   0.79550   0.09290   0.00000  Uiso   1.00
C395   C     0.15103   0.87123   0.45335   0.00000  Uiso   1.00
C396   C     0.18230   0.79544   0.04665   0.00000  Uiso   1.00
C397   C     0.16650   0.83343   0.47676   0.00000  Uiso   1.00
C398   C     0.16683   0.83324   0.02324   0.00000  Uiso   1.00
C399   C     0.18160   0.79580   0.45372   0.00000  Uiso   1.00
C400   C     0.15173   0.87087   0.04628   0.00000  Uiso   1.00
C401   C     0.13609   0.90837   0.47655   0.00000  Uiso   1.00
C402   C     0.19724   0.75830   0.02345   0.00000  Uiso   1.00
H403   H     0.19316   0.76789   0.38954   0.00000  Uiso   1.00
H404   H     0.14017   0.89878   0.11046   0.00000  Uiso   1.00
H405   H     0.12417   0.93759   0.45901   0.00000  Uiso   1.00
H406   H     0.20916   0.72908   0.04099   0.00000  Uiso   1.00
H407   H     0.03777   0.76116   0.25833   0.00000  Uiso   1.00
H408   H     0.29556   0.90551   0.24167   0.00000  Uiso   1.00
H409   H     0.29625   0.76118   0.25855   0.00000  Uiso   1.00
H410   H     0.03709   0.90549   0.24145   0.00000  Uiso   1.00
N411   N     0.16667   0.95240   0.25000   0.00000  Uiso   1.00
N412   N     0.16667   0.71427   0.25000   0.00000  Uiso   1.00
O413   O     0.10559   0.87154   0.24999   0.00000  Uiso   1.00
O414   O     0.22774   0.79513   0.25000   0.00000  Uiso   1.00
O415   O     0.22774   0.87154   0.25000   0.00000  Uiso   1.00
O416   O     0.10559   0.79513   0.24999   0.00000  Uiso   1.00
O417   O     0.16666   0.87156   0.18392   0.00000  Uiso   1.00
O418   O     0.16667   0.79511   0.31607   0.00000  Uiso   1.00
O419   O     0.16667   0.87156   0.31607   0.00000  Uiso   1.00
O420   O     0.16666   0.79511   0.18392   0.00000  Uiso   1.00
Zn421  Zn    0.16667   0.88437   0.25000   0.00000  Uiso   1.00
Zn422  Zn    0.16667   0.78229   0.25000   0.00000  Uiso   1.00
F423   F     0.13489   0.90695   0.38424   0.00000  Uiso   1.00
F424   F     0.19845   0.75972   0.11576   0.00000  Uiso   1.00
F425   F     0.12184   0.94470   0.04456   0.00000  Uiso   1.00
F426   F     0.21149   0.72196   0.45544   0.00000  Uiso   1.00
O427   O     0.22594   0.71125   0.30161   0.00000  Uiso   1.00
H428   H     0.21812   0.74270   0.30539   0.00000  Uiso   1.00
O429   O     0.10739   0.95541   0.19839   0.00000  Uiso   1.00
H430   H     0.11522   0.92397   0.19461   0.00000  Uiso   1.00
O431   O     0.10748   0.71081   0.19837   0.00000  Uiso   1.00
H432   H     0.11556   0.74211   0.19436   0.00000  Uiso   1.00
O433   O     0.22586   0.95586   0.30163   0.00000  Uiso   1.00
H434   H     0.21777   0.92456   0.30564   0.00000  Uiso   1.00
C435   C     0.42006   0.83333   0.24988   0.00000  Uiso   1.00
C436   C     0.57994   0.83333   0.25012   0.00000  Uiso   1.00
C437   C     0.46977   0.90827   0.02282   0.00000  Uiso   1.00
C438   C     0.53023   0.75839   0.47718   0.00000  Uiso   1.00
C439   C     0.35481   0.79277   0.25459   0.00000  Uiso   1.00
C440   C     0.64519   0.87389   0.24541   0.00000  Uiso   1.00
C441   C     0.64556   0.79278   0.25472   0.00000  Uiso   1.00
C442   C     0.35444   0.87388   0.24528   0.00000  Uiso   1.00
C443   C     0.62415   0.83334   0.25011   0.00000  Uiso   1.00
C444   C     0.37585   0.83333   0.24989   0.00000  Uiso   1.00
C445   C     0.52914   0.69045   0.27505   0.00000  Uiso   1.00
C446   C     0.47086   0.97621   0.22495   0.00000  Uiso   1.00
C447   C     0.47088   0.69022   0.22494   0.00000  Uiso   1.00
C448   C     0.52912   0.97645   0.27506   0.00000  Uiso   1.00
C449   C     0.50027   0.83317   0.16346   0.00000  Uiso   1.00
C450   C     0.49973   0.83349   0.33654   0.00000  Uiso   1.00
C451   C     0.51455   0.79638   0.40759   0.00000  Uiso   1.00
C452   C     0.48545   0.87028   0.09241   0.00000  Uiso   1.00
C453   C     0.49938   0.83382   0.38447   0.00000  Uiso   1.00
C454   C     0.50062   0.83285   0.11553   0.00000  Uiso   1.00
C455   C     0.48409   0.87117   0.40710   0.00000  Uiso   1.00
C456   C     0.51591   0.79550   0.09290   0.00000  Uiso   1.00
C457   C     0.48436   0.87123   0.45335   0.00000  Uiso   1.00
C458   C     0.51564   0.79544   0.04665   0.00000  Uiso   1.00
C459   C     0.49983   0.83343   0.47676   0.00000  Uiso   1.00
C460   C     0.50017   0.83324   0.02324   0.00000  Uiso   1.00
C461   C     0.51494   0.79580   0.45372   0.00000  Uiso   1.00
C462   C     0.48506   0.87087   0.04628   0.00000  Uiso   1.00
C463   C     0.46942   0.90837   0.47655   0.00000  Uiso   1.00
C464   C     0.53058   0.75830   0.02345   0.00000  Uiso   1.00
H465   H     0.52650   0.76789   0.38954   0.00000  Uiso   1.00
H466   H     0.47350   0.89878   0.11046   0.00000  Uiso   1.00
H467   H     0.45751   0.93759   0.45901   0.00000  Uiso   1.00
H468   H     0.54249   0.72908   0.04099   0.00000  Uiso   1.00
H469   H     0.37110   0.76116   0.25833   0.00000  Uiso   1.00
H470   H     0.62890   0.90551   0.24167   0.00000  Uiso   1.00
H471   H     0.62958   0.76118   0.25855   0.00000  Uiso   1.00
H472   H     0.37042   0.90549   0.24145   0.00000  Uiso   1.00
N473   N     0.50000   0.95240   0.25000   0.00000  Uiso   1.00
N474   N     0.50000   0.71427   0.25000   0.00000  Uiso   1.00
O475   O     0.43892   0.87154   0.24999   0.00000  Uiso   1.00
O476   O     0.56108   0.79513   0.25000   0.00000  Uiso   1.00
O477   O     0.56108   0.87154   0.25000   0.00000  Uiso   1.00
O478   O     0.43892   0.79513   0.24999   0.00000  Uiso   1.00
O479   O     0.49999   0.87156   0.18392   0.00000  Uiso   1.00
O480   O     0.50001   0.79511   0.31607   0.00000  Uiso   1.00
O481   O     0.50001   0.87156   0.31607   0.00000  Uiso   1.00
O482   O     0.49999   0.79511   0.18392   0.00000  Uiso   1.00
Zn483  Zn    0.50000   0.88437   0.25000   0.00000  Uiso   1.00
Zn484  Zn    0.50000   0.78229   0.25000   0.00000  Uiso   1.00
F485   F     0.46822   0.90695   0.38424   0.00000  Uiso   1.00
F486   F     0.53178   0.75972   0.11576   0.00000  Uiso   1.00
F487   F     0.45517   0.94470   0.04456   0.00000  Uiso   1.00
F488   F     0.54483   0.72196   0.45544   0.00000  Uiso   1.00
O489   O     0.55927   0.71125   0.30161   0.00000  Uiso   1.00
H490   H     0.55145   0.74270   0.30539   0.00000  Uiso   1.00
O491   O     0.44073   0.95541   0.19839   0.00000  Uiso   1.00
H492   H     0.44855   0.92397   0.19461   0.00000  Uiso   1.00
O493   O     0.44081   0.71081   0.19837   0.00000  Uiso   1.00
H494   H     0.44890   0.74211   0.19436   0.00000  Uiso   1.00
O495   O     0.55919   0.95586   0.30163   0.00000  Uiso   1.00
H496   H     0.55110   0.92456   0.30564   0.00000  Uiso   1.00
C497   C     0.75340   0.83333   0.24988   0.00000  Uiso   1.00
C498   C     0.91327   0.83333   0.25012   0.00000  Uiso   1.00
C499   C     0.80310   0.90827   0.02282   0.00000  Uiso   1.00
C500   C     0.86357   0.75839   0.47718   0.00000  Uiso   1.00
C501   C     0.68815   0.79277   0.25459   0.00000  Uiso   1.00
C502   C     0.97852   0.87389   0.24541   0.00000  Uiso   1.00
C503   C     0.97889   0.79278   0.25472   0.00000  Uiso   1.00
C504   C     0.68777   0.87388   0.24528   0.00000  Uiso   1.00
C505   C     0.95749   0.83334   0.25011   0.00000  Uiso   1.00
C506   C     0.70918   0.83333   0.24989   0.00000  Uiso   1.00
C507   C     0.86247   0.69045   0.27505   0.00000  Uiso   1.00
C508   C     0.80419   0.97621   0.22495   0.00000  Uiso   1.00
C509   C     0.80421   0.69022   0.22494   0.00000  Uiso   1.00
C510   C     0.86246   0.97645   0.27506   0.00000  Uiso   1.00
C511   C     0.83360   0.83317   0.16346   0.00000  Uiso   1.00
C512   C     0.83306   0.83349   0.33654   0.00000  Uiso   1.00
C513   C     0.84788   0.79638   0.40759   0.00000  Uiso   1.00
C514   C     0.81878   0.87028   0.09241   0.00000  Uiso   1.00
C515   C     0.83271   0.83382   0.38447   0.00000  Uiso   1.00
C516   C     0.83396   0.83285   0.11553   0.00000  Uiso   1.00
C517   C     0.81742   0.87117   0.40710   0.00000  Uiso   1.00
C518   C     0.84924   0.79550   0.09290   0.00000  Uiso   1.00
C519   C     0.81770   0.87123   0.45335   0.00000  Uiso   1.00
C520   C     0.84897   0.79544   0.04665   0.00000  Uiso   1.00
C521   C     0.83317   0.83343   0.47676   0.00000  Uiso   1.00
C522   C     0.83350   0.83324   0.02324   0.00000  Uiso   1.00
C523   C     0.84827   0.79580   0.45372   0.00000  Uiso   1.00
C524   C     0.81840   0.87087   0.04628   0.00000  Uiso   1.00
C525   C     0.80276   0.90837   0.47655   0.00000  Uiso   1.00
C526   C     0.86391   0.75830   0.02345   0.00000  Uiso   1.00
H527   H     0.85983   0.76789   0.38954   0.00000  Uiso   1.00
H528   H     0.80684   0.89878   0.11046   0.00000  Uiso   1.00
H529   H     0.79084   0.93759   0.45901   0.00000  Uiso   1.00
H530   H     0.87583   0.72908   0.04099   0.00000  Uiso   1.00
H531   H     0.70444   0.76116   0.25833   0.00000  Uiso   1.00
H532   H     0.96223   0.90551   0.24167   0.00000  Uiso   1.00
H533   H     0.96291   0.76118   0.25855   0.00000  Uiso   1.00
H534   H     0.70375   0.90549   0.24145   0.00000  Uiso   1.00
N535   N     0.83333   0.95240   0.25000   0.00000  Uiso   1.00
N536   N     0.83333   0.71427   0.25000   0.00000  Uiso   1.00
O537   O     0.77226   0.87154   0.24999   0.00000  Uiso   1.00
O538   O     0.89441   0.79513   0.25000   0.00000  Uiso   1.00
O539   O     0.89441   0.87154   0.25000   0.00000  Uiso   1.00
O540   O     0.77226   0.79513   0.24999   0.00000  Uiso   1.00
O541   O     0.83333   0.87156   0.18392   0.00000  Uiso   1.00
O542   O     0.83334   0.79511   0.31607   0.00000  Uiso   1.00
O543   O     0.83334   0.87156   0.31607   0.00000  Uiso   1.00
O544   O     0.83333   0.79511   0.18392   0.00000  Uiso   1.00
Zn545  Zn    0.83333   0.88437   0.25000   0.00000  Uiso   1.00
Zn546  Zn    0.83333   0.78229   0.25000   0.00000  Uiso   1.00
F547   F     0.80155   0.90695   0.38424   0.00000  Uiso   1.00
F548   F     0.86511   0.75972   0.11576   0.00000  Uiso   1.00
F549   F     0.78851   0.94470   0.04456   0.00000  Uiso   1.00
F550   F     0.87816   0.72196   0.45544   0.00000  Uiso   1.00
O551   O     0.89261   0.71125   0.30161   0.00000  Uiso   1.00
H552   H     0.88478   0.74270   0.30539   0.00000  Uiso   1.00
O553   O     0.77406   0.95541   0.19839   0.00000  Uiso   1.00
H554   H     0.78188   0.92397   0.19461   0.00000  Uiso   1.00
O555   O     0.77414   0.71081   0.19837   0.00000  Uiso   1.00
H556   H     0.78223   0.74211   0.19436   0.00000  Uiso   1.00
O557   O     0.89252   0.95586   0.30163   0.00000  Uiso   1.00
H558   H     0.88444   0.92456   0.30564   0.00000  Uiso   1.00
C559   C     0.08673   0.16667   0.74988   0.00000  Uiso   1.00
C560   C     0.24660   0.16667   0.75012   0.00000  Uiso   1.00
C561   C     0.13643   0.24161   0.52282   0.00000  Uiso   1.00
C562   C     0.19690   0.09173   0.97718   0.00000  Uiso   1.00
C563   C     0.02148   0.12611   0.75459   0.00000  Uiso   1.00
C564   C     0.31185   0.20723   0.74541   0.00000  Uiso   1.00
C565   C     0.31223   0.12612   0.75472   0.00000  Uiso   1.00
C566   C     0.02110   0.20722   0.74528   0.00000  Uiso   1.00
C567   C     0.29082   0.16667   0.75011   0.00000  Uiso   1.00
C568   C     0.04251   0.16666   0.74989   0.00000  Uiso   1.00
C569   C     0.19581   0.02379   0.77505   0.00000  Uiso   1.00
C570   C     0.13753   0.30955   0.72495   0.00000  Uiso   1.00
C571   C     0.13754   0.02355   0.72494   0.00000  Uiso   1.00
C572   C     0.19579   0.30978   0.77506   0.00000  Uiso   1.00
C573   C     0.16694   0.16651   0.66346   0.00000  Uiso   1.00
C574   C     0.16639   0.16683   0.83654   0.00000  Uiso   1.00
C575   C     0.18122   0.12972   0.90759   0.00000  Uiso   1.00
C576   C     0.15211   0.20362   0.59241   0.00000  Uiso   1.00
C577   C     0.16604   0.16715   0.88447   0.00000  Uiso   1.00
C578   C     0.16729   0.16618   0.61553   0.00000  Uiso   1.00
C579   C     0.15075   0.20450   0.90710   0.00000  Uiso   1.00
C580   C     0.18258   0.12883   0.59290   0.00000  Uiso   1.00
C581   C     0.15103   0.20456   0.95335   0.00000  Uiso   1.00
C582   C     0.18230   0.12877   0.54665   0.00000  Uiso   1.00
C583   C     0.16650   0.16676   0.97676   0.00000  Uiso   1.00
C584   C     0.16683   0.16657   0.52324   0.00000  Uiso   1.00
C585   C     0.18160   0.12913   0.95372   0.00000  Uiso   1.00
C586   C     0.15173   0.20420   0.54628   0.00000  Uiso   1.00
C587   C     0.13609   0.24170   0.97655   0.00000  Uiso   1.00
C588   C     0.19724   0.09163   0.52345   0.00000  Uiso   1.00
H589   H     0.19316   0.10122   0.88954   0.00000  Uiso   1.00
H590   H     0.14017   0.23211   0.61046   0.00000  Uiso   1.00
H591   H     0.12417   0.27092   0.95901   0.00000  Uiso   1.00
H592   H     0.20916   0.06241   0.54099   0.00000  Uiso   1.00
H593   H     0.03777   0.09449   0.75833   0.00000  Uiso   1.00
H594   H     0.29556   0.23884   0.74167   0.00000  Uiso   1.00
H595   H     0.29625   0.09451   0.75855   0.00000  Uiso   1.00
H596   H     0.03709   0.23882   0.74145   0.00000  Uiso   1.00
N597   N     0.16667   0.28573   0.75000   0.00000  Uiso   1.00
N598   N     0.16667   0.04760   0.75000   0.00000  Uiso   1.00
O599   O     0.10559   0.20487   0.74999   0.00000  Uiso   1.00
O600   O     0.22774   0.12846   0.75000   0.00000  Uiso   1.00
O601   O     0.22774   0.20487   0.75000   0.00000  Uiso   1.00
O602   O     0.10559   0.12846   0.74999   0.00000  Uiso   1.00
O603   O     0.16666   0.20489   0.68392   0.00000  Uiso   1.00
O604   O     0.16667   0.12844   0.81607   0.00000  Uiso   1.00
O605   O     0.16667   0.20489   0.81607   0.00000  Uiso   1.00
O606   O     0.16666   0.12844   0.68392   0.00000  Uiso   1.00
Zn607  Zn    0.16667   0.21771   0.75000   0.00000  Uiso   1.00
Zn608  Zn    0.16667   0.11563   0.75000   0.00000  Uiso   1.00
F609   F     0.13489   0.24028   0.88424   0.00000  Uiso   1.00
F610   F     0.19845   0.09305   0.61576   0.00000  Uiso   1.00
F611   F     0.12184   0.27804   0.54456   0.00000  Uiso   1.00
F612   F     0.21149   0.05530   0.95544   0.00000  Uiso   1.00
O613   O     0.22594   0.04459   0.80161   0.00000  Uiso   1.00
H614   H     0.21812   0.07603   0.80539   0.00000  Uiso   1.00
O615   O     0.10739   0.28875   0.69839   0.00000  Uiso   1.00
H616   H     0.11522   0.25730   0.69461   0.00000  Uiso   1.00
O617   O     0.10748   0.04414   0.69837   0.00000  Uiso   1.00
H618   H     0.11556   0.07544   0.69436   0.00000  Uiso   1.00
O619   O     0.22586   0.28919   0.80163   0.00000  Uiso   1.00
H620   H     0.21777   0.25789   0.80564   0.00000  Uiso   1.00
C621   C     0.42006   0.16667   0.74988   0.00000  Uiso   1.00
C622   C     0.57994   0.16667   0.75012   0.00000  Uiso   1.00
C623   C     0.46977   0.24161   0.52282   0.00000  Uiso   1.00
C624   C     0.53023   0.09173   0.97718   0.00000  Uiso   1.00
C625   C     0.35481   0.12611   0.75459   0.00000  Uiso   1.00
C626   C     0.64519   0.20723   0.74541   0.00000  Uiso   1.00
C627   C     0.64556   0.12612   0.75472   0.00000  Uiso   1.00
C628   C     0.35444   0.20722   0.74528   0.00000  Uiso   1.00
C629   C     0.62415   0.16667   0.75011   0.00000  Uiso   1.00
C630   C     0.37585   0.16666   0.74989   0.00000  Uiso   1.00
C631   C     0.52914   0.02379   0.77505   0.00000  Uiso   1.00
C632   C     0.47086   0.30955   0.72495   0.00000  Uiso   1.00
C633   C     0.47088   0.02355   0.72494   0.00000  Uiso   1.00
C634   C     0.52912   0.30978   0.77506   0.00000  Uiso   1.00
C635   C     0.50027   0.16651   0.66346   0.00000  Uiso   1.00
C636   C     0.49973   0.16683   0.83654   0.00000  Uiso   1.00
C637   C     0.51455   0.12972   0.90759   0.00000  Uiso   1.00
C638   C     0.48545   0.20362   0.59241   0.00000  Uiso   1.00
C639   C     0.49938   0.16715   0.88447   0.00000  Uiso   1.00
C640   C     0.50062   0.16618   0.61553   0.00000  Uiso   1.00
C641   C     0.48409   0.20450   0.90710   0.00000  Uiso   1.00
C642   C     0.51591   0.12883   0.59290   0.00000  Uiso   1.00
C643   C     0.48436   0.20456   0.95335   0.00000  Uiso   1.00
C644   C     0.51564   0.12877   0.54665   0.00000  Uiso   1.00
C645   C     0.49983   0.16676   0.97676   0.00000  Uiso   1.00
C646   C     0.50017   0.16657   0.52324   0.00000  Uiso   1.00
C647   C     0.51494   0.12913   0.95372   0.00000  Uiso   1.00
C648   C     0.48506   0.20420   0.54628   0.00000  Uiso   1.00
C649   C     0.46942   0.24170   0.97655   0.00000  Uiso   1.00
C650   C     0.53058   0.09163   0.52345   0.00000  Uiso   1.00
H651   H     0.52650   0.10122   0.88954   0.00000  Uiso   1.00
H652   H     0.47350   0.23211   0.61046   0.00000  Uiso   1.00
H653   H     0.45751   0.27092   0.95901   0.00000  Uiso   1.00
H654   H     0.54249   0.06241   0.54099   0.00000  Uiso   1.00
H655   H     0.37110   0.09449   0.75833   0.00000  Uiso   1.00
H656   H     0.62890   0.23884   0.74167   0.00000  Uiso   1.00
H657   H     0.62958   0.09451   0.75855   0.00000  Uiso   1.00
H658   H     0.37042   0.23882   0.74145   0.00000  Uiso   1.00
N659   N     0.50000   0.28573   0.75000   0.00000  Uiso   1.00
N660   N     0.50000   0.04760   0.75000   0.00000  Uiso   1.00
O661   O     0.43892   0.20487   0.74999   0.00000  Uiso   1.00
O662   O     0.56108   0.12846   0.75000   0.00000  Uiso   1.00
O663   O     0.56108   0.20487   0.75000   0.00000  Uiso   1.00
O664   O     0.43892   0.12846   0.74999   0.00000  Uiso   1.00
O665   O     0.49999   0.20489   0.68392   0.00000  Uiso   1.00
O666   O     0.50001   0.12844   0.81607   0.00000  Uiso   1.00
O667   O     0.50001   0.20489   0.81607   0.00000  Uiso   1.00
O668   O     0.49999   0.12844   0.68392   0.00000  Uiso   1.00
Zn669  Zn    0.50000   0.21771   0.75000   0.00000  Uiso   1.00
Zn670  Zn    0.50000   0.11563   0.75000   0.00000  Uiso   1.00
F671   F     0.46822   0.24028   0.88424   0.00000  Uiso   1.00
F672   F     0.53178   0.09305   0.61576   0.00000  Uiso   1.00
F673   F     0.45517   0.27804   0.54456   0.00000  Uiso   1.00
F674   F     0.54483   0.05530   0.95544   0.00000  Uiso   1.00
O675   O     0.55927   0.04459   0.80161   0.00000  Uiso   1.00
H676   H     0.55145   0.07603   0.80539   0.00000  Uiso   1.00
O677   O     0.44073   0.28875   0.69839   0.00000  Uiso   1.00
H678   H     0.44855   0.25730   0.69461   0.00000  Uiso   1.00
O679   O     0.44081   0.04414   0.69837   0.00000  Uiso   1.00
H680   H     0.44890   0.07544   0.69436   0.00000  Uiso   1.00
O681   O     0.55919   0.28919   0.80163   0.00000  Uiso   1.00
H682   H     0.55110   0.25789   0.80564   0.00000  Uiso   1.00
C683   C     0.75340   0.16667   0.74988   0.00000  Uiso   1.00
C684   C     0.91327   0.16667   0.75012   0.00000  Uiso   1.00
C685   C     0.80310   0.24161   0.52282   0.00000  Uiso   1.00
C686   C     0.86357   0.09173   0.97718   0.00000  Uiso   1.00
C687   C     0.68815   0.12611   0.75459   0.00000  Uiso   1.00
C688   C     0.97852   0.20723   0.74541   0.00000  Uiso   1.00
C689   C     0.97889   0.12612   0.75472   0.00000  Uiso   1.00
C690   C     0.68777   0.20722   0.74528   0.00000  Uiso   1.00
C691   C     0.95749   0.16667   0.75011   0.00000  Uiso   1.00
C692   C     0.70918   0.16666   0.74989   0.00000  Uiso   1.00
C693   C     0.86247   0.02379   0.77505   0.00000  Uiso   1.00
C694   C     0.80419   0.30955   0.72495   0.00000  Uiso   1.00
C695   C     0.80421   0.02355   0.72494   0.00000  Uiso   1.00
C696   C     0.86246   0.30978   0.77506   0.00000  Uiso   1.00
C697   C     0.83360   0.16651   0.66346   0.00000  Uiso   1.00
C698   C     0.83306   0.16683   0.83654   0.00000  Uiso   1.00
C699   C     0.84788   0.12972   0.90759   0.00000  Uiso   1.00
C700   C     0.81878   0.20362   0.59241   0.00000  Uiso   1.00
C701   C     0.83271   0.16715   0.88447   0.00000  Uiso   1.00
C702   C     0.83396   0.16618   0.61553   0.00000  Uiso   1.00
C703   C     0.81742   0.20450   0.90710   0.00000  Uiso   1.00
C704   C     0.84924   0.12883   0.59290   0.00000  Uiso   1.00
C705   C     0.81770   0.20456   0.95335   0.00000  Uiso   1.00
C706   C     0.84897   0.12877   0.54665   0.00000  Uiso   1.00
C707   C     0.83317   0.16676   0.97676   0.00000  Uiso   1.00
C708   C     0.83350   0.16657   0.52324   0.00000  Uiso   1.00
C709   C     0.84827   0.12913   0.95372   0.00000  Uiso   1.00
C710   C     0.81840   0.20420   0.54628   0.00000  Uiso   1.00
C711   C     0.80276   0.24170   0.97655   0.00000  Uiso   1.00
C712   C     0.86391   0.09163   0.52345   0.00000  Uiso   1.00
H713   H     0.85983   0.10122   0.88954   0.00000  Uiso   1.00
H714   H     0.80684   0.23211   0.61046   0.00000  Uiso   1.00
H715   H     0.79084   0.27092   0.95901   0.00000  Uiso   1.00
H716   H     0.87583   0.06241   0.54099   0.00000  Uiso   1.00
H717   H     0.70444   0.09449   0.75833   0.00000  Uiso   1.00
H718   H     0.96223   0.23884   0.74167   0.00000  Uiso   1.00
H719   H     0.96291   0.09451   0.75855   0.00000  Uiso   1.00
H720   H     0.70375   0.23882   0.74145   0.00000  Uiso   1.00
N721   N     0.83333   0.28573   0.75000   0.00000  Uiso   1.00
N722   N     0.83333   0.04760   0.75000   0.00000  Uiso   1.00
O723   O     0.77226   0.20487   0.74999   0.00000  Uiso   1.00
O724   O     0.89441   0.12846   0.75000   0.00000  Uiso   1.00
O725   O     0.89441   0.20487   0.75000   0.00000  Uiso   1.00
O726   O     0.77226   0.12846   0.74999   0.00000  Uiso   1.00
O727   O     0.83333   0.20489   0.68392   0.00000  Uiso   1.00
O728   O     0.83334   0.12844   0.81607   0.00000  Uiso   1.00
O729   O     0.83334   0.20489   0.81607   0.00000  Uiso   1.00
O730   O     0.83333   0.12844   0.68392   0.00000  Uiso   1.00
Zn731  Zn    0.83333   0.21771   0.75000   0.00000  Uiso   1.00
Zn732  Zn    0.83333   0.11563   0.75000   0.00000  Uiso   1.00
F733   F     0.80155   0.24028   0.88424   0.00000  Uiso   1.00
F734   F     0.86511   0.09305   0.61576   0.00000  Uiso   1.00
F735   F     0.78851   0.27804   0.54456   0.00000  Uiso   1.00
F736   F     0.87816   0.05530   0.95544   0.00000  Uiso   1.00
O737   O     0.89261   0.04459   0.80161   0.00000  Uiso   1.00
H738   H     0.88478   0.07603   0.80539   0.00000  Uiso   1.00
O739   O     0.77406   0.28875   0.69839   0.00000  Uiso   1.00
H740   H     0.78188   0.25730   0.69461   0.00000  Uiso   1.00
O741   O     0.77414   0.04414   0.69837   0.00000  Uiso   1.00
H742   H     0.78223   0.07544   0.69436   0.00000  Uiso   1.00
O743   O     0.89252   0.28919   0.80163   0.00000  Uiso   1.00
H744   H     0.88444   0.25789   0.80564   0.00000  Uiso   1.00
C745   C     0.08673   0.50000   0.74988   0.00000  Uiso   1.00
C746   C     0.24660   0.50000   0.75012   0.00000  Uiso   1.00
C747   C     0.13643   0.57494   0.52282   0.00000  Uiso   1.00
C748   C     0.19690   0.42506   0.97718   0.00000  Uiso   1.00
C749   C     0.02148   0.45944   0.75459   0.00000  Uiso   1.00
C750   C     0.31185   0.54056   0.74541   0.00000  Uiso   1.00
C751   C     0.31223   0.45945   0.75472   0.00000  Uiso   1.00
C752   C     0.02110   0.54055   0.74528   0.00000  Uiso   1.00
C753   C     0.29082   0.50000   0.75011   0.00000  Uiso   1.00
C754   C     0.04251   0.50000   0.74989   0.00000  Uiso   1.00
C755   C     0.19581   0.35712   0.77505   0.00000  Uiso   1.00
C756   C     0.13753   0.64288   0.72495   0.00000  Uiso   1.00
C757   C     0.13754   0.35688   0.72494   0.00000  Uiso   1.00
C758   C     0.19579   0.64312   0.77506   0.00000  Uiso   1.00
C759   C     0.16694   0.49984   0.66346   0.00000  Uiso   1.00
C760   C     0.16639   0.50016   0.83654   0.00000  Uiso   1.00
C761   C     0.18122   0.46305   0.90759   0.00000  Uiso   1.00
C762   C     0.15211   0.53695   0.59241   0.00000  Uiso   1.00
C763   C     0.16604   0.50048   0.88447   0.00000  Uiso   1.00
C764   C     0.16729   0.49952   0.61553   0.00000  Uiso   1.00
C765   C     0.15075   0.53783   0.90710   0.00000  Uiso   1.00
C766   C     0.18258   0.46217   0.59290   0.00000  Uiso   1.00
C767   C     0.15103   0.53790   0.95335   0.00000  Uiso   1.00
C768   C     0.18230   0.46210   0.54665   0.00000  Uiso   1.00
C769   C     0.16650   0.50009   0.97676   0.00000  Uiso   1.00
C770   C     0.16683   0.49991   0.52324   0.00000  Uiso   1.00
C771   C     0.18160   0.46246   0.95372   0.00000  Uiso   1.00
C772   C     0.15173   0.53754   0.54628   0.00000  Uiso   1.00
C773   C     0.13609   0.57504   0.97655   0.00000  Uiso   1.00
C774   C     0.19724   0.42497   0.52345   0.00000  Uiso   1.00
H775   H     0.19316   0.43456   0.88954   0.00000  Uiso   1.00
H776   H     0.14017   0.56544   0.61046   0.00000  Uiso   1.00
H777   H     0.12417   0.60426   0.95901   0.00000  Uiso   1.00
H778   H     0.20916   0.39574   0.54099   0.00000  Uiso   1.00
H779   H     0.03777   0.42783   0.75833   0.00000  Uiso   1.00
H780   H     0.29556   0.57217   0.74167   0.00000  Uiso   1.00
H781   H     0.29625   0.42784   0.75855   0.00000  Uiso   1.00
H782   H     0.03709   0.57216   0.74145   0.00000  Uiso   1.00
N783   N     0.16667   0.61907   0.75000   0.00000  Uiso   1.00
N784   N     0.16667   0.38093   0.75000   0.00000  Uiso   1.00
O785   O     0.10559   0.53821   0.74999   0.00000  Uiso   1.00
O786   O     0.22774   0.46179   0.75000   0.00000  Uiso   1.00
O787   O     0.22774   0.53821   0.75000   0.00000  Uiso   1.00
O788   O     0.10559   0.46179   0.74999   0.00000  Uiso   1.00
O789   O     0.16666   0.53823   0.68392   0.00000  Uiso   1.00
O790   O     0.16667   0.46177   0.81607   0.00000  Uiso   1.00
O791   O     0.16667   0.53823   0.81607   0.00000  Uiso   1.00
O792   O     0.16666   0.46177   0.68392   0.00000  Uiso   1.00
Zn793  Zn    0.16667   0.55104   0.75000   0.00000  Uiso   1.00
Zn794  Zn    0.16667   0.44896   0.75000   0.00000  Uiso   1.00
F795   F     0.13489   0.57362   0.88424   0.00000  Uiso   1.00
F796   F     0.19845   0.42638   0.61576   0.00000  Uiso   1.00
F797   F     0.12184   0.61137   0.54456   0.00000  Uiso   1.00
F798   F     0.21149   0.38863   0.95544   0.00000  Uiso   1.00
O799   O     0.22594   0.37792   0.80161   0.00000  Uiso   1.00
H800   H     0.21812   0.40936   0.80539   0.00000  Uiso   1.00
O801   O     0.10739   0.62208   0.69839   0.00000  Uiso   1.00
H802   H     0.11522   0.59064   0.69461   0.00000  Uiso   1.00
O803   O     0.10748   0.37747   0.69837   0.00000  Uiso   1.00
H804   H     0.11556   0.40878   0.69436   0.00000  Uiso   1.00
O805   O     0.22586   0.62253   0.80163   0.00000  Uiso   1.00
H806   H     0.21777   0.59123   0.80564   0.00000  Uiso   1.00
C807   C     0.42006   0.50000   0.74988   0.00000  Uiso   1.00
C808   C     0.57994   0.50000   0.75012   0.00000  Uiso   1.00
C809   C     0.46977   0.57494   0.52282   0.00000  Uiso   1.00
C810   C     0.53023   0.42506   0.97718   0.00000  Uiso   1.00
C811   C     0.35481   0.45944   0.75459   0.00000  Uiso   1.00
C812   C     0.64519   0.54056   0.74541   0.00000  Uiso   1.00
C813   C     0.64556   0.45945   0.75472   0.00000  Uiso   1.00
C814   C     0.35444   0.54055   0.74528   0.00000  Uiso   1.00
C815   C     0.62415   0.50000   0.75011   0.00000  Uiso   1.00
C816   C     0.37585   0.50000   0.74989   0.00000  Uiso   1.00
C817   C     0.52914   0.35712   0.77505   0.00000  Uiso   1.00
C818   C     0.47086   0.64288   0.72495   0.00000  Uiso   1.00
C819   C     0.47088   0.35688   0.72494   0.00000  Uiso   1.00
C820   C     0.52912   0.64312   0.77506   0.00000  Uiso   1.00
C821   C     0.50027   0.49984   0.66346   0.00000  Uiso   1.00
C822   C     0.49973   0.50016   0.83654   0.00000  Uiso   1.00
C823   C     0.51455   0.46305   0.90759   0.00000  Uiso   1.00
C824   C     0.48545   0.53695   0.59241   0.00000  Uiso   1.00
C825   C     0.49938   0.50048   0.88447   0.00000  Uiso   1.00
C826   C     0.50062   0.49952   0.61553   0.00000  Uiso   1.00
C827   C     0.48409   0.53783   0.90710   0.00000  Uiso   1.00
C828   C     0.51591   0.46217   0.59290   0.00000  Uiso   1.00
C829   C     0.48436   0.53790   0.95335   0.00000  Uiso   1.00
C830   C     0.51564   0.46210   0.54665   0.00000  Uiso   1.00
C831   C     0.49983   0.50009   0.97676   0.00000  Uiso   1.00
C832   C     0.50017   0.49991   0.52324   0.00000  Uiso   1.00
C833   C     0.51494   0.46246   0.95372   0.00000  Uiso   1.00
C834   C     0.48506   0.53754   0.54628   0.00000  Uiso   1.00
C835   C     0.46942   0.57504   0.97655   0.00000  Uiso   1.00
C836   C     0.53058   0.42497   0.52345   0.00000  Uiso   1.00
H837   H     0.52650   0.43456   0.88954   0.00000  Uiso   1.00
H838   H     0.47350   0.56544   0.61046   0.00000  Uiso   1.00
H839   H     0.45751   0.60426   0.95901   0.00000  Uiso   1.00
H840   H     0.54249   0.39574   0.54099   0.00000  Uiso   1.00
H841   H     0.37110   0.42783   0.75833   0.00000  Uiso   1.00
H842   H     0.62890   0.57217   0.74167   0.00000  Uiso   1.00
H843   H     0.62958   0.42784   0.75855   0.00000  Uiso   1.00
H844   H     0.37042   0.57216   0.74145   0.00000  Uiso   1.00
N845   N     0.50000   0.61907   0.75000   0.00000  Uiso   1.00
N846   N     0.50000   0.38093   0.75000   0.00000  Uiso   1.00
O847   O     0.43892   0.53821   0.74999   0.00000  Uiso   1.00
O848   O     0.56108   0.46179   0.75000   0.00000  Uiso   1.00
O849   O     0.56108   0.53821   0.75000   0.00000  Uiso   1.00
O850   O     0.43892   0.46179   0.74999   0.00000  Uiso   1.00
O851   O     0.49999   0.53823   0.68392   0.00000  Uiso   1.00
O852   O     0.50001   0.46177   0.81607   0.00000  Uiso   1.00
O853   O     0.50001   0.53823   0.81607   0.00000  Uiso   1.00
O854   O     0.49999   0.46177   0.68392   0.00000  Uiso   1.00
Zn855  Zn    0.50000   0.55104   0.75000   0.00000  Uiso   1.00
Zn856  Zn    0.50000   0.44896   0.75000   0.00000  Uiso   1.00
F857   F     0.46822   0.57362   0.88424   0.00000  Uiso   1.00
F858   F     0.53178   0.42638   0.61576   0.00000  Uiso   1.00
F859   F     0.45517   0.61137   0.54456   0.00000  Uiso   1.00
F860   F     0.54483   0.38863   0.95544   0.00000  Uiso   1.00
O861   O     0.55927   0.37792   0.80161   0.00000  Uiso   1.00
H862   H     0.55145   0.40936   0.80539   0.00000  Uiso   1.00
O863   O     0.44073   0.62208   0.69839   0.00000  Uiso   1.00
H864   H     0.44855   0.59064   0.69461   0.00000  Uiso   1.00
O865   O     0.44081   0.37747   0.69837   0.00000  Uiso   1.00
H866   H     0.44890   0.40878   0.69436   0.00000  Uiso   1.00
O867   O     0.55919   0.62253   0.80163   0.00000  Uiso   1.00
H868   H     0.55110   0.59123   0.80564   0.00000  Uiso   1.00
C869   C     0.75340   0.50000   0.74988   0.00000  Uiso   1.00
C870   C     0.91327   0.50000   0.75012   0.00000  Uiso   1.00
C871   C     0.80310   0.57494   0.52282   0.00000  Uiso   1.00
C872   C     0.86357   0.42506   0.97718   0.00000  Uiso   1.00
C873   C     0.68815   0.45944   0.75459   0.00000  Uiso   1.00
C874   C     0.97852   0.54056   0.74541   0.00000  Uiso   1.00
C875   C     0.97889   0.45945   0.75472   0.00000  Uiso   1.00
C876   C     0.68777   0.54055   0.74528   0.00000  Uiso   1.00
C877   C     0.95749   0.50000   0.75011   0.00000  Uiso   1.00
C878   C     0.70918   0.50000   0.74989   0.00000  Uiso   1.00
C879   C     0.86247   0.35712   0.77505   0.00000  Uiso   1.00
C880   C     0.80419   0.64288   0.72495   0.00000  Uiso   1.00
C881   C     0.80421   0.35688   0.72494   0.00000  Uiso   1.00
C882   C     0.86246   0.64312   0.77506   0.00000  Uiso   1.00
C883   C     0.83360   0.49984   0.66346   0.00000  Uiso   1.00
C884   C     0.83306   0.50016   0.83654   0.00000  Uiso   1.00
C885   C     0.84788   0.46305   0.90759   0.00000  Uiso   1.00
C886   C     0.81878   0.53695   0.59241   0.00000  Uiso   1.00
C887   C     0.83271   0.50048   0.88447   0.00000  Uiso   1.00
C888   C     0.83396   0.49952   0.61553   0.00000  Uiso   1.00
C889   C     0.81742   0.53783   0.90710   0.00000  Uiso   1.00
C890   C     0.84924   0.46217   0.59290   0.00000  Uiso   1.00
C891   C     0.81770   0.53790   0.95335   0.00000  Uiso   1.00
C892   C     0.84897   0.46210   0.54665   0.00000  Uiso   1.00
C893   C     0.83317   0.50009   0.97676   0.00000  Uiso   1.00
C894   C     0.83350   0.49991   0.52324   0.00000  Uiso   1.00
C895   C     0.84827   0.46246   0.95372   0.00000  Uiso   1.00
C896   C     0.81840   0.53754   0.54628   0.00000  Uiso   1.00
C897   C     0.80276   0.57504   0.97655   0.00000  Uiso   1.00
C898   C     0.86391   0.42497   0.52345   0.00000  Uiso   1.00
H899   H     0.85983   0.43456   0.88954   0.00000  Uiso   1.00
H900   H     0.80684   0.56544   0.61046   0.00000  Uiso   1.00
H901   H     0.79084   0.60426   0.95901   0.00000  Uiso   1.00
H902   H     0.87583   0.39574   0.54099   0.00000  Uiso   1.00
H903   H     0.70444   0.42783   0.75833   0.00000  Uiso   1.00
H904   H     0.96223   0.57217   0.74167   0.00000  Uiso   1.00
H905   H     0.96291   0.42784   0.75855   0.00000  Uiso   1.00
H906   H     0.70375   0.57216   0.74145   0.00000  Uiso   1.00
N907   N     0.83333   0.61907   0.75000   0.00000  Uiso   1.00
N908   N     0.83333   0.38093   0.75000   0.00000  Uiso   1.00
O909   O     0.77226   0.53821   0.74999   0.00000  Uiso   1.00
O910   O     0.89441   0.46179   0.75000   0.00000  Uiso   1.00
O911   O     0.89441   0.53821   0.75000   0.00000  Uiso   1.00
O912   O     0.77226   0.46179   0.74999   0.00000  Uiso   1.00
O913   O     0.83333   0.53823   0.68392   0.00000  Uiso   1.00
O914   O     0.83334   0.46177   0.81607   0.00000  Uiso   1.00
O915   O     0.83334   0.53823   0.81607   0.00000  Uiso   1.00
O916   O     0.83333   0.46177   0.68392   0.00000  Uiso   1.00
Zn917  Zn    0.83333   0.55104   0.75000   0.00000  Uiso   1.00
Zn918  Zn    0.83333   0.44896   0.75000   0.00000  Uiso   1.00
F919   F     0.80155   0.57362   0.88424   0.00000  Uiso   1.00
F920   F     0.86511   0.42638   0.61576   0.00000  Uiso   1.00
F921   F     0.78851   0.61137   0.54456   0.00000  Uiso   1.00
F922   F     0.87816   0.38863   0.95544   0.00000  Uiso   1.00
O923   O     0.89261   0.37792   0.80161   0.00000  Uiso   1.00
H924   H     0.88478   0.40936   0.80539   0.00000  Uiso   1.00
O925   O     0.77406   0.62208   0.69839   0.00000  Uiso   1.00
H926   H     0.78188   0.59064   0.69461   0.00000  Uiso   1.00
O927   O     0.77414   0.37747   0.69837   0.00000  Uiso   1.00
H928   H     0.78223   0.40878   0.69436   0.00000  Uiso   1.00
O929   O     0.89252   0.62253   0.80163   0.00000  Uiso   1.00
H930   H     0.88444   0.59123   0.80564   0.00000  Uiso   1.00
C931   C     0.08673   0.83333   0.74988   0.00000  Uiso   1.00
C932   C     0.24660   0.83333   0.75012   0.00000  Uiso   1.00
C933   C     0.13643   0.90827   0.52282   0.00000  Uiso   1.00
C934   C     0.19690   0.75839   0.97718   0.00000  Uiso   1.00
C935   C     0.02148   0.79277   0.75459   0.00000  Uiso   1.00
C936   C     0.31185   0.87389   0.74541   0.00000  Uiso   1.00
C937   C     0.31223   0.79278   0.75472   0.00000  Uiso   1.00
C938   C     0.02110   0.87388   0.74528   0.00000  Uiso   1.00
C939   C     0.29082   0.83334   0.75011   0.00000  Uiso   1.00
C940   C     0.04251   0.83333   0.74989   0.00000  Uiso   1.00
C941   C     0.19581   0.69045   0.77505   0.00000  Uiso   1.00
C942   C     0.13753   0.97621   0.72495   0.00000  Uiso   1.00
C943   C     0.13754   0.69022   0.72494   0.00000  Uiso   1.00
C944   C     0.19579   0.97645   0.77506   0.00000  Uiso   1.00
C945   C     0.16694   0.83317   0.66346   0.00000  Uiso   1.00
C946   C     0.16639   0.83349   0.83654   0.00000  Uiso   1.00
C947   C     0.18122   0.79638   0.90759   0.00000  Uiso   1.00
C948   C     0.15211   0.87028   0.59241   0.00000  Uiso   1.00
C949   C     0.16604   0.83382   0.88447   0.00000  Uiso   1.00
C950   C     0.16729   0.83285   0.61553   0.00000  Uiso   1.00
C951   C     0.15075   0.87117   0.90710   0.00000  Uiso   1.00
C952   C     0.18258   0.79550   0.59290   0.00000  Uiso   1.00
C953   C     0.15103   0.87123   0.95335   0.00000  Uiso   1.00
C954   C     0.18230   0.79544   0.54665   0.00000  Uiso   1.00
C955   C     0.16650   0.83343   0.97676   0.00000  Uiso   1.00
C956   C     0.16683   0.83324   0.52324   0.00000  Uiso   1.00
C957   C     0.18160   0.79580   0.95372   0.00000  Uiso   1.00
C958   C     0.15173   0.87087   0.54628   0.00000  Uiso   1.00
C959   C     0.13609   0.90837   0.97655   0.00000  Uiso   1.00
C960   C     0.19724   0.75830   0.52345   0.00000  Uiso   1.00
H961   H     0.19316   0.76789   0.88954   0.00000  Uiso   1.00
H962   H     0.14017   0.89878   0.61046   0.00000  Uiso   1.00
H963   H     0.12417   0.93759   0.95901   0.00000  Uiso   1.00
H964   H     0.20916   0.72908   0.54099   0.00000  Uiso   1.00
H965   H     0.03777   0.76116   0.75833   0.00000  Uiso   1.00
H966   H     0.29556   0.90551   0.74167   0.00000  Uiso   1.00
H967   H     0.29625   0.76118   0.75855   0.00000  Uiso   1.00
H968   H     0.03709   0.90549   0.74145   0.00000  Uiso   1.00
N969   N     0.16667   0.95240   0.75000   0.00000  Uiso   1.00
N970   N     0.16667   0.71427   0.75000   0.00000  Uiso   1.00
O971   O     0.10559   0.87154   0.74999   0.00000  Uiso   1.00
O972   O     0.22774   0.79513   0.75000   0.00000  Uiso   1.00
O973   O     0.22774   0.87154   0.75000   0.00000  Uiso   1.00
O974   O     0.10559   0.79513   0.74999   0.00000  Uiso   1.00
O975   O     0.16666   0.87156   0.68392   0.00000  Uiso   1.00
O976   O     0.16667   0.79511   0.81607   0.00000  Uiso   1.00
O977   O     0.16667   0.87156   0.81607   0.00000  Uiso   1.00
O978   O     0.16666   0.79511   0.68392   0.00000  Uiso   1.00
Zn979  Zn    0.16667   0.88437   0.75000   0.00000  Uiso   1.00
Zn980  Zn    0.16667   0.78229   0.75000   0.00000  Uiso   1.00
F981   F     0.13489   0.90695   0.88424   0.00000  Uiso   1.00
F982   F     0.19845   0.75972   0.61576   0.00000  Uiso   1.00
F983   F     0.12184   0.94470   0.54456   0.00000  Uiso   1.00
F984   F     0.21149   0.72196   0.95544   0.00000  Uiso   1.00
O985   O     0.22594   0.71125   0.80161   0.00000  Uiso   1.00
H986   H     0.21812   0.74270   0.80539   0.00000  Uiso   1.00
O987   O     0.10739   0.95541   0.69839   0.00000  Uiso   1.00
H988   H     0.11522   0.92397   0.69461   0.00000  Uiso   1.00
O989   O     0.10748   0.71081   0.69837   0.00000  Uiso   1.00
H990   H     0.11556   0.74211   0.69436   0.00000  Uiso   1.00
O991   O     0.22586   0.95586   0.80163   0.00000  Uiso   1.00
H992   H     0.21777   0.92456   0.80564   0.00000  Uiso   1.00
C993   C     0.42006   0.83333   0.74988   0.00000  Uiso   1.00
C994   C     0.57994   0.83333   0.75012   0.00000  Uiso   1.00
C995   C     0.46977   0.90827   0.52282   0.00000  Uiso   1.00
C996   C     0.53023   0.75839   0.97718   0.00000  Uiso   1.00
C997   C     0.35481   0.79277   0.75459   0.00000  Uiso   1.00
C998   C     0.64519   0.87389   0.74541   0.00000  Uiso   1.00
C999   C     0.64556   0.79278   0.75472   0.00000  Uiso   1.00
C1000  C     0.35444   0.87388   0.74528   0.00000  Uiso   1.00
C1001  C     0.62415   0.83334   0.75011   0.00000  Uiso   1.00
C1002  C     0.37585   0.83333   0.74989   0.00000  Uiso   1.00
C1003  C     0.52914   0.69045   0.77505   0.00000  Uiso   1.00
C1004  C     0.47086   0.97621   0.72495   0.00000  Uiso   1.00
C1005  C     0.47088   0.69022   0.72494   0.00000  Uiso   1.00
C1006  C     0.52912   0.97645   0.77506   0.00000  Uiso   1.00
C1007  C     0.50027   0.83317   0.66346   0.00000  Uiso   1.00
C1008  C     0.49973   0.83349   0.83654   0.00000  Uiso   1.00
C1009  C     0.51455   0.79638   0.90759   0.00000  Uiso   1.00
C1010  C     0.48545   0.87028   0.59241   0.00000  Uiso   1.00
C1011  C     0.49938   0.83382   0.88447   0.00000  Uiso   1.00
C1012  C     0.50062   0.83285   0.61553   0.00000  Uiso   1.00
C1013  C     0.48409   0.87117   0.90710   0.00000  Uiso   1.00
C1014  C     0.51591   0.79550   0.59290   0.00000  Uiso   1.00
C1015  C     0.48436   0.87123   0.95335   0.00000  Uiso   1.00
C1016  C     0.51564   0.79544   0.54665   0.00000  Uiso   1.00
C1017  C     0.49983   0.83343   0.97676   0.00000  Uiso   1.00
C1018  C     0.50017   0.83324   0.52324   0.00000  Uiso   1.00
C1019  C     0.51494   0.79580   0.95372   0.00000  Uiso   1.00
C1020  C     0.48506   0.87087   0.54628   0.00000  Uiso   1.00
C1021  C     0.46942   0.90837   0.97655   0.00000  Uiso   1.00
C1022  C     0.53058   0.75830   0.52345   0.00000  Uiso   1.00
H1023  H     0.52650   0.76789   0.88954   0.00000  Uiso   1.00
H1024  H     0.47350   0.89878   0.61046   0.00000  Uiso   1.00
H1025  H     0.45751   0.93759   0.95901   0.00000  Uiso   1.00
H1026  H     0.54249   0.72908   0.54099   0.00000  Uiso   1.00
H1027  H     0.37110   0.76116   0.75833   0.00000  Uiso   1.00
H1028  H     0.62890   0.90551   0.74167   0.00000  Uiso   1.00
H1029  H     0.62958   0.76118   0.75855   0.00000  Uiso   1.00
H1030  H     0.37042   0.90549   0.74145   0.00000  Uiso   1.00
N1031  N     0.50000   0.95240   0.75000   0.00000  Uiso   1.00
N1032  N     0.50000   0.71427   0.75000   0.00000  Uiso   1.00
O1033  O     0.43892   0.87154   0.74999   0.00000  Uiso   1.00
O1034  O     0.56108   0.79513   0.75000   0.00000  Uiso   1.00
O1035  O     0.56108   0.87154   0.75000   0.00000  Uiso   1.00
O1036  O     0.43892   0.79513   0.74999   0.00000  Uiso   1.00
O1037  O     0.49999   0.87156   0.68392   0.00000  Uiso   1.00
O1038  O     0.50001   0.79511   0.81607   0.00000  Uiso   1.00
O1039  O     0.50001   0.87156   0.81607   0.00000  Uiso   1.00
O1040  O     0.49999   0.79511   0.68392   0.00000  Uiso   1.00
Zn1041 Zn    0.50000   0.88437   0.75000   0.00000  Uiso   1.00
Zn1042 Zn    0.50000   0.78229   0.75000   0.00000  Uiso   1.00
F1043  F     0.46822   0.90695   0.88424   0.00000  Uiso   1.00
F1044  F     0.53178   0.75972   0.61576   0.00000  Uiso   1.00
F1045  F     0.45517   0.94470   0.54456   0.00000  Uiso   1.00
F1046  F     0.54483   0.72196   0.95544   0.00000  Uiso   1.00
O1047  O     0.55927   0.71125   0.80161   0.00000  Uiso   1.00
H1048  H     0.55145   0.74270   0.80539   0.00000  Uiso   1.00
O1049  O     0.44073   0.95541   0.69839   0.00000  Uiso   1.00
H1050  H     0.44855   0.92397   0.69461   0.00000  Uiso   1.00
O1051  O     0.44081   0.71081   0.69837   0.00000  Uiso   1.00
H1052  H     0.44890   0.74211   0.69436   0.00000  Uiso   1.00
O1053  O     0.55919   0.95586   0.80163   0.00000  Uiso   1.00
H1054  H     0.55110   0.92456   0.80564   0.00000  Uiso   1.00
C1055  C     0.75340   0.83333   0.74988   0.00000  Uiso   1.00
C1056  C     0.91327   0.83333   0.75012   0.00000  Uiso   1.00
C1057  C     0.80310   0.90827   0.52282   0.00000  Uiso   1.00
C1058  C     0.86357   0.75839   0.97718   0.00000  Uiso   1.00
C1059  C     0.68815   0.79277   0.75459   0.00000  Uiso   1.00
C1060  C     0.97852   0.87389   0.74541   0.00000  Uiso   1.00
C1061  C     0.97889   0.79278   0.75472   0.00000  Uiso   1.00
C1062  C     0.68777   0.87388   0.74528   0.00000  Uiso   1.00
C1063  C     0.95749   0.83334   0.75011   0.00000  Uiso   1.00
C1064  C     0.70918   0.83333   0.74989   0.00000  Uiso   1.00
C1065  C     0.86247   0.69045   0.77505   0.00000  Uiso   1.00
C1066  C     0.80419   0.97621   0.72495   0.00000  Uiso   1.00
C1067  C     0.80421   0.69022   0.72494   0.00000  Uiso   1.00
C1068  C     0.86246   0.97645   0.77506   0.00000  Uiso   1.00
C1069  C     0.83360   0.83317   0.66346   0.00000  Uiso   1.00
C1070  C     0.83306   0.83349   0.83654   0.00000  Uiso   1.00
C1071  C     0.84788   0.79638   0.90759   0.00000  Uiso   1.00
C1072  C     0.81878   0.87028   0.59241   0.00000  Uiso   1.00
C1073  C     0.83271   0.83382   0.88447   0.00000  Uiso   1.00
C1074  C     0.83396   0.83285   0.61553   0.00000  Uiso   1.00
C1075  C     0.81742   0.87117   0.90710   0.00000  Uiso   1.00
C1076  C     0.84924   0.79550   0.59290   0.00000  Uiso   1.00
C1077  C     0.81770   0.87123   0.95335   0.00000  Uiso   1.00
C1078  C     0.84897   0.79544   0.54665   0.00000  Uiso   1.00
C1079  C     0.83317   0.83343   0.97676   0.00000  Uiso   1.00
C1080  C     0.83350   0.83324   0.52324   0.00000  Uiso   1.00
C1081  C     0.84827   0.79580   0.95372   0.00000  Uiso   1.00
C1082  C     0.81840   0.87087   0.54628   0.00000  Uiso   1.00
C1083  C     0.80276   0.90837   0.97655   0.00000  Uiso   1.00
C1084  C     0.86391   0.75830   0.52345   0.00000  Uiso   1.00
H1085  H     0.85983   0.76789   0.88954   0.00000  Uiso   1.00
H1086  H     0.80684   0.89878   0.61046   0.00000  Uiso   1.00
H1087  H     0.79084   0.93759   0.95901   0.00000  Uiso   1.00
H1088  H     0.87583   0.72908   0.54099   0.00000  Uiso   1.00
H1089  H     0.70444   0.76116   0.75833   0.00000  Uiso   1.00
H1090  H     0.96223   0.90551   0.74167   0.00000  Uiso   1.00
H1091  H     0.96291   0.76118   0.75855   0.00000  Uiso   1.00
H1092  H     0.70375   0.90549   0.74145   0.00000  Uiso   1.00
N1093  N     0.83333   0.95240   0.75000   0.00000  Uiso   1.00
N1094  N     0.83333   0.71427   0.75000   0.00000  Uiso   1.00
O1095  O     0.77226   0.87154   0.74999   0.00000  Uiso   1.00
O1096  O     0.89441   0.79513   0.75000   0.00000  Uiso   1.00
O1097  O     0.89441   0.87154   0.75000   0.00000  Uiso   1.00
O1098  O     0.77226   0.79513   0.74999   0.00000  Uiso   1.00
O1099  O     0.83333   0.87156   0.68392   0.00000  Uiso   1.00
O1100  O     0.83334   0.79511   0.81607   0.00000  Uiso   1.00
O1101  O     0.83334   0.87156   0.81607   0.00000  Uiso   1.00
O1102  O     0.83333   0.79511   0.68392   0.00000  Uiso   1.00
Zn1103 Zn    0.83333   0.88437   0.75000   0.00000  Uiso   1.00
Zn1104 Zn    0.83333   0.78229   0.75000   0.00000  Uiso   1.00
F1105  F     0.80155   0.90695   0.88424   0.00000  Uiso   1.00
F1106  F     0.86511   0.75972   0.61576   0.00000  Uiso   1.00
F1107  F     0.78851   0.94470   0.54456   0.00000  Uiso   1.00
F1108  F     0.87816   0.72196   0.95544   0.00000  Uiso   1.00
O1109  O     0.89261   0.71125   0.80161   0.00000  Uiso   1.00
H1110  H     0.88478   0.74270   0.80539   0.00000  Uiso   1.00
O1111  O     0.77406   0.95541   0.69839   0.00000  Uiso   1.00
H1112  H     0.78188   0.92397   0.69461   0.00000  Uiso   1.00
O1113  O     0.77414   0.71081   0.69837   0.00000  Uiso   1.00
H1114  H     0.78223   0.74211   0.69436   0.00000  Uiso   1.00
O1115  O     0.89252   0.95586   0.80163   0.00000  Uiso   1.00
H1116  H     0.88444   0.92456   0.80564   0.00000  Uiso   1.00
loop_
_geom_bond_atom_site_label_1
_geom_bond_atom_site_label_2
_geom_bond_distance
_geom_bond_site_symmetry_2
_ccdc_geom_bond_type
C1     O44     1.292   .     A
C1     C10     1.422   .     S
C1     O41     1.292   .     A
C2     C9      1.422   .     S
C2     O43     1.292   .     A
C2     O42     1.292   .     A
C3     F53     1.358   .     S
C3     C28     1.402   .     A
C3     C587    1.388   1_554 S
C4     C27     1.402   .     A
C4     F54     1.358   .     S
C4     C588    1.388   .     S
C5     C10     1.398   .     A
C5     H35     1.084   .     S
C5     C131    1.370   1_455 S
C6     C9      1.398   .     A
C6     H36     1.084   .     S
C6     C70     1.370   .     S
C7     C9      1.398   .     A
C7     H37     1.083   .     S
C7     C67     1.370   .     S
C8     C10     1.398   .     A
C8     H38     1.083   .     S
C8     C130    1.370   1_455 S
C11    O55     1.376   .     S
C11    N40     1.378   .     A
C11    C386    1.413   1_545 S
C12    O57     1.376   .     S
C12    N39     1.378   .     A
C12    C199    1.413   .     S
C13    O59     1.376   .     S
C13    N40     1.377   .     A
C13    C384    1.413   1_545 S
C14    N39     1.377   .     A
C14    O61     1.376   .     S
C14    C197    1.413   .     S
C15    O48     1.295   .     A
C15    C20     1.439   .     S
C15    O45     1.297   .     A
C16    C19     1.439   .     S
C16    O47     1.295   .     A
C16    O46     1.297   .     A
C17    C19     1.396   .     A
C17    H31     1.085   .     S
C17    C27     1.384   .     A
C18    H32     1.085   .     S
C18    C28     1.384   .     A
C18    C20     1.396   .     A
C19    C21     1.402   .     A
C20    C22     1.402   .     A
C21    C23     1.388   .     A
C21    F51     1.361   .     S
C22    F52     1.361   .     S
C22    C24     1.388   .     A
C23    C29     1.401   .     A
C23    C25     1.413   .     A
C24    C30     1.401   .     A
C24    C26     1.413   .     A
C25    C27     1.412   .     A
C25    C584    1.394   .     S
C26    C28     1.412   .     A
C26    C583    1.394   1_554 S
C29    H33     1.083   .     S
C29    C561    1.388   .     S
C30    H34     1.083   .     S
C30    C562    1.388   1_554 S
N39    Zn49    2.031   .     S
N40    Zn50    2.031   .     S
O41    Zn49    2.002   .     S
O42    Zn50    2.002   .     S
O43    Zn49    2.002   .     S
O44    Zn50    2.002   .     S
O45    Zn49    2.018   .     S
O46    Zn50    2.018   .     S
O47    Zn49    2.022   .     S
O48    Zn50    2.022   .     S
O55    H56     0.979   .     S
O57    H58     0.979   .     S
O59    H60     0.979   .     S
O61    H62     0.979   .     S
C63    O106    1.292   .     A
C63    C72     1.422   .     S
C63    O103    1.292   .     A
C64    C71     1.422   .     S
C64    O105    1.292   .     A
C64    O104    1.292   .     A
C65    F115    1.358   .     S
C65    C90     1.402   .     A
C65    C649    1.388   1_554 S
C66    C89     1.402   .     A
C66    F116    1.358   .     S
C66    C650    1.388   .     S
C67    C72     1.398   .     A
C67    H97     1.084   .     S
C68    C71     1.398   .     A
C68    H98     1.084   .     S
C68    C132    1.370   .     S
C69    C71     1.398   .     A
C69    H99     1.083   .     S
C69    C129    1.370   .     S
C70    C72     1.398   .     A
C70    H100    1.083   .     S
C73    O117    1.376   .     S
C73    N102    1.378   .     A
C73    C448    1.413   1_545 S
C74    O119    1.376   .     S
C74    N101    1.378   .     A
C74    C261    1.413   .     S
C75    O121    1.376   .     S
C75    N102    1.377   .     A
C75    C446    1.413   1_545 S
C76    N101    1.377   .     A
C76    O123    1.376   .     S
C76    C259    1.413   .     S
C77    O110    1.295   .     A
C77    C82     1.439   .     S
C77    O107    1.297   .     A
C78    C81     1.439   .     S
C78    O109    1.295   .     A
C78    O108    1.297   .     A
C79    C81     1.396   .     A
C79    H93     1.085   .     S
C79    C89     1.384   .     A
C80    H94     1.085   .     S
C80    C90     1.384   .     A
C80    C82     1.396   .     A
C81    C83     1.402   .     A
C82    C84     1.402   .     A
C83    C85     1.388   .     A
C83    F113    1.361   .     S
C84    F114    1.361   .     S
C84    C86     1.388   .     A
C85    C91     1.401   .     A
C85    C87     1.413   .     A
C86    C92     1.401   .     A
C86    C88     1.413   .     A
C87    C89     1.412   .     A
C87    C646    1.394   .     S
C88    C90     1.412   .     A
C88    C645    1.394   1_554 S
C91    H95     1.083   .     S
C91    C623    1.388   .     S
C92    H96     1.083   .     S
C92    C624    1.388   1_554 S
N101   Zn111   2.031   .     S
N102   Zn112   2.031   .     S
O103   Zn111   2.002   .     S
O104   Zn112   2.002   .     S
O105   Zn111   2.002   .     S
O106   Zn112   2.002   .     S
O107   Zn111   2.018   .     S
O108   Zn112   2.018   .     S
O109   Zn111   2.022   .     S
O110   Zn112   2.022   .     S
O117   H118    0.979   .     S
O119   H120    0.979   .     S
O121   H122    0.979   .     S
O123   H124    0.979   .     S
C125   O168    1.292   .     A
C125   C134    1.422   .     S
C125   O165    1.292   .     A
C126   C133    1.422   .     S
C126   O167    1.292   .     A
C126   O166    1.292   .     A
C127   F177    1.358   .     S
C127   C152    1.402   .     A
C127   C711    1.388   1_554 S
C128   C151    1.402   .     A
C128   F178    1.358   .     S
C128   C712    1.388   .     S
C129   C134    1.398   .     A
C129   H159    1.084   .     S
C130   C133    1.398   .     A
C130   H160    1.084   .     S
C130   C8      1.370   1_655 S
C131   C133    1.398   .     A
C131   H161    1.083   .     S
C131   C5      1.370   1_655 S
C132   C134    1.398   .     A
C132   H162    1.083   .     S
C135   O179    1.376   .     S
C135   N164    1.378   .     A
C135   C510    1.413   1_545 S
C136   O181    1.376   .     S
C136   N163    1.378   .     A
C136   C323    1.413   .     S
C137   O183    1.376   .     S
C137   N164    1.377   .     A
C137   C508    1.413   1_545 S
C138   N163    1.377   .     A
C138   O185    1.376   .     S
C138   C321    1.413   .     S
C139   O172    1.295   .     A
C139   C144    1.439   .     S
C139   O169    1.297   .     A
C140   C143    1.439   .     S
C140   O171    1.295   .     A
C140   O170    1.297   .     A
C141   C143    1.396   .     A
C141   H155    1.085   .     S
C141   C151    1.384   .     A
C142   H156    1.085   .     S
C142   C152    1.384   .     A
C142   C144    1.396   .     A
C143   C145    1.402   .     A
C144   C146    1.402   .     A
C145   C147    1.388   .     A
C145   F175    1.361   .     S
C146   F176    1.361   .     S
C146   C148    1.388   .     A
C147   C153    1.401   .     A
C147   C149    1.413   .     A
C148   C154    1.401   .     A
C148   C150    1.413   .     A
C149   C151    1.412   .     A
C149   C708    1.394   .     S
C150   C152    1.412   .     A
C150   C707    1.394   1_554 S
C153   H157    1.083   .     S
C153   C685    1.388   .     S
C154   H158    1.083   .     S
C154   C686    1.388   1_554 S
N163   Zn173   2.031   .     S
N164   Zn174   2.031   .     S
O165   Zn173   2.002   .     S
O166   Zn174   2.002   .     S
O167   Zn173   2.002   .     S
O168   Zn174   2.002   .     S
O169   Zn173   2.018   .     S
O170   Zn174   2.018   .     S
O171   Zn173   2.022   .     S
O172   Zn174   2.022   .     S
O179   H180    0.979   .     S
O181   H182    0.979   .     S
O183   H184    0.979   .     S
O185   H186    0.979   .     S
C187   O230    1.292   .     A
C187   C196    1.422   .     S
C187   O227    1.292   .     A
C188   C195    1.422   .     S
C188   O229    1.292   .     A
C188   O228    1.292   .     A
C189   F239    1.358   .     S
C189   C214    1.402   .     A
C189   C773    1.388   1_554 S
C190   C213    1.402   .     A
C190   F240    1.358   .     S
C190   C774    1.388   .     S
C191   C196    1.398   .     A
C191   H221    1.084   .     S
C191   C317    1.370   1_455 S
C192   C195    1.398   .     A
C192   H222    1.084   .     S
C192   C256    1.370   .     S
C193   C195    1.398   .     A
C193   H223    1.083   .     S
C193   C253    1.370   .     S
C194   C196    1.398   .     A
C194   H224    1.083   .     S
C194   C316    1.370   1_455 S
C197   O241    1.376   .     S
C197   N226    1.378   .     A
C198   O243    1.376   .     S
C198   N225    1.378   .     A
C198   C385    1.413   .     S
C199   O245    1.376   .     S
C199   N226    1.377   .     A
C200   N225    1.377   .     A
C200   O247    1.376   .     S
C200   C383    1.413   .     S
C201   O234    1.295   .     A
C201   C206    1.439   .     S
C201   O231    1.297   .     A
C202   C205    1.439   .     S
C202   O233    1.295   .     A
C202   O232    1.297   .     A
C203   C205    1.396   .     A
C203   H217    1.085   .     S
C203   C213    1.384   .     A
C204   H218    1.085   .     S
C204   C214    1.384   .     A
C204   C206    1.396   .     A
C205   C207    1.402   .     A
C206   C208    1.402   .     A
C207   C209    1.388   .     A
C207   F237    1.361   .     S
C208   F238    1.361   .     S
C208   C210    1.388   .     A
C209   C215    1.401   .     A
C209   C211    1.413   .     A
C210   C216    1.401   .     A
C210   C212    1.413   .     A
C211   C213    1.412   .     A
C211   C770    1.394   .     S
C212   C214    1.412   .     A
C212   C769    1.394   1_554 S
C215   H219    1.083   .     S
C215   C747    1.388   .     S
C216   H220    1.083   .     S
C216   C748    1.388   1_554 S
N225   Zn235   2.031   .     S
N226   Zn236   2.031   .     S
O227   Zn235   2.002   .     S
O228   Zn236   2.002   .     S
O229   Zn235   2.002   .     S
O230   Zn236   2.002   .     S
O231   Zn235   2.018   .     S
O232   Zn236   2.018   .     S
O233   Zn235   2.022   .     S
O234   Zn236   2.022   .     S
O241   H242    0.979   .     S
O243   H244    0.979   .     S
O245   H246    0.979   .     S
O247   H248    0.979   .     S
C249   O292    1.292   .     A
C249   C258    1.422   .     S
C249   O289    1.292   .     A
C250   C257    1.422   .     S
C250   O291    1.292   .     A
C250   O290    1.292   .     A
C251   F301    1.358   .     S
C251   C276    1.402   .     A
C251   C835    1.388   1_554 S
C252   C275    1.402   .     A
C252   F302    1.358   .     S
C252   C836    1.388   .     S
C253   C258    1.398   .     A
C253   H283    1.084   .     S
C254   C257    1.398   .     A
C254   H284    1.084   .     S
C254   C318    1.370   .     S
C255   C257    1.398   .     A
C255   H285    1.083   .     S
C255   C315    1.370   .     S
C256   C258    1.398   .     A
C256   H286    1.083   .     S
C259   O303    1.376   .     S
C259   N288    1.378   .     A
C260   O305    1.376   .     S
C260   N287    1.378   .     A
C260   C447    1.413   .     S
C261   O307    1.376   .     S
C261   N288    1.377   .     A
C262   N287    1.377   .     A
C262   O309    1.376   .     S
C262   C445    1.413   .     S
C263   O296    1.295   .     A
C263   C268    1.439   .     S
C263   O293    1.297   .     A
C264   C267    1.439   .     S
C264   O295    1.295   .     A
C264   O294    1.297   .     A
C265   C267    1.396   .     A
C265   H279    1.085   .     S
C265   C275    1.384   .     A
C266   H280    1.085   .     S
C266   C276    1.384   .     A
C266   C268    1.396   .     A
C267   C269    1.402   .     A
C268   C270    1.402   .     A
C269   C271    1.388   .     A
C269   F299    1.361   .     S
C270   F300    1.361   .     S
C270   C272    1.388   .     A
C271   C277    1.401   .     A
C271   C273    1.413   .     A
C272   C278    1.401   .     A
C272   C274    1.413   .     A
C273   C275    1.412   .     A
C273   C832    1.394   .     S
C274   C276    1.412   .     A
C274   C831    1.394   1_554 S
C277   H281    1.083   .     S
C277   C809    1.388   .     S
C278   H282    1.083   .     S
C278   C810    1.388   1_554 S
N287   Zn297   2.031   .     S
N288   Zn298   2.031   .     S
O289   Zn297   2.002   .     S
O290   Zn298   2.002   .     S
O291   Zn297   2.002   .     S
O292   Zn298   2.002   .     S
O293   Zn297   2.018   .     S
O294   Zn298   2.018   .     S
O295   Zn297   2.022   .     S
O296   Zn298   2.022   .     S
O303   H304    0.979   .     S
O305   H306    0.979   .     S
O307   H308    0.979   .     S
O309   H310    0.979   .     S
C311   O354    1.292   .     A
C311   C320    1.422   .     S
C311   O351    1.292   .     A
C312   C319    1.422   .     S
C312   O353    1.292   .     A
C312   O352    1.292   .     A
C313   F363    1.358   .     S
C313   C338    1.402   .     A
C313   C897    1.388   1_554 S
C314   C337    1.402   .     A
C314   F364    1.358   .     S
C314   C898    1.388   .     S
C315   C320    1.398   .     A
C315   H345    1.084   .     S
C316   C319    1.398   .     A
C316   H346    1.084   .     S
C316   C194    1.370   1_655 S
C317   C319    1.398   .     A
C317   H347    1.083   .     S
C317   C191    1.370   1_655 S
C318   C320    1.398   .     A
C318   H348    1.083   .     S
C321   O365    1.376   .     S
C321   N350    1.378   .     A
C322   O367    1.376   .     S
C322   N349    1.378   .     A
C322   C509    1.413   .     S
C323   O369    1.376   .     S
C323   N350    1.377   .     A
C324   N349    1.377   .     A
C324   O371    1.376   .     S
C324   C507    1.413   .     S
C325   O358    1.295   .     A
C325   C330    1.439   .     S
C325   O355    1.297   .     A
C326   C329    1.439   .     S
C326   O357    1.295   .     A
C326   O356    1.297   .     A
C327   C329    1.396   .     A
C327   H341    1.085   .     S
C327   C337    1.384   .     A
C328   H342    1.085   .     S
C328   C338    1.384   .     A
C328   C330    1.396   .     A
C329   C331    1.402   .     A
C330   C332    1.402   .     A
C331   C333    1.388   .     A
C331   F361    1.361   .     S
C332   F362    1.361   .     S
C332   C334    1.388   .     A
C333   C339    1.401   .     A
C333   C335    1.413   .     A
C334   C340    1.401   .     A
C334   C336    1.413   .     A
C335   C337    1.412   .     A
C335   C894    1.394   .     S
C336   C338    1.412   .     A
C336   C893    1.394   1_554 S
C339   H343    1.083   .     S
C339   C871    1.388   .     S
C340   H344    1.083   .     S
C340   C872    1.388   1_554 S
N349   Zn359   2.031   .     S
N350   Zn360   2.031   .     S
O351   Zn359   2.002   .     S
O352   Zn360   2.002   .     S
O353   Zn359   2.002   .     S
O354   Zn360   2.002   .     S
O355   Zn359   2.018   .     S
O356   Zn360   2.018   .     S
O357   Zn359   2.022   .     S
O358   Zn360   2.022   .     S
O365   H366    0.979   .     S
O367   H368    0.979   .     S
O369   H370    0.979   .     S
O371   H372    0.979   .     S
C373   O416    1.292   .     A
C373   C382    1.422   .     S
C373   O413    1.292   .     A
C374   C381    1.422   .     S
C374   O415    1.292   .     A
C374   O414    1.292   .     A
C375   F425    1.358   .     S
C375   C400    1.402   .     A
C375   C959    1.388   1_554 S
C376   C399    1.402   .     A
C376   F426    1.358   .     S
C376   C960    1.388   .     S
C377   C382    1.398   .     A
C377   H407    1.084   .     S
C377   C503    1.370   1_455 S
C378   C381    1.398   .     A
C378   H408    1.084   .     S
C378   C442    1.370   .     S
C379   C381    1.398   .     A
C379   H409    1.083   .     S
C379   C439    1.370   .     S
C380   C382    1.398   .     A
C380   H410    1.083   .     S
C380   C502    1.370   1_455 S
C383   O427    1.376   .     S
C383   N412    1.378   .     A
C384   O429    1.376   .     S
C384   N411    1.378   .     A
C384   C13     1.413   1_565 S
C385   O431    1.376   .     S
C385   N412    1.377   .     A
C386   N411    1.377   .     A
C386   O433    1.376   .     S
C386   C11     1.413   1_565 S
C387   O420    1.295   .     A
C387   C392    1.439   .     S
C387   O417    1.297   .     A
C388   C391    1.439   .     S
C388   O419    1.295   .     A
C388   O418    1.297   .     A
C389   C391    1.396   .     A
C389   H403    1.085   .     S
C389   C399    1.384   .     A
C390   H404    1.085   .     S
C390   C400    1.384   .     A
C390   C392    1.396   .     A
C391   C393    1.402   .     A
C392   C394    1.402   .     A
C393   C395    1.388   .     A
C393   F423    1.361   .     S
C394   F424    1.361   .     S
C394   C396    1.388   .     A
C395   C401    1.401   .     A
C395   C397    1.413   .     A
C396   C402    1.401   .     A
C396   C398    1.413   .     A
C397   C399    1.412   .     A
C397   C956    1.394   .     S
C398   C400    1.412   .     A
C398   C955    1.394   1_554 S
C401   H405    1.083   .     S
C401   C933    1.388   .     S
C402   H406    1.083   .     S
C402   C934    1.388   1_554 S
N411   Zn421   2.031   .     S
N412   Zn422   2.031   .     S
O413   Zn421   2.002   .     S
O414   Zn422   2.002   .     S
O415   Zn421   2.002   .     S
O416   Zn422   2.002   .     S
O417   Zn421   2.018   .     S
O418   Zn422   2.018   .     S
O419   Zn421   2.022   .     S
O420   Zn422   2.022   .     S
O427   H428    0.979   .     S
O429   H430    0.979   .     S
O431   H432    0.979   .     S
O433   H434    0.979   .     S
C435   O478    1.292   .     A
C435   C444    1.422   .     S
C435   O475    1.292   .     A
C436   C443    1.422   .     S
C436   O477    1.292   .     A
C436   O476    1.292   .     A
C437   F487    1.358   .     S
C437   C462    1.402   .     A
C437   C1021   1.388   1_554 S
C438   C461    1.402   .     A
C438   F488    1.358   .     S
C438   C1022   1.388   .     S
C439   C444    1.398   .     A
C439   H469    1.084   .     S
C440   C443    1.398   .     A
C440   H470    1.084   .     S
C440   C504    1.370   .     S
C441   C443    1.398   .     A
C441   H471    1.083   .     S
C441   C501    1.370   .     S
C442   C444    1.398   .     A
C442   H472    1.083   .     S
C445   O489    1.376   .     S
C445   N474    1.378   .     A
C446   O491    1.376   .     S
C446   N473    1.378   .     A
C446   C75     1.413   1_565 S
C447   O493    1.376   .     S
C447   N474    1.377   .     A
C448   N473    1.377   .     A
C448   O495    1.376   .     S
C448   C73     1.413   1_565 S
C449   O482    1.295   .     A
C449   C454    1.439   .     S
C449   O479    1.297   .     A
C450   C453    1.439   .     S
C450   O481    1.295   .     A
C450   O480    1.297   .     A
C451   C453    1.396   .     A
C451   H465    1.085   .     S
C451   C461    1.384   .     A
C452   H466    1.085   .     S
C452   C462    1.384   .     A
C452   C454    1.396   .     A
C453   C455    1.402   .     A
C454   C456    1.402   .     A
C455   C457    1.388   .     A
C455   F485    1.361   .     S
C456   F486    1.361   .     S
C456   C458    1.388   .     A
C457   C463    1.401   .     A
C457   C459    1.413   .     A
C458   C464    1.401   .     A
C458   C460    1.413   .     A
C459   C461    1.412   .     A
C459   C1018   1.394   .     S
C460   C462    1.412   .     A
C460   C1017   1.394   1_554 S
C463   H467    1.083   .     S
C463   C995    1.388   .     S
C464   H468    1.083   .     S
C464   C996    1.388   1_554 S
N473   Zn483   2.031   .     S
N474   Zn484   2.031   .     S
O475   Zn483   2.002   .     S
O476   Zn484   2.002   .     S
O477   Zn483   2.002   .     S
O478   Zn484   2.002   .     S
O479   Zn483   2.018   .     S
O480   Zn484   2.018   .     S
O481   Zn483   2.022   .     S
O482   Zn484   2.022   .     S
O489   H490    0.979   .     S
O491   H492    0.979   .     S
O493   H494    0.979   .     S
O495   H496    0.979   .     S
C497   O540    1.292   .     A
C497   C506    1.422   .     S
C497   O537    1.292   .     A
C498   C505    1.422   .     S
C498   O539    1.292   .     A
C498   O538    1.292   .     A
C499   F549    1.358   .     S
C499   C524    1.402   .     A
C499   C1083   1.388   1_554 S
C500   C523    1.402   .     A
C500   F550    1.358   .     S
C500   C1084   1.388   .     S
C501   C506    1.398   .     A
C501   H531    1.084   .     S
C502   C505    1.398   .     A
C502   H532    1.084   .     S
C502   C380    1.370   1_655 S
C503   C505    1.398   .     A
C503   H533    1.083   .     S
C503   C377    1.370   1_655 S
C504   C506    1.398   .     A
C504   H534    1.083   .     S
C507   O551    1.376   .     S
C507   N536    1.378   .     A
C508   O553    1.376   .     S
C508   N535    1.378   .     A
C508   C137    1.413   1_565 S
C509   O555    1.376   .     S
C509   N536    1.377   .     A
C510   N535    1.377   .     A
C510   O557    1.376   .     S
C510   C135    1.413   1_565 S
C511   O544    1.295   .     A
C511   C516    1.439   .     S
C511   O541    1.297   .     A
C512   C515    1.439   .     S
C512   O543    1.295   .     A
C512   O542    1.297   .     A
C513   C515    1.396   .     A
C513   H527    1.085   .     S
C513   C523    1.384   .     A
C514   H528    1.085   .     S
C514   C524    1.384   .     A
C514   C516    1.396   .     A
C515   C517    1.402   .     A
C516   C518    1.402   .     A
C517   C519    1.388   .     A
C517   F547    1.361   .     S
C518   F548    1.361   .     S
C518   C520    1.388   .     A
C519   C525    1.401   .     A
C519   C521    1.413   .     A
C520   C526    1.401   .     A
C520   C522    1.413   .     A
C521   C523    1.412   .     A
C521   C1080   1.394   .     S
C522   C524    1.412   .     A
C522   C1079   1.394   1_554 S
C525   H529    1.083   .     S
C525   C1057   1.388   .     S
C526   H530    1.083   .     S
C526   C1058   1.388   1_554 S
N535   Zn545   2.031   .     S
N536   Zn546   2.031   .     S
O537   Zn545   2.002   .     S
O538   Zn546   2.002   .     S
O539   Zn545   2.002   .     S
O540   Zn546   2.002   .     S
O541   Zn545   2.018   .     S
O542   Zn546   2.018   .     S
O543   Zn545   2.022   .     S
O544   Zn546   2.022   .     S
O551   H552    0.979   .     S
O553   H554    0.979   .     S
O555   H556    0.979   .     S
O557   H558    0.979   .     S
C559   O602    1.292   .     A
C559   C568    1.422   .     S
C559   O599    1.292   .     A
C560   C567    1.422   .     S
C560   O601    1.292   .     A
C560   O600    1.292   .     A
C561   F611    1.358   .     S
C561   C586    1.402   .     A
C562   C585    1.402   .     A
C562   F612    1.358   .     S
C562   C30     1.388   1_556 S
C563   C568    1.398   .     A
C563   H593    1.084   .     S
C563   C689    1.370   1_455 S
C564   C567    1.398   .     A
C564   H594    1.084   .     S
C564   C628    1.370   .     S
C565   C567    1.398   .     A
C565   H595    1.083   .     S
C565   C625    1.370   .     S
C566   C568    1.398   .     A
C566   H596    1.083   .     S
C566   C688    1.370   1_455 S
C569   O613    1.376   .     S
C569   N598    1.378   .     A
C569   C944    1.413   1_545 S
C570   O615    1.376   .     S
C570   N597    1.378   .     A
C570   C757    1.413   .     S
C571   O617    1.376   .     S
C571   N598    1.377   .     A
C571   C942    1.413   1_545 S
C572   N597    1.377   .     A
C572   O619    1.376   .     S
C572   C755    1.413   .     S
C573   O606    1.295   .     A
C573   C578    1.439   .     S
C573   O603    1.297   .     A
C574   C577    1.439   .     S
C574   O605    1.295   .     A
C574   O604    1.297   .     A
C575   C577    1.396   .     A
C575   H589    1.085   .     S
C575   C585    1.384   .     A
C576   H590    1.085   .     S
C576   C586    1.384   .     A
C576   C578    1.396   .     A
C577   C579    1.402   .     A
C578   C580    1.402   .     A
C579   C581    1.388   .     A
C579   F609    1.361   .     S
C580   F610    1.361   .     S
C580   C582    1.388   .     A
C581   C587    1.401   .     A
C581   C583    1.413   .     A
C582   C588    1.401   .     A
C582   C584    1.413   .     A
C583   C585    1.412   .     A
C583   C26     1.394   1_556 S
C584   C586    1.412   .     A
C587   H591    1.083   .     S
C587   C3      1.388   1_556 S
C588   H592    1.083   .     S
N597   Zn607   2.031   .     S
N598   Zn608   2.031   .     S
O599   Zn607   2.002   .     S
O600   Zn608   2.002   .     S
O601   Zn607   2.002   .     S
O602   Zn608   2.002   .     S
O603   Zn607   2.018   .     S
O604   Zn608   2.018   .     S
O605   Zn607   2.022   .     S
O606   Zn608   2.022   .     S
O613   H614    0.979   .     S
O615   H616    0.979   .     S
O617   H618    0.979   .     S
O619   H620    0.979   .     S
C621   O664    1.292   .     A
C621   C630    1.422   .     S
C621   O661    1.292   .     A
C622   C629    1.422   .     S
C622   O663    1.292   .     A
C622   O662    1.292   .     A
C623   F673    1.358   .     S
C623   C648    1.402   .     A
C624   C647    1.402   .     A
C624   F674    1.358   .     S
C624   C92     1.388   1_556 S
C625   C630    1.398   .     A
C625   H655    1.084   .     S
C626   C629    1.398   .     A
C626   H656    1.084   .     S
C626   C690    1.370   .     S
C627   C629    1.398   .     A
C627   H657    1.083   .     S
C627   C687    1.370   .     S
C628   C630    1.398   .     A
C628   H658    1.083   .     S
C631   O675    1.376   .     S
C631   N660    1.378   .     A
C631   C1006   1.413   1_545 S
C632   O677    1.376   .     S
C632   N659    1.378   .     A
C632   C819    1.413   .     S
C633   O679    1.376   .     S
C633   N660    1.377   .     A
C633   C1004   1.413   1_545 S
C634   N659    1.377   .     A
C634   O681    1.376   .     S
C634   C817    1.413   .     S
C635   O668    1.295   .     A
C635   C640    1.439   .     S
C635   O665    1.297   .     A
C636   C639    1.439   .     S
C636   O667    1.295   .     A
C636   O666    1.297   .     A
C637   C639    1.396   .     A
C637   H651    1.085   .     S
C637   C647    1.384   .     A
C638   H652    1.085   .     S
C638   C648    1.384   .     A
C638   C640    1.396   .     A
C639   C641    1.402   .     A
C640   C642    1.402   .     A
C641   C643    1.388   .     A
C641   F671    1.361   .     S
C642   F672    1.361   .     S
C642   C644    1.388   .     A
C643   C649    1.401   .     A
C643   C645    1.413   .     A
C644   C650    1.401   .     A
C644   C646    1.413   .     A
C645   C647    1.412   .     A
C645   C88     1.394   1_556 S
C646   C648    1.412   .     A
C649   H653    1.083   .     S
C649   C65     1.388   1_556 S
C650   H654    1.083   .     S
N659   Zn669   2.031   .     S
N660   Zn670   2.031   .     S
O661   Zn669   2.002   .     S
O662   Zn670   2.002   .     S
O663   Zn669   2.002   .     S
O664   Zn670   2.002   .     S
O665   Zn669   2.018   .     S
O666   Zn670   2.018   .     S
O667   Zn669   2.022   .     S
O668   Zn670   2.022   .     S
O675   H676    0.979   .     S
O677   H678    0.979   .     S
O679   H680    0.979   .     S
O681   H682    0.979   .     S
C683   O726    1.292   .     A
C683   C692    1.422   .     S
C683   O723    1.292   .     A
C684   C691    1.422   .     S
C684   O725    1.292   .     A
C684   O724    1.292   .     A
C685   F735    1.358   .     S
C685   C710    1.402   .     A
C686   C709    1.402   .     A
C686   F736    1.358   .     S
C686   C154    1.388   1_556 S
C687   C692    1.398   .     A
C687   H717    1.084   .     S
C688   C691    1.398   .     A
C688   H718    1.084   .     S
C688   C566    1.370   1_655 S
C689   C691    1.398   .     A
C689   H719    1.083   .     S
C689   C563    1.370   1_655 S
C690   C692    1.398   .     A
C690   H720    1.083   .     S
C693   O737    1.376   .     S
C693   N722    1.378   .     A
C693   C1068   1.413   1_545 S
C694   O739    1.376   .     S
C694   N721    1.378   .     A
C694   C881    1.413   .     S
C695   O741    1.376   .     S
C695   N722    1.377   .     A
C695   C1066   1.413   1_545 S
C696   N721    1.377   .     A
C696   O743    1.376   .     S
C696   C879    1.413   .     S
C697   O730    1.295   .     A
C697   C702    1.439   .     S
C697   O727    1.297   .     A
C698   C701    1.439   .     S
C698   O729    1.295   .     A
C698   O728    1.297   .     A
C699   C701    1.396   .     A
C699   H713    1.085   .     S
C699   C709    1.384   .     A
C700   H714    1.085   .     S
C700   C710    1.384   .     A
C700   C702    1.396   .     A
C701   C703    1.402   .     A
C702   C704    1.402   .     A
C703   C705    1.388   .     A
C703   F733    1.361   .     S
C704   F734    1.361   .     S
C704   C706    1.388   .     A
C705   C711    1.401   .     A
C705   C707    1.413   .     A
C706   C712    1.401   .     A
C706   C708    1.413   .     A
C707   C709    1.412   .     A
C707   C150    1.394   1_556 S
C708   C710    1.412   .     A
C711   H715    1.083   .     S
C711   C127    1.388   1_556 S
C712   H716    1.083   .     S
N721   Zn731   2.031   .     S
N722   Zn732   2.031   .     S
O723   Zn731   2.002   .     S
O724   Zn732   2.002   .     S
O725   Zn731   2.002   .     S
O726   Zn732   2.002   .     S
O727   Zn731   2.018   .     S
O728   Zn732   2.018   .     S
O729   Zn731   2.022   .     S
O730   Zn732   2.022   .     S
O737   H738    0.979   .     S
O739   H740    0.979   .     S
O741   H742    0.979   .     S
O743   H744    0.979   .     S
C745   O788    1.292   .     A
C745   C754    1.422   .     S
C745   O785    1.292   .     A
C746   C753    1.422   .     S
C746   O787    1.292   .     A
C746   O786    1.292   .     A
C747   F797    1.358   .     S
C747   C772    1.402   .     A
C748   C771    1.402   .     A
C748   F798    1.358   .     S
C748   C216    1.388   1_556 S
C749   C754    1.398   .     A
C749   H779    1.084   .     S
C749   C875    1.370   1_455 S
C750   C753    1.398   .     A
C750   H780    1.084   .     S
C750   C814    1.370   .     S
C751   C753    1.398   .     A
C751   H781    1.083   .     S
C751   C811    1.370   .     S
C752   C754    1.398   .     A
C752   H782    1.083   .     S
C752   C874    1.370   1_455 S
C755   O799    1.376   .     S
C755   N784    1.378   .     A
C756   O801    1.376   .     S
C756   N783    1.378   .     A
C756   C943    1.413   .     S
C757   O803    1.376   .     S
C757   N784    1.377   .     A
C758   N783    1.377   .     A
C758   O805    1.376   .     S
C758   C941    1.413   .     S
C759   O792    1.295   .     A
C759   C764    1.439   .     S
C759   O789    1.297   .     A
C760   C763    1.439   .     S
C760   O791    1.295   .     A
C760   O790    1.297   .     A
C761   C763    1.396   .     A
C761   H775    1.085   .     S
C761   C771    1.384   .     A
C762   H776    1.085   .     S
C762   C772    1.384   .     A
C762   C764    1.396   .     A
C763   C765    1.402   .     A
C764   C766    1.402   .     A
C765   C767    1.388   .     A
C765   F795    1.361   .     S
C766   F796    1.361   .     S
C766   C768    1.388   .     A
C767   C773    1.401   .     A
C767   C769    1.413   .     A
C768   C774    1.401   .     A
C768   C770    1.413   .     A
C769   C771    1.412   .     A
C769   C212    1.394   1_556 S
C770   C772    1.412   .     A
C773   H777    1.083   .     S
C773   C189    1.388   1_556 S
C774   H778    1.083   .     S
N783   Zn793   2.031   .     S
N784   Zn794   2.031   .     S
O785   Zn793   2.002   .     S
O786   Zn794   2.002   .     S
O787   Zn793   2.002   .     S
O788   Zn794   2.002   .     S
O789   Zn793   2.018   .     S
O790   Zn794   2.018   .     S
O791   Zn793   2.022   .     S
O792   Zn794   2.022   .     S
O799   H800    0.979   .     S
O801   H802    0.979   .     S
O803   H804    0.979   .     S
O805   H806    0.979   .     S
C807   O850    1.292   .     A
C807   C816    1.422   .     S
C807   O847    1.292   .     A
C808   C815    1.422   .     S
C808   O849    1.292   .     A
C808   O848    1.292   .     A
C809   F859    1.358   .     S
C809   C834    1.402   .     A
C810   C833    1.402   .     A
C810   F860    1.358   .     S
C810   C278    1.388   1_556 S
C811   C816    1.398   .     A
C811   H841    1.084   .     S
C812   C815    1.398   .     A
C812   H842    1.084   .     S
C812   C876    1.370   .     S
C813   C815    1.398   .     A
C813   H843    1.083   .     S
C813   C873    1.370   .     S
C814   C816    1.398   .     A
C814   H844    1.083   .     S
C817   O861    1.376   .     S
C817   N846    1.378   .     A
C818   O863    1.376   .     S
C818   N845    1.378   .     A
C818   C1005   1.413   .     S
C819   O865    1.376   .     S
C819   N846    1.377   .     A
C820   N845    1.377   .     A
C820   O867    1.376   .     S
C820   C1003   1.413   .     S
C821   O854    1.295   .     A
C821   C826    1.439   .     S
C821   O851    1.297   .     A
C822   C825    1.439   .     S
C822   O853    1.295   .     A
C822   O852    1.297   .     A
C823   C825    1.396   .     A
C823   H837    1.085   .     S
C823   C833    1.384   .     A
C824   H838    1.085   .     S
C824   C834    1.384   .     A
C824   C826    1.396   .     A
C825   C827    1.402   .     A
C826   C828    1.402   .     A
C827   C829    1.388   .     A
C827   F857    1.361   .     S
C828   F858    1.361   .     S
C828   C830    1.388   .     A
C829   C835    1.401   .     A
C829   C831    1.413   .     A
C830   C836    1.401   .     A
C830   C832    1.413   .     A
C831   C833    1.412   .     A
C831   C274    1.394   1_556 S
C832   C834    1.412   .     A
C835   H839    1.083   .     S
C835   C251    1.388   1_556 S
C836   H840    1.083   .     S
N845   Zn855   2.031   .     S
N846   Zn856   2.031   .     S
O847   Zn855   2.002   .     S
O848   Zn856   2.002   .     S
O849   Zn855   2.002   .     S
O850   Zn856   2.002   .     S
O851   Zn855   2.018   .     S
O852   Zn856   2.018   .     S
O853   Zn855   2.022   .     S
O854   Zn856   2.022   .     S
O861   H862    0.979   .     S
O863   H864    0.979   .     S
O865   H866    0.979   .     S
O867   H868    0.979   .     S
C869   O912    1.292   .     A
C869   C878    1.422   .     S
C869   O909    1.292   .     A
C870   C877    1.422   .     S
C870   O911    1.292   .     A
C870   O910    1.292   .     A
C871   F921    1.358   .     S
C871   C896    1.402   .     A
C872   C895    1.402   .     A
C872   F922    1.358   .     S
C872   C340    1.388   1_556 S
C873   C878    1.398   .     A
C873   H903    1.084   .     S
C874   C877    1.398   .     A
C874   H904    1.084   .     S
C874   C752    1.370   1_655 S
C875   C877    1.398   .     A
C875   H905    1.083   .     S
C875   C749    1.370   1_655 S
C876   C878    1.398   .     A
C876   H906    1.083   .     S
C879   O923    1.376   .     S
C879   N908    1.378   .     A
C880   O925    1.376   .     S
C880   N907    1.378   .     A
C880   C1067   1.413   .     S
C881   O927    1.376   .     S
C881   N908    1.377   .     A
C882   N907    1.377   .     A
C882   O929    1.376   .     S
C882   C1065   1.413   .     S
C883   O916    1.295   .     A
C883   C888    1.439   .     S
C883   O913    1.297   .     A
C884   C887    1.439   .     S
C884   O915    1.295   .     A
C884   O914    1.297   .     A
C885   C887    1.396   .     A
C885   H899    1.085   .     S
C885   C895    1.384   .     A
C886   H900    1.085   .     S
C886   C896    1.384   .     A
C886   C888    1.396   .     A
C887   C889    1.402   .     A
C888   C890    1.402   .     A
C889   C891    1.388   .     A
C889   F919    1.361   .     S
C890   F920    1.361   .     S
C890   C892    1.388   .     A
C891   C897    1.401   .     A
C891   C893    1.413   .     A
C892   C898    1.401   .     A
C892   C894    1.413   .     A
C893   C895    1.412   .     A
C893   C336    1.394   1_556 S
C894   C896    1.412   .     A
C897   H901    1.083   .     S
C897   C313    1.388   1_556 S
C898   H902    1.083   .     S
N907   Zn917   2.031   .     S
N908   Zn918   2.031   .     S
O909   Zn917   2.002   .     S
O910   Zn918   2.002   .     S
O911   Zn917   2.002   .     S
O912   Zn918   2.002   .     S
O913   Zn917   2.018   .     S
O914   Zn918   2.018   .     S
O915   Zn917   2.022   .     S
O916   Zn918   2.022   .     S
O923   H924    0.979   .     S
O925   H926    0.979   .     S
O927   H928    0.979   .     S
O929   H930    0.979   .     S
C931   O974    1.292   .     A
C931   C940    1.422   .     S
C931   O971    1.292   .     A
C932   C939    1.422   .     S
C932   O973    1.292   .     A
C932   O972    1.292   .     A
C933   F983    1.358   .     S
C933   C958    1.402   .     A
C934   C957    1.402   .     A
C934   F984    1.358   .     S
C934   C402    1.388   1_556 S
C935   C940    1.398   .     A
C935   H965    1.084   .     S
C935   C1061   1.370   1_455 S
C936   C939    1.398   .     A
C936   H966    1.084   .     S
C936   C1000   1.370   .     S
C937   C939    1.398   .     A
C937   H967    1.083   .     S
C937   C997    1.370   .     S
C938   C940    1.398   .     A
C938   H968    1.083   .     S
C938   C1060   1.370   1_455 S
C941   O985    1.376   .     S
C941   N970    1.378   .     A
C942   O987    1.376   .     S
C942   N969    1.378   .     A
C942   C571    1.413   1_565 S
C943   O989    1.376   .     S
C943   N970    1.377   .     A
C944   N969    1.377   .     A
C944   O991    1.376   .     S
C944   C569    1.413   1_565 S
C945   O978    1.295   .     A
C945   C950    1.439   .     S
C945   O975    1.297   .     A
C946   C949    1.439   .     S
C946   O977    1.295   .     A
C946   O976    1.297   .     A
C947   C949    1.396   .     A
C947   H961    1.085   .     S
C947   C957    1.384   .     A
C948   H962    1.085   .     S
C948   C958    1.384   .     A
C948   C950    1.396   .     A
C949   C951    1.402   .     A
C950   C952    1.402   .     A
C951   C953    1.388   .     A
C951   F981    1.361   .     S
C952   F982    1.361   .     S
C952   C954    1.388   .     A
C953   C959    1.401   .     A
C953   C955    1.413   .     A
C954   C960    1.401   .     A
C954   C956    1.413   .     A
C955   C957    1.412   .     A
C955   C398    1.394   1_556 S
C956   C958    1.412   .     A
C959   H963    1.083   .     S
C959   C375    1.388   1_556 S
C960   H964    1.083   .     S
N969   Zn979   2.031   .     S
N970   Zn980   2.031   .     S
O971   Zn979   2.002   .     S
O972   Zn980   2.002   .     S
O973   Zn979   2.002   .     S
O974   Zn980   2.002   .     S
O975   Zn979   2.018   .     S
O976   Zn980   2.018   .     S
O977   Zn979   2.022   .     S
O978   Zn980   2.022   .     S
O985   H986    0.979   .     S
O987   H988    0.979   .     S
O989   H990    0.979   .     S
O991   H992    0.979   .     S
C993   O1036   1.292   .     A
C993   C1002   1.422   .     S
C993   O1033   1.292   .     A
C994   C1001   1.422   .     S
C994   O1035   1.292   .     A
C994   O1034   1.292   .     A
C995   F1045   1.358   .     S
C995   C1020   1.402   .     A
C996   C1019   1.402   .     A
C996   F1046   1.358   .     S
C996   C464    1.388   1_556 S
C997   C1002   1.398   .     A
C997   H1027   1.084   .     S
C998   C1001   1.398   .     A
C998   H1028   1.084   .     S
C998   C1062   1.370   .     S
C999   C1001   1.398   .     A
C999   H1029   1.083   .     S
C999   C1059   1.370   .     S
C1000  C1002   1.398   .     A
C1000  H1030   1.083   .     S
C1003  O1047   1.376   .     S
C1003  N1032   1.378   .     A
C1004  O1049   1.376   .     S
C1004  N1031   1.378   .     A
C1004  C633    1.413   1_565 S
C1005  O1051   1.376   .     S
C1005  N1032   1.377   .     A
C1006  N1031   1.377   .     A
C1006  O1053   1.376   .     S
C1006  C631    1.413   1_565 S
C1007  O1040   1.295   .     A
C1007  C1012   1.439   .     S
C1007  O1037   1.297   .     A
C1008  C1011   1.439   .     S
C1008  O1039   1.295   .     A
C1008  O1038   1.297   .     A
C1009  C1011   1.396   .     A
C1009  H1023   1.085   .     S
C1009  C1019   1.384   .     A
C1010  H1024   1.085   .     S
C1010  C1020   1.384   .     A
C1010  C1012   1.396   .     A
C1011  C1013   1.402   .     A
C1012  C1014   1.402   .     A
C1013  C1015   1.388   .     A
C1013  F1043   1.361   .     S
C1014  F1044   1.361   .     S
C1014  C1016   1.388   .     A
C1015  C1021   1.401   .     A
C1015  C1017   1.413   .     A
C1016  C1022   1.401   .     A
C1016  C1018   1.413   .     A
C1017  C1019   1.412   .     A
C1017  C460    1.394   1_556 S
C1018  C1020   1.412   .     A
C1021  H1025   1.083   .     S
C1021  C437    1.388   1_556 S
C1022  H1026   1.083   .     S
N1031  Zn1041  2.031   .     S
N1032  Zn1042  2.031   .     S
O1033  Zn1041  2.002   .     S
O1034  Zn1042  2.002   .     S
O1035  Zn1041  2.002   .     S
O1036  Zn1042  2.002   .     S
O1037  Zn1041  2.018   .     S
O1038  Zn1042  2.018   .     S
O1039  Zn1041  2.022   .     S
O1040  Zn1042  2.022   .     S
O1047  H1048   0.979   .     S
O1049  H1050   0.979   .     S
O1051  H1052   0.979   .     S
O1053  H1054   0.979   .     S
C1055  O1098   1.292   .     A
C1055  C1064   1.422   .     S
C1055  O1095   1.292   .     A
C1056  C1063   1.422   .     S
C1056  O1097   1.292   .     A
C1056  O1096   1.292   .     A
C1057  F1107   1.358   .     S
C1057  C1082   1.402   .     A
C1058  C1081   1.402   .     A
C1058  F1108   1.358   .     S
C1058  C526    1.388   1_556 S
C1059  C1064   1.398   .     A
C1059  H1089   1.084   .     S
C1060  C1063   1.398   .     A
C1060  H1090   1.084   .     S
C1060  C938    1.370   1_655 S
C1061  C1063   1.398   .     A
C1061  H1091   1.083   .     S
C1061  C935    1.370   1_655 S
C1062  C1064   1.398   .     A
C1062  H1092   1.083   .     S
C1065  O1109   1.376   .     S
C1065  N1094   1.378   .     A
C1066  O1111   1.376   .     S
C1066  N1093   1.378   .     A
C1066  C695    1.413   1_565 S
C1067  O1113   1.376   .     S
C1067  N1094   1.377   .     A
C1068  N1093   1.377   .     A
C1068  O1115   1.376   .     S
C1068  C693    1.413   1_565 S
C1069  O1102   1.295   .     A
C1069  C1074   1.439   .     S
C1069  O1099   1.297   .     A
C1070  C1073   1.439   .     S
C1070  O1101   1.295   .     A
C1070  O1100   1.297   .     A
C1071  C1073   1.396   .     A
C1071  H1085   1.085   .     S
C1071  C1081   1.384   .     A
C1072  H1086   1.085   .     S
C1072  C1082   1.384   .     A
C1072  C1074   1.396   .     A
C1073  C1075   1.402   .     A
C1074  C1076   1.402   .     A
C1075  C1077   1.388   .     A
C1075  F1105   1.361   .     S
C1076  F1106   1.361   .     S
C1076  C1078   1.388   .     A
C1077  C1083   1.401   .     A
C1077  C1079   1.413   .     A
C1078  C1084   1.401   .     A
C1078  C1080   1.413   .     A
C1079  C1081   1.412   .     A
C1079  C522    1.394   1_556 S
C1080  C1082   1.412   .     A
C1083  H1087   1.083   .     S
C1083  C499    1.388   1_556 S
C1084  H1088   1.083   .     S
N1093  Zn1103  2.031   .     S
N1094  Zn1104  2.031   .     S
O1095  Zn1103  2.002   .     S
O1096  Zn1104  2.002   .     S
O1097  Zn1103  2.002   .     S
O1098  Zn1104  2.002   .     S
O1099  Zn1103  2.018   .     S
O1100  Zn1104  2.018   .     S
O1101  Zn1103  2.022   .     S
O1102  Zn1104  2.022   .     S
O1109  H1110   0.979   .     S
O1111  H1112   0.979   .     S
O1113  H1114   0.979   .     S
O1115  H1116   0.979   .     S
