data_str_m3_o1_o16_pcu_sym.25
_audit_creation_date              2020-01-03
_audit_creation_method            'Materials Studio'
_symmetry_space_group_name_H-M    'P1'
_symmetry_Int_Tables_number       1
_symmetry_cell_setting            triclinic
loop_
_symmetry_equiv_pos_as_xyz
  x,y,z
_cell_length_a                    30.1526
_cell_length_b                    32.0954
_cell_length_c                    26.0960
_cell_angle_alpha                 89.2456
_cell_angle_beta                  73.7435
_cell_angle_gamma                 89.4848
loop_
_atom_site_label
_atom_site_type_symbol
_atom_site_fract_x
_atom_site_fract_y
_atom_site_fract_z
_atom_site_U_iso_or_equiv
_atom_site_adp_type
_atom_site_occupancy
O1     O     0.12846   0.22775   0.25001   0.00000  Uiso   1.00
O2     O     0.20490   0.22774   0.25001   0.00000  Uiso   1.00
C3     C     0.16680   0.24640   0.24939   0.00000  Uiso   1.00
O4     O     0.10947   0.16666   0.32681   0.00000  Uiso   1.00
O5     O     0.18591   0.16665   0.32681   0.00000  Uiso   1.00
C6     C     0.14272   0.15905   0.35008   0.00000  Uiso   1.00
Zn7    Zn    0.11562   0.16667   0.25000   0.00000  Uiso   1.00
Zn8    Zn    0.21771   0.16666   0.25000   0.00000  Uiso   1.00
O9     O     0.12843   0.10559   0.25000   0.00000  Uiso   1.00
O10    O     0.20488   0.10558   0.25000   0.00000  Uiso   1.00
O11    O     0.14742   0.16668   0.17319   0.00000  Uiso   1.00
O12    O     0.22387   0.16667   0.17319   0.00000  Uiso   1.00
C13    C     0.16654   0.08684   0.25081   0.00000  Uiso   1.00
C14    C     0.19162   0.16723   0.14861   0.00000  Uiso   1.00
C15    C     0.26807   0.15478   0.01075   0.00000  Uiso   1.00
C16    C     0.20603   0.16387   0.09100   0.00000  Uiso   1.00
C17    C     0.09046   0.12273   0.42988   0.00000  Uiso   1.00
C18    C     0.08353   0.10287   0.47978   0.00000  Uiso   1.00
C19    C     0.11526   0.10754   0.00907   0.00000  Uiso   1.00
C20    C     0.15756   0.12730   0.48396   0.00000  Uiso   1.00
C21    C     0.16961   0.13262   0.42843   0.00000  Uiso   1.00
C22    C     0.18912   0.14088   0.01070   0.00000  Uiso   1.00
C23    C     0.23630   0.14547   0.48211   0.00000  Uiso   1.00
C24    C     0.25019   0.13845   0.42640   0.00000  Uiso   1.00
C25    C     0.21677   0.13051   0.40072   0.00000  Uiso   1.00
C26    C     0.17420   0.15240   0.06423   0.00000  Uiso   1.00
C27    C     0.25275   0.16579   0.06394   0.00000  Uiso   1.00
C28    C     0.13376   0.13882   0.40357   0.00000  Uiso   1.00
H29    H     0.06330   0.12362   0.41037   0.00000  Uiso   1.00
H30    H     0.05346   0.08423   0.49699   0.00000  Uiso   1.00
C31    C     0.20653   0.31209   0.22208   0.00000  Uiso   1.00
H32    H     0.23723   0.29587   0.19920   0.00000  Uiso   1.00
C33    C     0.20640   0.02157   0.22391   0.00000  Uiso   1.00
H34    H     0.23711   0.03836   0.20226   0.00000  Uiso   1.00
C35    C     0.16625   0.04247   0.25212   0.00000  Uiso   1.00
C36    C     0.12605   0.02052   0.27927   0.00000  Uiso   1.00
C37    C     0.12746   0.31111   0.27872   0.00000  Uiso   1.00
H38    H     0.09836   0.29403   0.30294   0.00000  Uiso   1.00
C39    C     0.16690   0.29054   0.24956   0.00000  Uiso   1.00
C40    C     0.31512   0.13452   0.22861   0.00000  Uiso   1.00
C41    C     0.02915   0.13438   0.22899   0.00000  Uiso   1.00
N42    N     0.04760   0.16668   0.25002   0.00000  Uiso   1.00
C43    C     0.01839   0.19941   0.27025   0.00000  Uiso   1.00
C44    C     0.30387   0.19894   0.27142   0.00000  Uiso   1.00
N45    N     0.28573   0.16665   0.25001   0.00000  Uiso   1.00
H46    H     0.27802   0.17193   0.08533   0.00000  Uiso   1.00
N47    N     0.08437   0.04072   0.30898   0.00000  Uiso   1.00
O48    O     0.04444   0.02699   0.30689   0.00000  Uiso   1.00
O49    O     0.08584   0.06759   0.34511   0.00000  Uiso   1.00
H50    H     0.30211   0.10851   0.21130   0.00000  Uiso   1.00
H51    H     0.05098   0.10824   0.21202   0.00000  Uiso   1.00
N52    N     0.03580   0.23499   0.29017   0.00000  Uiso   1.00
O53    O     0.04689   0.23261   0.33480   0.00000  Uiso   1.00
O54    O     0.03607   0.27092   0.26646   0.00000  Uiso   1.00
N55    N     0.27410   0.23167   0.29795   0.00000  Uiso   1.00
O56    O     0.24661   0.22527   0.34550   0.00000  Uiso   1.00
O57    O     0.27793   0.26906   0.27744   0.00000  Uiso   1.00
N58    N     0.29659   0.14478   0.39390   0.00000  Uiso   1.00
O59    O     0.31564   0.11841   0.35662   0.00000  Uiso   1.00
O60    O     0.31696   0.17998   0.39592   0.00000  Uiso   1.00
N61    N     0.31489   0.14293   0.49083   0.00000  Uiso   1.00
O62    O     0.32339   0.10529   0.47270   0.00000  Uiso   1.00
O63    O     0.01352   0.16473   0.00250   0.00000  Uiso   1.00
H64    H     0.13780   0.15231   0.08536   0.00000  Uiso   1.00
N65    N     0.10676   0.08699   0.06023   0.00000  Uiso   1.00
O66    O     0.13990   0.06691   0.07298   0.00000  Uiso   1.00
O67    O     0.06480   0.08380   0.09127   0.00000  Uiso   1.00
H68    H     0.22862   0.12268   0.35898   0.00000  Uiso   1.00
O69    O     0.46179   0.22775   0.25001   0.00000  Uiso   1.00
O70    O     0.53823   0.22774   0.25001   0.00000  Uiso   1.00
C71    C     0.50013   0.24640   0.24939   0.00000  Uiso   1.00
O72    O     0.44280   0.16666   0.32681   0.00000  Uiso   1.00
O73    O     0.51924   0.16665   0.32681   0.00000  Uiso   1.00
C74    C     0.47605   0.15905   0.35008   0.00000  Uiso   1.00
Zn75   Zn    0.44896   0.16667   0.25000   0.00000  Uiso   1.00
Zn76   Zn    0.55104   0.16666   0.25000   0.00000  Uiso   1.00
O77    O     0.46177   0.10559   0.25000   0.00000  Uiso   1.00
O78    O     0.53821   0.10558   0.25000   0.00000  Uiso   1.00
O79    O     0.48076   0.16668   0.17319   0.00000  Uiso   1.00
O80    O     0.55720   0.16667   0.17319   0.00000  Uiso   1.00
C81    C     0.49987   0.08684   0.25081   0.00000  Uiso   1.00
C82    C     0.52496   0.16723   0.14861   0.00000  Uiso   1.00
C83    C     0.60141   0.15478   0.01075   0.00000  Uiso   1.00
C84    C     0.53936   0.16387   0.09100   0.00000  Uiso   1.00
C85    C     0.42379   0.12273   0.42988   0.00000  Uiso   1.00
C86    C     0.41686   0.10287   0.47978   0.00000  Uiso   1.00
C87    C     0.44859   0.10754   0.00907   0.00000  Uiso   1.00
C88    C     0.49090   0.12730   0.48396   0.00000  Uiso   1.00
C89    C     0.50295   0.13262   0.42843   0.00000  Uiso   1.00
C90    C     0.52245   0.14088   0.01070   0.00000  Uiso   1.00
C91    C     0.56964   0.14547   0.48211   0.00000  Uiso   1.00
C92    C     0.58352   0.13845   0.42640   0.00000  Uiso   1.00
C93    C     0.55010   0.13051   0.40072   0.00000  Uiso   1.00
C94    C     0.50754   0.15240   0.06423   0.00000  Uiso   1.00
C95    C     0.58608   0.16579   0.06394   0.00000  Uiso   1.00
C96    C     0.46709   0.13882   0.40357   0.00000  Uiso   1.00
H97    H     0.39663   0.12362   0.41037   0.00000  Uiso   1.00
H98    H     0.38680   0.08423   0.49699   0.00000  Uiso   1.00
C99    C     0.53987   0.31209   0.22208   0.00000  Uiso   1.00
H100   H     0.57057   0.29587   0.19920   0.00000  Uiso   1.00
C101   C     0.53973   0.02157   0.22391   0.00000  Uiso   1.00
H102   H     0.57044   0.03836   0.20226   0.00000  Uiso   1.00
C103   C     0.49959   0.04247   0.25212   0.00000  Uiso   1.00
C104   C     0.45938   0.02052   0.27927   0.00000  Uiso   1.00
C105   C     0.46079   0.31111   0.27872   0.00000  Uiso   1.00
H106   H     0.43169   0.29403   0.30294   0.00000  Uiso   1.00
C107   C     0.50023   0.29054   0.24956   0.00000  Uiso   1.00
C108   C     0.64845   0.13452   0.22861   0.00000  Uiso   1.00
C109   C     0.36248   0.13438   0.22899   0.00000  Uiso   1.00
N110   N     0.38093   0.16668   0.25002   0.00000  Uiso   1.00
C111   C     0.35173   0.19941   0.27025   0.00000  Uiso   1.00
C112   C     0.63721   0.19894   0.27142   0.00000  Uiso   1.00
N113   N     0.61906   0.16665   0.25001   0.00000  Uiso   1.00
H114   H     0.61135   0.17193   0.08533   0.00000  Uiso   1.00
N115   N     0.41771   0.04072   0.30898   0.00000  Uiso   1.00
O116   O     0.37777   0.02699   0.30689   0.00000  Uiso   1.00
O117   O     0.41917   0.06759   0.34511   0.00000  Uiso   1.00
H118   H     0.63544   0.10851   0.21130   0.00000  Uiso   1.00
H119   H     0.38431   0.10824   0.21202   0.00000  Uiso   1.00
N120   N     0.36913   0.23499   0.29017   0.00000  Uiso   1.00
O121   O     0.38022   0.23261   0.33480   0.00000  Uiso   1.00
O122   O     0.36940   0.27092   0.26646   0.00000  Uiso   1.00
N123   N     0.60743   0.23167   0.29795   0.00000  Uiso   1.00
O124   O     0.57994   0.22527   0.34550   0.00000  Uiso   1.00
O125   O     0.61126   0.26906   0.27744   0.00000  Uiso   1.00
N126   N     0.62992   0.14478   0.39390   0.00000  Uiso   1.00
O127   O     0.64897   0.11841   0.35662   0.00000  Uiso   1.00
O128   O     0.65029   0.17998   0.39592   0.00000  Uiso   1.00
N129   N     0.64822   0.14293   0.49083   0.00000  Uiso   1.00
O130   O     0.65673   0.10529   0.47270   0.00000  Uiso   1.00
O131   O     0.34685   0.16473   0.00250   0.00000  Uiso   1.00
H132   H     0.47113   0.15231   0.08536   0.00000  Uiso   1.00
N133   N     0.44009   0.08699   0.06023   0.00000  Uiso   1.00
O134   O     0.47323   0.06691   0.07298   0.00000  Uiso   1.00
O135   O     0.39813   0.08380   0.09127   0.00000  Uiso   1.00
H136   H     0.56196   0.12268   0.35898   0.00000  Uiso   1.00
O137   O     0.79512   0.22775   0.25001   0.00000  Uiso   1.00
O138   O     0.87157   0.22774   0.25001   0.00000  Uiso   1.00
C139   C     0.83347   0.24640   0.24939   0.00000  Uiso   1.00
O140   O     0.77613   0.16666   0.32681   0.00000  Uiso   1.00
O141   O     0.85258   0.16665   0.32681   0.00000  Uiso   1.00
C142   C     0.80939   0.15905   0.35008   0.00000  Uiso   1.00
Zn143  Zn    0.78229   0.16667   0.25000   0.00000  Uiso   1.00
Zn144  Zn    0.88438   0.16666   0.25000   0.00000  Uiso   1.00
O145   O     0.79510   0.10559   0.25000   0.00000  Uiso   1.00
O146   O     0.87154   0.10558   0.25000   0.00000  Uiso   1.00
O147   O     0.81409   0.16668   0.17319   0.00000  Uiso   1.00
O148   O     0.89053   0.16667   0.17319   0.00000  Uiso   1.00
C149   C     0.83320   0.08684   0.25081   0.00000  Uiso   1.00
C150   C     0.85829   0.16723   0.14861   0.00000  Uiso   1.00
C151   C     0.93474   0.15478   0.01075   0.00000  Uiso   1.00
C152   C     0.87270   0.16387   0.09100   0.00000  Uiso   1.00
C153   C     0.75713   0.12273   0.42988   0.00000  Uiso   1.00
C154   C     0.75020   0.10287   0.47978   0.00000  Uiso   1.00
C155   C     0.78192   0.10754   0.00907   0.00000  Uiso   1.00
C156   C     0.82423   0.12730   0.48396   0.00000  Uiso   1.00
C157   C     0.83628   0.13262   0.42843   0.00000  Uiso   1.00
C158   C     0.85579   0.14088   0.01070   0.00000  Uiso   1.00
C159   C     0.90297   0.14547   0.48211   0.00000  Uiso   1.00
C160   C     0.91685   0.13845   0.42640   0.00000  Uiso   1.00
C161   C     0.88344   0.13051   0.40072   0.00000  Uiso   1.00
C162   C     0.84087   0.15240   0.06423   0.00000  Uiso   1.00
C163   C     0.91941   0.16579   0.06394   0.00000  Uiso   1.00
C164   C     0.80042   0.13882   0.40357   0.00000  Uiso   1.00
H165   H     0.72997   0.12362   0.41037   0.00000  Uiso   1.00
H166   H     0.72013   0.08423   0.49699   0.00000  Uiso   1.00
C167   C     0.87320   0.31209   0.22208   0.00000  Uiso   1.00
H168   H     0.90390   0.29587   0.19920   0.00000  Uiso   1.00
C169   C     0.87306   0.02157   0.22391   0.00000  Uiso   1.00
H170   H     0.90378   0.03836   0.20226   0.00000  Uiso   1.00
C171   C     0.83292   0.04247   0.25212   0.00000  Uiso   1.00
C172   C     0.79272   0.02052   0.27927   0.00000  Uiso   1.00
C173   C     0.79412   0.31111   0.27872   0.00000  Uiso   1.00
H174   H     0.76502   0.29403   0.30294   0.00000  Uiso   1.00
C175   C     0.83356   0.29054   0.24956   0.00000  Uiso   1.00
C176   C     0.98179   0.13452   0.22861   0.00000  Uiso   1.00
C177   C     0.69581   0.13438   0.22899   0.00000  Uiso   1.00
N178   N     0.71426   0.16668   0.25002   0.00000  Uiso   1.00
C179   C     0.68506   0.19941   0.27025   0.00000  Uiso   1.00
C180   C     0.97054   0.19894   0.27142   0.00000  Uiso   1.00
N181   N     0.95239   0.16665   0.25001   0.00000  Uiso   1.00
H182   H     0.94468   0.17193   0.08533   0.00000  Uiso   1.00
N183   N     0.75104   0.04072   0.30898   0.00000  Uiso   1.00
O184   O     0.71111   0.02699   0.30689   0.00000  Uiso   1.00
O185   O     0.75250   0.06759   0.34511   0.00000  Uiso   1.00
H186   H     0.96877   0.10851   0.21130   0.00000  Uiso   1.00
H187   H     0.71765   0.10824   0.21202   0.00000  Uiso   1.00
N188   N     0.70246   0.23499   0.29017   0.00000  Uiso   1.00
O189   O     0.71355   0.23261   0.33480   0.00000  Uiso   1.00
O190   O     0.70273   0.27092   0.26646   0.00000  Uiso   1.00
N191   N     0.94076   0.23167   0.29795   0.00000  Uiso   1.00
O192   O     0.91327   0.22527   0.34550   0.00000  Uiso   1.00
O193   O     0.94460   0.26906   0.27744   0.00000  Uiso   1.00
N194   N     0.96326   0.14478   0.39390   0.00000  Uiso   1.00
O195   O     0.98230   0.11841   0.35662   0.00000  Uiso   1.00
O196   O     0.98363   0.17998   0.39592   0.00000  Uiso   1.00
N197   N     0.98155   0.14293   0.49083   0.00000  Uiso   1.00
O198   O     0.99006   0.10529   0.47270   0.00000  Uiso   1.00
O199   O     0.68019   0.16473   0.00250   0.00000  Uiso   1.00
H200   H     0.80446   0.15231   0.08536   0.00000  Uiso   1.00
N201   N     0.77342   0.08699   0.06023   0.00000  Uiso   1.00
O202   O     0.80657   0.06691   0.07298   0.00000  Uiso   1.00
O203   O     0.73146   0.08380   0.09127   0.00000  Uiso   1.00
H204   H     0.89529   0.12268   0.35898   0.00000  Uiso   1.00
O205   O     0.12846   0.56108   0.25001   0.00000  Uiso   1.00
O206   O     0.20490   0.56107   0.25001   0.00000  Uiso   1.00
C207   C     0.16680   0.57974   0.24939   0.00000  Uiso   1.00
O208   O     0.10947   0.50000   0.32681   0.00000  Uiso   1.00
O209   O     0.18591   0.49999   0.32681   0.00000  Uiso   1.00
C210   C     0.14272   0.49238   0.35008   0.00000  Uiso   1.00
Zn211  Zn    0.11562   0.50001   0.25000   0.00000  Uiso   1.00
Zn212  Zn    0.21771   0.49999   0.25000   0.00000  Uiso   1.00
O213   O     0.12843   0.43893   0.25000   0.00000  Uiso   1.00
O214   O     0.20488   0.43892   0.25000   0.00000  Uiso   1.00
O215   O     0.14742   0.50001   0.17319   0.00000  Uiso   1.00
O216   O     0.22387   0.50000   0.17319   0.00000  Uiso   1.00
C217   C     0.16654   0.42017   0.25081   0.00000  Uiso   1.00
C218   C     0.19162   0.50056   0.14861   0.00000  Uiso   1.00
C219   C     0.26807   0.48812   0.01075   0.00000  Uiso   1.00
C220   C     0.20603   0.49720   0.09100   0.00000  Uiso   1.00
C221   C     0.09046   0.45607   0.42988   0.00000  Uiso   1.00
C222   C     0.08353   0.43620   0.47978   0.00000  Uiso   1.00
C223   C     0.11526   0.44087   0.00907   0.00000  Uiso   1.00
C224   C     0.15756   0.46063   0.48396   0.00000  Uiso   1.00
C225   C     0.16961   0.46596   0.42843   0.00000  Uiso   1.00
C226   C     0.18912   0.47422   0.01070   0.00000  Uiso   1.00
C227   C     0.23630   0.47880   0.48211   0.00000  Uiso   1.00
C228   C     0.25019   0.47178   0.42640   0.00000  Uiso   1.00
C229   C     0.21677   0.46385   0.40072   0.00000  Uiso   1.00
C230   C     0.17420   0.48573   0.06423   0.00000  Uiso   1.00
C231   C     0.25275   0.49912   0.06394   0.00000  Uiso   1.00
C232   C     0.13376   0.47215   0.40357   0.00000  Uiso   1.00
H233   H     0.06330   0.45696   0.41037   0.00000  Uiso   1.00
H234   H     0.05346   0.41756   0.49699   0.00000  Uiso   1.00
C235   C     0.20653   0.64543   0.22208   0.00000  Uiso   1.00
H236   H     0.23723   0.62921   0.19920   0.00000  Uiso   1.00
C237   C     0.20640   0.35490   0.22391   0.00000  Uiso   1.00
H238   H     0.23711   0.37169   0.20226   0.00000  Uiso   1.00
C239   C     0.16625   0.37580   0.25212   0.00000  Uiso   1.00
C240   C     0.12605   0.35385   0.27927   0.00000  Uiso   1.00
C241   C     0.12746   0.64444   0.27872   0.00000  Uiso   1.00
H242   H     0.09836   0.62736   0.30294   0.00000  Uiso   1.00
C243   C     0.16690   0.62387   0.24956   0.00000  Uiso   1.00
C244   C     0.31512   0.46785   0.22861   0.00000  Uiso   1.00
C245   C     0.02915   0.46772   0.22899   0.00000  Uiso   1.00
N246   N     0.04760   0.50001   0.25002   0.00000  Uiso   1.00
C247   C     0.01839   0.53275   0.27025   0.00000  Uiso   1.00
C248   C     0.30387   0.53227   0.27142   0.00000  Uiso   1.00
N249   N     0.28573   0.49998   0.25001   0.00000  Uiso   1.00
H250   H     0.27802   0.50527   0.08533   0.00000  Uiso   1.00
N251   N     0.08437   0.37405   0.30898   0.00000  Uiso   1.00
O252   O     0.04444   0.36033   0.30689   0.00000  Uiso   1.00
O253   O     0.08584   0.40093   0.34511   0.00000  Uiso   1.00
H254   H     0.30211   0.44184   0.21130   0.00000  Uiso   1.00
H255   H     0.05098   0.44157   0.21202   0.00000  Uiso   1.00
N256   N     0.03580   0.56832   0.29017   0.00000  Uiso   1.00
O257   O     0.04689   0.56594   0.33480   0.00000  Uiso   1.00
O258   O     0.03607   0.60425   0.26646   0.00000  Uiso   1.00
N259   N     0.27410   0.56500   0.29795   0.00000  Uiso   1.00
O260   O     0.24661   0.55861   0.34550   0.00000  Uiso   1.00
O261   O     0.27793   0.60239   0.27744   0.00000  Uiso   1.00
N262   N     0.29659   0.47811   0.39390   0.00000  Uiso   1.00
O263   O     0.31564   0.45174   0.35662   0.00000  Uiso   1.00
O264   O     0.31696   0.51332   0.39592   0.00000  Uiso   1.00
N265   N     0.31489   0.47626   0.49083   0.00000  Uiso   1.00
O266   O     0.32339   0.43863   0.47270   0.00000  Uiso   1.00
O267   O     0.01352   0.49806   0.00250   0.00000  Uiso   1.00
H268   H     0.13780   0.48564   0.08536   0.00000  Uiso   1.00
N269   N     0.10676   0.42033   0.06023   0.00000  Uiso   1.00
O270   O     0.13990   0.40024   0.07298   0.00000  Uiso   1.00
O271   O     0.06480   0.41713   0.09127   0.00000  Uiso   1.00
H272   H     0.22862   0.45601   0.35898   0.00000  Uiso   1.00
O273   O     0.46179   0.56108   0.25001   0.00000  Uiso   1.00
O274   O     0.53823   0.56107   0.25001   0.00000  Uiso   1.00
C275   C     0.50013   0.57974   0.24939   0.00000  Uiso   1.00
O276   O     0.44280   0.50000   0.32681   0.00000  Uiso   1.00
O277   O     0.51924   0.49999   0.32681   0.00000  Uiso   1.00
C278   C     0.47605   0.49238   0.35008   0.00000  Uiso   1.00
Zn279  Zn    0.44896   0.50001   0.25000   0.00000  Uiso   1.00
Zn280  Zn    0.55104   0.49999   0.25000   0.00000  Uiso   1.00
O281   O     0.46177   0.43893   0.25000   0.00000  Uiso   1.00
O282   O     0.53821   0.43892   0.25000   0.00000  Uiso   1.00
O283   O     0.48076   0.50001   0.17319   0.00000  Uiso   1.00
O284   O     0.55720   0.50000   0.17319   0.00000  Uiso   1.00
C285   C     0.49987   0.42017   0.25081   0.00000  Uiso   1.00
C286   C     0.52496   0.50056   0.14861   0.00000  Uiso   1.00
C287   C     0.60141   0.48812   0.01075   0.00000  Uiso   1.00
C288   C     0.53936   0.49720   0.09100   0.00000  Uiso   1.00
C289   C     0.42379   0.45607   0.42988   0.00000  Uiso   1.00
C290   C     0.41686   0.43620   0.47978   0.00000  Uiso   1.00
C291   C     0.44859   0.44087   0.00907   0.00000  Uiso   1.00
C292   C     0.49090   0.46063   0.48396   0.00000  Uiso   1.00
C293   C     0.50295   0.46596   0.42843   0.00000  Uiso   1.00
C294   C     0.52245   0.47422   0.01070   0.00000  Uiso   1.00
C295   C     0.56964   0.47880   0.48211   0.00000  Uiso   1.00
C296   C     0.58352   0.47178   0.42640   0.00000  Uiso   1.00
C297   C     0.55010   0.46385   0.40072   0.00000  Uiso   1.00
C298   C     0.50754   0.48573   0.06423   0.00000  Uiso   1.00
C299   C     0.58608   0.49912   0.06394   0.00000  Uiso   1.00
C300   C     0.46709   0.47215   0.40357   0.00000  Uiso   1.00
H301   H     0.39663   0.45696   0.41037   0.00000  Uiso   1.00
H302   H     0.38680   0.41756   0.49699   0.00000  Uiso   1.00
C303   C     0.53987   0.64543   0.22208   0.00000  Uiso   1.00
H304   H     0.57057   0.62921   0.19920   0.00000  Uiso   1.00
C305   C     0.53973   0.35490   0.22391   0.00000  Uiso   1.00
H306   H     0.57044   0.37169   0.20226   0.00000  Uiso   1.00
C307   C     0.49959   0.37580   0.25212   0.00000  Uiso   1.00
C308   C     0.45938   0.35385   0.27927   0.00000  Uiso   1.00
C309   C     0.46079   0.64444   0.27872   0.00000  Uiso   1.00
H310   H     0.43169   0.62736   0.30294   0.00000  Uiso   1.00
C311   C     0.50023   0.62387   0.24956   0.00000  Uiso   1.00
C312   C     0.64845   0.46785   0.22861   0.00000  Uiso   1.00
C313   C     0.36248   0.46772   0.22899   0.00000  Uiso   1.00
N314   N     0.38093   0.50001   0.25002   0.00000  Uiso   1.00
C315   C     0.35173   0.53275   0.27025   0.00000  Uiso   1.00
C316   C     0.63721   0.53227   0.27142   0.00000  Uiso   1.00
N317   N     0.61906   0.49998   0.25001   0.00000  Uiso   1.00
H318   H     0.61135   0.50527   0.08533   0.00000  Uiso   1.00
N319   N     0.41771   0.37405   0.30898   0.00000  Uiso   1.00
O320   O     0.37777   0.36033   0.30689   0.00000  Uiso   1.00
O321   O     0.41917   0.40093   0.34511   0.00000  Uiso   1.00
H322   H     0.63544   0.44184   0.21130   0.00000  Uiso   1.00
H323   H     0.38431   0.44157   0.21202   0.00000  Uiso   1.00
N324   N     0.36913   0.56832   0.29017   0.00000  Uiso   1.00
O325   O     0.38022   0.56594   0.33480   0.00000  Uiso   1.00
O326   O     0.36940   0.60425   0.26646   0.00000  Uiso   1.00
N327   N     0.60743   0.56500   0.29795   0.00000  Uiso   1.00
O328   O     0.57994   0.55861   0.34550   0.00000  Uiso   1.00
O329   O     0.61126   0.60239   0.27744   0.00000  Uiso   1.00
N330   N     0.62992   0.47811   0.39390   0.00000  Uiso   1.00
O331   O     0.64897   0.45174   0.35662   0.00000  Uiso   1.00
O332   O     0.65029   0.51332   0.39592   0.00000  Uiso   1.00
N333   N     0.64822   0.47626   0.49083   0.00000  Uiso   1.00
O334   O     0.65673   0.43863   0.47270   0.00000  Uiso   1.00
O335   O     0.34685   0.49806   0.00250   0.00000  Uiso   1.00
H336   H     0.47113   0.48564   0.08536   0.00000  Uiso   1.00
N337   N     0.44009   0.42033   0.06023   0.00000  Uiso   1.00
O338   O     0.47323   0.40024   0.07298   0.00000  Uiso   1.00
O339   O     0.39813   0.41713   0.09127   0.00000  Uiso   1.00
H340   H     0.56196   0.45601   0.35898   0.00000  Uiso   1.00
O341   O     0.79512   0.56108   0.25001   0.00000  Uiso   1.00
O342   O     0.87157   0.56107   0.25001   0.00000  Uiso   1.00
C343   C     0.83347   0.57974   0.24939   0.00000  Uiso   1.00
O344   O     0.77613   0.50000   0.32681   0.00000  Uiso   1.00
O345   O     0.85258   0.49999   0.32681   0.00000  Uiso   1.00
C346   C     0.80939   0.49238   0.35008   0.00000  Uiso   1.00
Zn347  Zn    0.78229   0.50001   0.25000   0.00000  Uiso   1.00
Zn348  Zn    0.88438   0.49999   0.25000   0.00000  Uiso   1.00
O349   O     0.79510   0.43893   0.25000   0.00000  Uiso   1.00
O350   O     0.87154   0.43892   0.25000   0.00000  Uiso   1.00
O351   O     0.81409   0.50001   0.17319   0.00000  Uiso   1.00
O352   O     0.89053   0.50000   0.17319   0.00000  Uiso   1.00
C353   C     0.83320   0.42017   0.25081   0.00000  Uiso   1.00
C354   C     0.85829   0.50056   0.14861   0.00000  Uiso   1.00
C355   C     0.93474   0.48812   0.01075   0.00000  Uiso   1.00
C356   C     0.87270   0.49720   0.09100   0.00000  Uiso   1.00
C357   C     0.75713   0.45607   0.42988   0.00000  Uiso   1.00
C358   C     0.75020   0.43620   0.47978   0.00000  Uiso   1.00
C359   C     0.78192   0.44087   0.00907   0.00000  Uiso   1.00
C360   C     0.82423   0.46063   0.48396   0.00000  Uiso   1.00
C361   C     0.83628   0.46596   0.42843   0.00000  Uiso   1.00
C362   C     0.85579   0.47422   0.01070   0.00000  Uiso   1.00
C363   C     0.90297   0.47880   0.48211   0.00000  Uiso   1.00
C364   C     0.91685   0.47178   0.42640   0.00000  Uiso   1.00
C365   C     0.88344   0.46385   0.40072   0.00000  Uiso   1.00
C366   C     0.84087   0.48573   0.06423   0.00000  Uiso   1.00
C367   C     0.91941   0.49912   0.06394   0.00000  Uiso   1.00
C368   C     0.80042   0.47215   0.40357   0.00000  Uiso   1.00
H369   H     0.72997   0.45696   0.41037   0.00000  Uiso   1.00
H370   H     0.72013   0.41756   0.49699   0.00000  Uiso   1.00
C371   C     0.87320   0.64543   0.22208   0.00000  Uiso   1.00
H372   H     0.90390   0.62921   0.19920   0.00000  Uiso   1.00
C373   C     0.87306   0.35490   0.22391   0.00000  Uiso   1.00
H374   H     0.90378   0.37169   0.20226   0.00000  Uiso   1.00
C375   C     0.83292   0.37580   0.25212   0.00000  Uiso   1.00
C376   C     0.79272   0.35385   0.27927   0.00000  Uiso   1.00
C377   C     0.79412   0.64444   0.27872   0.00000  Uiso   1.00
H378   H     0.76502   0.62736   0.30294   0.00000  Uiso   1.00
C379   C     0.83356   0.62387   0.24956   0.00000  Uiso   1.00
C380   C     0.98179   0.46785   0.22861   0.00000  Uiso   1.00
C381   C     0.69581   0.46772   0.22899   0.00000  Uiso   1.00
N382   N     0.71426   0.50001   0.25002   0.00000  Uiso   1.00
C383   C     0.68506   0.53275   0.27025   0.00000  Uiso   1.00
C384   C     0.97054   0.53227   0.27142   0.00000  Uiso   1.00
N385   N     0.95239   0.49998   0.25001   0.00000  Uiso   1.00
H386   H     0.94468   0.50527   0.08533   0.00000  Uiso   1.00
N387   N     0.75104   0.37405   0.30898   0.00000  Uiso   1.00
O388   O     0.71111   0.36033   0.30689   0.00000  Uiso   1.00
O389   O     0.75250   0.40093   0.34511   0.00000  Uiso   1.00
H390   H     0.96877   0.44184   0.21130   0.00000  Uiso   1.00
H391   H     0.71765   0.44157   0.21202   0.00000  Uiso   1.00
N392   N     0.70246   0.56832   0.29017   0.00000  Uiso   1.00
O393   O     0.71355   0.56594   0.33480   0.00000  Uiso   1.00
O394   O     0.70273   0.60425   0.26646   0.00000  Uiso   1.00
N395   N     0.94076   0.56500   0.29795   0.00000  Uiso   1.00
O396   O     0.91327   0.55861   0.34550   0.00000  Uiso   1.00
O397   O     0.94460   0.60239   0.27744   0.00000  Uiso   1.00
N398   N     0.96326   0.47811   0.39390   0.00000  Uiso   1.00
O399   O     0.98230   0.45174   0.35662   0.00000  Uiso   1.00
O400   O     0.98363   0.51332   0.39592   0.00000  Uiso   1.00
N401   N     0.98155   0.47626   0.49083   0.00000  Uiso   1.00
O402   O     0.99006   0.43863   0.47270   0.00000  Uiso   1.00
O403   O     0.68019   0.49806   0.00250   0.00000  Uiso   1.00
H404   H     0.80446   0.48564   0.08536   0.00000  Uiso   1.00
N405   N     0.77342   0.42033   0.06023   0.00000  Uiso   1.00
O406   O     0.80657   0.40024   0.07298   0.00000  Uiso   1.00
O407   O     0.73146   0.41713   0.09127   0.00000  Uiso   1.00
H408   H     0.89529   0.45601   0.35898   0.00000  Uiso   1.00
O409   O     0.12846   0.89442   0.25001   0.00000  Uiso   1.00
O410   O     0.20490   0.89441   0.25001   0.00000  Uiso   1.00
C411   C     0.16680   0.91307   0.24939   0.00000  Uiso   1.00
O412   O     0.10947   0.83333   0.32681   0.00000  Uiso   1.00
O413   O     0.18591   0.83332   0.32681   0.00000  Uiso   1.00
C414   C     0.14272   0.82572   0.35008   0.00000  Uiso   1.00
Zn415  Zn    0.11562   0.83334   0.25000   0.00000  Uiso   1.00
Zn416  Zn    0.21771   0.83333   0.25000   0.00000  Uiso   1.00
O417   O     0.12843   0.77226   0.25000   0.00000  Uiso   1.00
O418   O     0.20488   0.77225   0.25000   0.00000  Uiso   1.00
O419   O     0.14742   0.83335   0.17319   0.00000  Uiso   1.00
O420   O     0.22387   0.83334   0.17319   0.00000  Uiso   1.00
C421   C     0.16654   0.75350   0.25081   0.00000  Uiso   1.00
C422   C     0.19162   0.83390   0.14861   0.00000  Uiso   1.00
C423   C     0.26807   0.82145   0.01075   0.00000  Uiso   1.00
C424   C     0.20603   0.83053   0.09100   0.00000  Uiso   1.00
C425   C     0.09046   0.78940   0.42988   0.00000  Uiso   1.00
C426   C     0.08353   0.76954   0.47978   0.00000  Uiso   1.00
C427   C     0.11526   0.77420   0.00907   0.00000  Uiso   1.00
C428   C     0.15756   0.79397   0.48396   0.00000  Uiso   1.00
C429   C     0.16961   0.79929   0.42843   0.00000  Uiso   1.00
C430   C     0.18912   0.80755   0.01070   0.00000  Uiso   1.00
C431   C     0.23630   0.81213   0.48211   0.00000  Uiso   1.00
C432   C     0.25019   0.80512   0.42640   0.00000  Uiso   1.00
C433   C     0.21677   0.79718   0.40072   0.00000  Uiso   1.00
C434   C     0.17420   0.81906   0.06423   0.00000  Uiso   1.00
C435   C     0.25275   0.83245   0.06394   0.00000  Uiso   1.00
C436   C     0.13376   0.80548   0.40357   0.00000  Uiso   1.00
H437   H     0.06330   0.79029   0.41037   0.00000  Uiso   1.00
H438   H     0.05346   0.75090   0.49699   0.00000  Uiso   1.00
C439   C     0.20653   0.97876   0.22208   0.00000  Uiso   1.00
H440   H     0.23723   0.96254   0.19920   0.00000  Uiso   1.00
C441   C     0.20640   0.68824   0.22391   0.00000  Uiso   1.00
H442   H     0.23711   0.70503   0.20226   0.00000  Uiso   1.00
C443   C     0.16625   0.70914   0.25212   0.00000  Uiso   1.00
C444   C     0.12605   0.68718   0.27927   0.00000  Uiso   1.00
C445   C     0.12746   0.97778   0.27872   0.00000  Uiso   1.00
H446   H     0.09836   0.96069   0.30294   0.00000  Uiso   1.00
C447   C     0.16690   0.95721   0.24956   0.00000  Uiso   1.00
C448   C     0.31512   0.80119   0.22861   0.00000  Uiso   1.00
C449   C     0.02915   0.80105   0.22899   0.00000  Uiso   1.00
N450   N     0.04760   0.83334   0.25002   0.00000  Uiso   1.00
C451   C     0.01839   0.86608   0.27025   0.00000  Uiso   1.00
C452   C     0.30387   0.86561   0.27142   0.00000  Uiso   1.00
N453   N     0.28573   0.83331   0.25001   0.00000  Uiso   1.00
H454   H     0.27802   0.83860   0.08533   0.00000  Uiso   1.00
N455   N     0.08437   0.70738   0.30898   0.00000  Uiso   1.00
O456   O     0.04444   0.69366   0.30689   0.00000  Uiso   1.00
O457   O     0.08584   0.73426   0.34511   0.00000  Uiso   1.00
H458   H     0.30211   0.77517   0.21130   0.00000  Uiso   1.00
H459   H     0.05098   0.77491   0.21202   0.00000  Uiso   1.00
N460   N     0.03580   0.90165   0.29017   0.00000  Uiso   1.00
O461   O     0.04689   0.89927   0.33480   0.00000  Uiso   1.00
O462   O     0.03607   0.93758   0.26646   0.00000  Uiso   1.00
N463   N     0.27410   0.89834   0.29795   0.00000  Uiso   1.00
O464   O     0.24661   0.89194   0.34550   0.00000  Uiso   1.00
O465   O     0.27793   0.93572   0.27744   0.00000  Uiso   1.00
N466   N     0.29659   0.81145   0.39390   0.00000  Uiso   1.00
O467   O     0.31564   0.78507   0.35662   0.00000  Uiso   1.00
O468   O     0.31696   0.84665   0.39592   0.00000  Uiso   1.00
N469   N     0.31489   0.80960   0.49083   0.00000  Uiso   1.00
O470   O     0.32339   0.77196   0.47270   0.00000  Uiso   1.00
O471   O     0.01352   0.83140   0.00250   0.00000  Uiso   1.00
H472   H     0.13780   0.81898   0.08536   0.00000  Uiso   1.00
N473   N     0.10676   0.75366   0.06023   0.00000  Uiso   1.00
O474   O     0.13990   0.73357   0.07298   0.00000  Uiso   1.00
O475   O     0.06480   0.75047   0.09127   0.00000  Uiso   1.00
H476   H     0.22862   0.78935   0.35898   0.00000  Uiso   1.00
O477   O     0.46179   0.89442   0.25001   0.00000  Uiso   1.00
O478   O     0.53823   0.89441   0.25001   0.00000  Uiso   1.00
C479   C     0.50013   0.91307   0.24939   0.00000  Uiso   1.00
O480   O     0.44280   0.83333   0.32681   0.00000  Uiso   1.00
O481   O     0.51924   0.83332   0.32681   0.00000  Uiso   1.00
C482   C     0.47605   0.82572   0.35008   0.00000  Uiso   1.00
Zn483  Zn    0.44896   0.83334   0.25000   0.00000  Uiso   1.00
Zn484  Zn    0.55104   0.83333   0.25000   0.00000  Uiso   1.00
O485   O     0.46177   0.77226   0.25000   0.00000  Uiso   1.00
O486   O     0.53821   0.77225   0.25000   0.00000  Uiso   1.00
O487   O     0.48076   0.83335   0.17319   0.00000  Uiso   1.00
O488   O     0.55720   0.83334   0.17319   0.00000  Uiso   1.00
C489   C     0.49987   0.75350   0.25081   0.00000  Uiso   1.00
C490   C     0.52496   0.83390   0.14861   0.00000  Uiso   1.00
C491   C     0.60141   0.82145   0.01075   0.00000  Uiso   1.00
C492   C     0.53936   0.83053   0.09100   0.00000  Uiso   1.00
C493   C     0.42379   0.78940   0.42988   0.00000  Uiso   1.00
C494   C     0.41686   0.76954   0.47978   0.00000  Uiso   1.00
C495   C     0.44859   0.77420   0.00907   0.00000  Uiso   1.00
C496   C     0.49090   0.79397   0.48396   0.00000  Uiso   1.00
C497   C     0.50295   0.79929   0.42843   0.00000  Uiso   1.00
C498   C     0.52245   0.80755   0.01070   0.00000  Uiso   1.00
C499   C     0.56964   0.81213   0.48211   0.00000  Uiso   1.00
C500   C     0.58352   0.80512   0.42640   0.00000  Uiso   1.00
C501   C     0.55010   0.79718   0.40072   0.00000  Uiso   1.00
C502   C     0.50754   0.81906   0.06423   0.00000  Uiso   1.00
C503   C     0.58608   0.83245   0.06394   0.00000  Uiso   1.00
C504   C     0.46709   0.80548   0.40357   0.00000  Uiso   1.00
H505   H     0.39663   0.79029   0.41037   0.00000  Uiso   1.00
H506   H     0.38680   0.75090   0.49699   0.00000  Uiso   1.00
C507   C     0.53987   0.97876   0.22208   0.00000  Uiso   1.00
H508   H     0.57057   0.96254   0.19920   0.00000  Uiso   1.00
C509   C     0.53973   0.68824   0.22391   0.00000  Uiso   1.00
H510   H     0.57044   0.70503   0.20226   0.00000  Uiso   1.00
C511   C     0.49959   0.70914   0.25212   0.00000  Uiso   1.00
C512   C     0.45938   0.68718   0.27927   0.00000  Uiso   1.00
C513   C     0.46079   0.97778   0.27872   0.00000  Uiso   1.00
H514   H     0.43169   0.96069   0.30294   0.00000  Uiso   1.00
C515   C     0.50023   0.95721   0.24956   0.00000  Uiso   1.00
C516   C     0.64845   0.80119   0.22861   0.00000  Uiso   1.00
C517   C     0.36248   0.80105   0.22899   0.00000  Uiso   1.00
N518   N     0.38093   0.83334   0.25002   0.00000  Uiso   1.00
C519   C     0.35173   0.86608   0.27025   0.00000  Uiso   1.00
C520   C     0.63721   0.86561   0.27142   0.00000  Uiso   1.00
N521   N     0.61906   0.83331   0.25001   0.00000  Uiso   1.00
H522   H     0.61135   0.83860   0.08533   0.00000  Uiso   1.00
N523   N     0.41771   0.70738   0.30898   0.00000  Uiso   1.00
O524   O     0.37777   0.69366   0.30689   0.00000  Uiso   1.00
O525   O     0.41917   0.73426   0.34511   0.00000  Uiso   1.00
H526   H     0.63544   0.77517   0.21130   0.00000  Uiso   1.00
H527   H     0.38431   0.77491   0.21202   0.00000  Uiso   1.00
N528   N     0.36913   0.90165   0.29017   0.00000  Uiso   1.00
O529   O     0.38022   0.89927   0.33480   0.00000  Uiso   1.00
O530   O     0.36940   0.93758   0.26646   0.00000  Uiso   1.00
N531   N     0.60743   0.89834   0.29795   0.00000  Uiso   1.00
O532   O     0.57994   0.89194   0.34550   0.00000  Uiso   1.00
O533   O     0.61126   0.93572   0.27744   0.00000  Uiso   1.00
N534   N     0.62992   0.81145   0.39390   0.00000  Uiso   1.00
O535   O     0.64897   0.78507   0.35662   0.00000  Uiso   1.00
O536   O     0.65029   0.84665   0.39592   0.00000  Uiso   1.00
N537   N     0.64822   0.80960   0.49083   0.00000  Uiso   1.00
O538   O     0.65673   0.77196   0.47270   0.00000  Uiso   1.00
O539   O     0.34685   0.83140   0.00250   0.00000  Uiso   1.00
H540   H     0.47113   0.81898   0.08536   0.00000  Uiso   1.00
N541   N     0.44009   0.75366   0.06023   0.00000  Uiso   1.00
O542   O     0.47323   0.73357   0.07298   0.00000  Uiso   1.00
O543   O     0.39813   0.75047   0.09127   0.00000  Uiso   1.00
H544   H     0.56196   0.78935   0.35898   0.00000  Uiso   1.00
O545   O     0.79512   0.89442   0.25001   0.00000  Uiso   1.00
O546   O     0.87157   0.89441   0.25001   0.00000  Uiso   1.00
C547   C     0.83347   0.91307   0.24939   0.00000  Uiso   1.00
O548   O     0.77613   0.83333   0.32681   0.00000  Uiso   1.00
O549   O     0.85258   0.83332   0.32681   0.00000  Uiso   1.00
C550   C     0.80939   0.82572   0.35008   0.00000  Uiso   1.00
Zn551  Zn    0.78229   0.83334   0.25000   0.00000  Uiso   1.00
Zn552  Zn    0.88438   0.83333   0.25000   0.00000  Uiso   1.00
O553   O     0.79510   0.77226   0.25000   0.00000  Uiso   1.00
O554   O     0.87154   0.77225   0.25000   0.00000  Uiso   1.00
O555   O     0.81409   0.83335   0.17319   0.00000  Uiso   1.00
O556   O     0.89053   0.83334   0.17319   0.00000  Uiso   1.00
C557   C     0.83320   0.75350   0.25081   0.00000  Uiso   1.00
C558   C     0.85829   0.83390   0.14861   0.00000  Uiso   1.00
C559   C     0.93474   0.82145   0.01075   0.00000  Uiso   1.00
C560   C     0.87270   0.83053   0.09100   0.00000  Uiso   1.00
C561   C     0.75713   0.78940   0.42988   0.00000  Uiso   1.00
C562   C     0.75020   0.76954   0.47978   0.00000  Uiso   1.00
C563   C     0.78192   0.77420   0.00907   0.00000  Uiso   1.00
C564   C     0.82423   0.79397   0.48396   0.00000  Uiso   1.00
C565   C     0.83628   0.79929   0.42843   0.00000  Uiso   1.00
C566   C     0.85579   0.80755   0.01070   0.00000  Uiso   1.00
C567   C     0.90297   0.81213   0.48211   0.00000  Uiso   1.00
C568   C     0.91685   0.80512   0.42640   0.00000  Uiso   1.00
C569   C     0.88344   0.79718   0.40072   0.00000  Uiso   1.00
C570   C     0.84087   0.81906   0.06423   0.00000  Uiso   1.00
C571   C     0.91941   0.83245   0.06394   0.00000  Uiso   1.00
C572   C     0.80042   0.80548   0.40357   0.00000  Uiso   1.00
H573   H     0.72997   0.79029   0.41037   0.00000  Uiso   1.00
H574   H     0.72013   0.75090   0.49699   0.00000  Uiso   1.00
C575   C     0.87320   0.97876   0.22208   0.00000  Uiso   1.00
H576   H     0.90390   0.96254   0.19920   0.00000  Uiso   1.00
C577   C     0.87306   0.68824   0.22391   0.00000  Uiso   1.00
H578   H     0.90378   0.70503   0.20226   0.00000  Uiso   1.00
C579   C     0.83292   0.70914   0.25212   0.00000  Uiso   1.00
C580   C     0.79272   0.68718   0.27927   0.00000  Uiso   1.00
C581   C     0.79412   0.97778   0.27872   0.00000  Uiso   1.00
H582   H     0.76502   0.96069   0.30294   0.00000  Uiso   1.00
C583   C     0.83356   0.95721   0.24956   0.00000  Uiso   1.00
C584   C     0.98179   0.80119   0.22861   0.00000  Uiso   1.00
C585   C     0.69581   0.80105   0.22899   0.00000  Uiso   1.00
N586   N     0.71426   0.83334   0.25002   0.00000  Uiso   1.00
C587   C     0.68506   0.86608   0.27025   0.00000  Uiso   1.00
C588   C     0.97054   0.86561   0.27142   0.00000  Uiso   1.00
N589   N     0.95239   0.83331   0.25001   0.00000  Uiso   1.00
H590   H     0.94468   0.83860   0.08533   0.00000  Uiso   1.00
N591   N     0.75104   0.70738   0.30898   0.00000  Uiso   1.00
O592   O     0.71111   0.69366   0.30689   0.00000  Uiso   1.00
O593   O     0.75250   0.73426   0.34511   0.00000  Uiso   1.00
H594   H     0.96877   0.77517   0.21130   0.00000  Uiso   1.00
H595   H     0.71765   0.77491   0.21202   0.00000  Uiso   1.00
N596   N     0.70246   0.90165   0.29017   0.00000  Uiso   1.00
O597   O     0.71355   0.89927   0.33480   0.00000  Uiso   1.00
O598   O     0.70273   0.93758   0.26646   0.00000  Uiso   1.00
N599   N     0.94076   0.89834   0.29795   0.00000  Uiso   1.00
O600   O     0.91327   0.89194   0.34550   0.00000  Uiso   1.00
O601   O     0.94460   0.93572   0.27744   0.00000  Uiso   1.00
N602   N     0.96326   0.81145   0.39390   0.00000  Uiso   1.00
O603   O     0.98230   0.78507   0.35662   0.00000  Uiso   1.00
O604   O     0.98363   0.84665   0.39592   0.00000  Uiso   1.00
N605   N     0.98155   0.80960   0.49083   0.00000  Uiso   1.00
O606   O     0.99006   0.77196   0.47270   0.00000  Uiso   1.00
O607   O     0.68019   0.83140   0.00250   0.00000  Uiso   1.00
H608   H     0.80446   0.81898   0.08536   0.00000  Uiso   1.00
N609   N     0.77342   0.75366   0.06023   0.00000  Uiso   1.00
O610   O     0.80657   0.73357   0.07298   0.00000  Uiso   1.00
O611   O     0.73146   0.75047   0.09127   0.00000  Uiso   1.00
H612   H     0.89529   0.78935   0.35898   0.00000  Uiso   1.00
O613   O     0.12846   0.22775   0.75001   0.00000  Uiso   1.00
O614   O     0.20490   0.22774   0.75001   0.00000  Uiso   1.00
C615   C     0.16680   0.24640   0.74939   0.00000  Uiso   1.00
O616   O     0.10947   0.16666   0.82681   0.00000  Uiso   1.00
O617   O     0.18591   0.16665   0.82681   0.00000  Uiso   1.00
C618   C     0.14272   0.15905   0.85008   0.00000  Uiso   1.00
Zn619  Zn    0.11562   0.16667   0.75000   0.00000  Uiso   1.00
Zn620  Zn    0.21771   0.16666   0.75000   0.00000  Uiso   1.00
O621   O     0.12843   0.10559   0.75000   0.00000  Uiso   1.00
O622   O     0.20488   0.10558   0.75000   0.00000  Uiso   1.00
O623   O     0.14742   0.16668   0.67319   0.00000  Uiso   1.00
O624   O     0.22387   0.16667   0.67319   0.00000  Uiso   1.00
C625   C     0.16654   0.08684   0.75081   0.00000  Uiso   1.00
C626   C     0.19162   0.16723   0.64861   0.00000  Uiso   1.00
C627   C     0.26807   0.15478   0.51075   0.00000  Uiso   1.00
C628   C     0.20603   0.16387   0.59100   0.00000  Uiso   1.00
C629   C     0.09046   0.12273   0.92988   0.00000  Uiso   1.00
C630   C     0.08353   0.10287   0.97978   0.00000  Uiso   1.00
C631   C     0.11526   0.10754   0.50907   0.00000  Uiso   1.00
C632   C     0.15756   0.12730   0.98396   0.00000  Uiso   1.00
C633   C     0.16961   0.13262   0.92843   0.00000  Uiso   1.00
C634   C     0.18912   0.14088   0.51070   0.00000  Uiso   1.00
C635   C     0.23630   0.14547   0.98211   0.00000  Uiso   1.00
C636   C     0.25019   0.13845   0.92640   0.00000  Uiso   1.00
C637   C     0.21677   0.13051   0.90072   0.00000  Uiso   1.00
C638   C     0.17420   0.15240   0.56423   0.00000  Uiso   1.00
C639   C     0.25275   0.16579   0.56394   0.00000  Uiso   1.00
C640   C     0.13376   0.13882   0.90357   0.00000  Uiso   1.00
H641   H     0.06330   0.12362   0.91037   0.00000  Uiso   1.00
H642   H     0.05346   0.08423   0.99699   0.00000  Uiso   1.00
C643   C     0.20653   0.31209   0.72208   0.00000  Uiso   1.00
H644   H     0.23723   0.29587   0.69920   0.00000  Uiso   1.00
C645   C     0.20640   0.02157   0.72391   0.00000  Uiso   1.00
H646   H     0.23711   0.03836   0.70226   0.00000  Uiso   1.00
C647   C     0.16625   0.04247   0.75212   0.00000  Uiso   1.00
C648   C     0.12605   0.02052   0.77927   0.00000  Uiso   1.00
C649   C     0.12746   0.31111   0.77872   0.00000  Uiso   1.00
H650   H     0.09836   0.29403   0.80294   0.00000  Uiso   1.00
C651   C     0.16690   0.29054   0.74956   0.00000  Uiso   1.00
C652   C     0.31512   0.13452   0.72861   0.00000  Uiso   1.00
C653   C     0.02915   0.13438   0.72899   0.00000  Uiso   1.00
N654   N     0.04760   0.16668   0.75002   0.00000  Uiso   1.00
C655   C     0.01839   0.19941   0.77025   0.00000  Uiso   1.00
C656   C     0.30387   0.19894   0.77142   0.00000  Uiso   1.00
N657   N     0.28573   0.16665   0.75001   0.00000  Uiso   1.00
H658   H     0.27802   0.17193   0.58533   0.00000  Uiso   1.00
N659   N     0.08437   0.04072   0.80898   0.00000  Uiso   1.00
O660   O     0.04444   0.02699   0.80689   0.00000  Uiso   1.00
O661   O     0.08584   0.06759   0.84511   0.00000  Uiso   1.00
H662   H     0.30211   0.10851   0.71130   0.00000  Uiso   1.00
H663   H     0.05098   0.10824   0.71202   0.00000  Uiso   1.00
N664   N     0.03580   0.23499   0.79017   0.00000  Uiso   1.00
O665   O     0.04689   0.23261   0.83480   0.00000  Uiso   1.00
O666   O     0.03607   0.27092   0.76646   0.00000  Uiso   1.00
N667   N     0.27410   0.23167   0.79795   0.00000  Uiso   1.00
O668   O     0.24661   0.22527   0.84550   0.00000  Uiso   1.00
O669   O     0.27793   0.26906   0.77744   0.00000  Uiso   1.00
N670   N     0.29659   0.14478   0.89390   0.00000  Uiso   1.00
O671   O     0.31564   0.11841   0.85662   0.00000  Uiso   1.00
O672   O     0.31696   0.17998   0.89592   0.00000  Uiso   1.00
N673   N     0.31489   0.14293   0.99083   0.00000  Uiso   1.00
O674   O     0.32339   0.10529   0.97270   0.00000  Uiso   1.00
O675   O     0.01352   0.16473   0.50250   0.00000  Uiso   1.00
H676   H     0.13780   0.15231   0.58536   0.00000  Uiso   1.00
N677   N     0.10676   0.08699   0.56023   0.00000  Uiso   1.00
O678   O     0.13990   0.06691   0.57298   0.00000  Uiso   1.00
O679   O     0.06480   0.08380   0.59127   0.00000  Uiso   1.00
H680   H     0.22862   0.12268   0.85898   0.00000  Uiso   1.00
O681   O     0.46179   0.22775   0.75001   0.00000  Uiso   1.00
O682   O     0.53823   0.22774   0.75001   0.00000  Uiso   1.00
C683   C     0.50013   0.24640   0.74939   0.00000  Uiso   1.00
O684   O     0.44280   0.16666   0.82681   0.00000  Uiso   1.00
O685   O     0.51924   0.16665   0.82681   0.00000  Uiso   1.00
C686   C     0.47605   0.15905   0.85008   0.00000  Uiso   1.00
Zn687  Zn    0.44896   0.16667   0.75000   0.00000  Uiso   1.00
Zn688  Zn    0.55104   0.16666   0.75000   0.00000  Uiso   1.00
O689   O     0.46177   0.10559   0.75000   0.00000  Uiso   1.00
O690   O     0.53821   0.10558   0.75000   0.00000  Uiso   1.00
O691   O     0.48076   0.16668   0.67319   0.00000  Uiso   1.00
O692   O     0.55720   0.16667   0.67319   0.00000  Uiso   1.00
C693   C     0.49987   0.08684   0.75081   0.00000  Uiso   1.00
C694   C     0.52496   0.16723   0.64861   0.00000  Uiso   1.00
C695   C     0.60141   0.15478   0.51075   0.00000  Uiso   1.00
C696   C     0.53936   0.16387   0.59100   0.00000  Uiso   1.00
C697   C     0.42379   0.12273   0.92988   0.00000  Uiso   1.00
C698   C     0.41686   0.10287   0.97978   0.00000  Uiso   1.00
C699   C     0.44859   0.10754   0.50907   0.00000  Uiso   1.00
C700   C     0.49090   0.12730   0.98396   0.00000  Uiso   1.00
C701   C     0.50295   0.13262   0.92843   0.00000  Uiso   1.00
C702   C     0.52245   0.14088   0.51070   0.00000  Uiso   1.00
C703   C     0.56964   0.14547   0.98211   0.00000  Uiso   1.00
C704   C     0.58352   0.13845   0.92640   0.00000  Uiso   1.00
C705   C     0.55010   0.13051   0.90072   0.00000  Uiso   1.00
C706   C     0.50754   0.15240   0.56423   0.00000  Uiso   1.00
C707   C     0.58608   0.16579   0.56394   0.00000  Uiso   1.00
C708   C     0.46709   0.13882   0.90357   0.00000  Uiso   1.00
H709   H     0.39663   0.12362   0.91037   0.00000  Uiso   1.00
H710   H     0.38680   0.08423   0.99699   0.00000  Uiso   1.00
C711   C     0.53987   0.31209   0.72208   0.00000  Uiso   1.00
H712   H     0.57057   0.29587   0.69920   0.00000  Uiso   1.00
C713   C     0.53973   0.02157   0.72391   0.00000  Uiso   1.00
H714   H     0.57044   0.03836   0.70226   0.00000  Uiso   1.00
C715   C     0.49959   0.04247   0.75212   0.00000  Uiso   1.00
C716   C     0.45938   0.02052   0.77927   0.00000  Uiso   1.00
C717   C     0.46079   0.31111   0.77872   0.00000  Uiso   1.00
H718   H     0.43169   0.29403   0.80294   0.00000  Uiso   1.00
C719   C     0.50023   0.29054   0.74956   0.00000  Uiso   1.00
C720   C     0.64845   0.13452   0.72861   0.00000  Uiso   1.00
C721   C     0.36248   0.13438   0.72899   0.00000  Uiso   1.00
N722   N     0.38093   0.16668   0.75002   0.00000  Uiso   1.00
C723   C     0.35173   0.19941   0.77025   0.00000  Uiso   1.00
C724   C     0.63721   0.19894   0.77142   0.00000  Uiso   1.00
N725   N     0.61906   0.16665   0.75001   0.00000  Uiso   1.00
H726   H     0.61135   0.17193   0.58533   0.00000  Uiso   1.00
N727   N     0.41771   0.04072   0.80898   0.00000  Uiso   1.00
O728   O     0.37777   0.02699   0.80689   0.00000  Uiso   1.00
O729   O     0.41917   0.06759   0.84511   0.00000  Uiso   1.00
H730   H     0.63544   0.10851   0.71130   0.00000  Uiso   1.00
H731   H     0.38431   0.10824   0.71202   0.00000  Uiso   1.00
N732   N     0.36913   0.23499   0.79017   0.00000  Uiso   1.00
O733   O     0.38022   0.23261   0.83480   0.00000  Uiso   1.00
O734   O     0.36940   0.27092   0.76646   0.00000  Uiso   1.00
N735   N     0.60743   0.23167   0.79795   0.00000  Uiso   1.00
O736   O     0.57994   0.22527   0.84550   0.00000  Uiso   1.00
O737   O     0.61126   0.26906   0.77744   0.00000  Uiso   1.00
N738   N     0.62992   0.14478   0.89390   0.00000  Uiso   1.00
O739   O     0.64897   0.11841   0.85662   0.00000  Uiso   1.00
O740   O     0.65029   0.17998   0.89592   0.00000  Uiso   1.00
N741   N     0.64822   0.14293   0.99083   0.00000  Uiso   1.00
O742   O     0.65673   0.10529   0.97270   0.00000  Uiso   1.00
O743   O     0.34685   0.16473   0.50250   0.00000  Uiso   1.00
H744   H     0.47113   0.15231   0.58536   0.00000  Uiso   1.00
N745   N     0.44009   0.08699   0.56023   0.00000  Uiso   1.00
O746   O     0.47323   0.06691   0.57298   0.00000  Uiso   1.00
O747   O     0.39813   0.08380   0.59127   0.00000  Uiso   1.00
H748   H     0.56196   0.12268   0.85898   0.00000  Uiso   1.00
O749   O     0.79512   0.22775   0.75001   0.00000  Uiso   1.00
O750   O     0.87157   0.22774   0.75001   0.00000  Uiso   1.00
C751   C     0.83347   0.24640   0.74939   0.00000  Uiso   1.00
O752   O     0.77613   0.16666   0.82681   0.00000  Uiso   1.00
O753   O     0.85258   0.16665   0.82681   0.00000  Uiso   1.00
C754   C     0.80939   0.15905   0.85008   0.00000  Uiso   1.00
Zn755  Zn    0.78229   0.16667   0.75000   0.00000  Uiso   1.00
Zn756  Zn    0.88438   0.16666   0.75000   0.00000  Uiso   1.00
O757   O     0.79510   0.10559   0.75000   0.00000  Uiso   1.00
O758   O     0.87154   0.10558   0.75000   0.00000  Uiso   1.00
O759   O     0.81409   0.16668   0.67319   0.00000  Uiso   1.00
O760   O     0.89053   0.16667   0.67319   0.00000  Uiso   1.00
C761   C     0.83320   0.08684   0.75081   0.00000  Uiso   1.00
C762   C     0.85829   0.16723   0.64861   0.00000  Uiso   1.00
C763   C     0.93474   0.15478   0.51075   0.00000  Uiso   1.00
C764   C     0.87270   0.16387   0.59100   0.00000  Uiso   1.00
C765   C     0.75713   0.12273   0.92988   0.00000  Uiso   1.00
C766   C     0.75020   0.10287   0.97978   0.00000  Uiso   1.00
C767   C     0.78192   0.10754   0.50907   0.00000  Uiso   1.00
C768   C     0.82423   0.12730   0.98396   0.00000  Uiso   1.00
C769   C     0.83628   0.13262   0.92843   0.00000  Uiso   1.00
C770   C     0.85579   0.14088   0.51070   0.00000  Uiso   1.00
C771   C     0.90297   0.14547   0.98211   0.00000  Uiso   1.00
C772   C     0.91685   0.13845   0.92640   0.00000  Uiso   1.00
C773   C     0.88344   0.13051   0.90072   0.00000  Uiso   1.00
C774   C     0.84087   0.15240   0.56423   0.00000  Uiso   1.00
C775   C     0.91941   0.16579   0.56394   0.00000  Uiso   1.00
C776   C     0.80042   0.13882   0.90357   0.00000  Uiso   1.00
H777   H     0.72997   0.12362   0.91037   0.00000  Uiso   1.00
H778   H     0.72013   0.08423   0.99699   0.00000  Uiso   1.00
C779   C     0.87320   0.31209   0.72208   0.00000  Uiso   1.00
H780   H     0.90390   0.29587   0.69920   0.00000  Uiso   1.00
C781   C     0.87306   0.02157   0.72391   0.00000  Uiso   1.00
H782   H     0.90378   0.03836   0.70226   0.00000  Uiso   1.00
C783   C     0.83292   0.04247   0.75212   0.00000  Uiso   1.00
C784   C     0.79272   0.02052   0.77927   0.00000  Uiso   1.00
C785   C     0.79412   0.31111   0.77872   0.00000  Uiso   1.00
H786   H     0.76502   0.29403   0.80294   0.00000  Uiso   1.00
C787   C     0.83356   0.29054   0.74956   0.00000  Uiso   1.00
C788   C     0.98179   0.13452   0.72861   0.00000  Uiso   1.00
C789   C     0.69581   0.13438   0.72899   0.00000  Uiso   1.00
N790   N     0.71426   0.16668   0.75002   0.00000  Uiso   1.00
C791   C     0.68506   0.19941   0.77025   0.00000  Uiso   1.00
C792   C     0.97054   0.19894   0.77142   0.00000  Uiso   1.00
N793   N     0.95239   0.16665   0.75001   0.00000  Uiso   1.00
H794   H     0.94468   0.17193   0.58533   0.00000  Uiso   1.00
N795   N     0.75104   0.04072   0.80898   0.00000  Uiso   1.00
O796   O     0.71111   0.02699   0.80689   0.00000  Uiso   1.00
O797   O     0.75250   0.06759   0.84511   0.00000  Uiso   1.00
H798   H     0.96877   0.10851   0.71130   0.00000  Uiso   1.00
H799   H     0.71765   0.10824   0.71202   0.00000  Uiso   1.00
N800   N     0.70246   0.23499   0.79017   0.00000  Uiso   1.00
O801   O     0.71355   0.23261   0.83480   0.00000  Uiso   1.00
O802   O     0.70273   0.27092   0.76646   0.00000  Uiso   1.00
N803   N     0.94076   0.23167   0.79795   0.00000  Uiso   1.00
O804   O     0.91327   0.22527   0.84550   0.00000  Uiso   1.00
O805   O     0.94460   0.26906   0.77744   0.00000  Uiso   1.00
N806   N     0.96326   0.14478   0.89390   0.00000  Uiso   1.00
O807   O     0.98230   0.11841   0.85662   0.00000  Uiso   1.00
O808   O     0.98363   0.17998   0.89592   0.00000  Uiso   1.00
N809   N     0.98155   0.14293   0.99083   0.00000  Uiso   1.00
O810   O     0.99006   0.10529   0.97270   0.00000  Uiso   1.00
O811   O     0.68019   0.16473   0.50250   0.00000  Uiso   1.00
H812   H     0.80446   0.15231   0.58536   0.00000  Uiso   1.00
N813   N     0.77342   0.08699   0.56023   0.00000  Uiso   1.00
O814   O     0.80657   0.06691   0.57298   0.00000  Uiso   1.00
O815   O     0.73146   0.08380   0.59127   0.00000  Uiso   1.00
H816   H     0.89529   0.12268   0.85898   0.00000  Uiso   1.00
O817   O     0.12846   0.56108   0.75001   0.00000  Uiso   1.00
O818   O     0.20490   0.56107   0.75001   0.00000  Uiso   1.00
C819   C     0.16680   0.57974   0.74939   0.00000  Uiso   1.00
O820   O     0.10947   0.50000   0.82681   0.00000  Uiso   1.00
O821   O     0.18591   0.49999   0.82681   0.00000  Uiso   1.00
C822   C     0.14272   0.49238   0.85008   0.00000  Uiso   1.00
Zn823  Zn    0.11562   0.50001   0.75000   0.00000  Uiso   1.00
Zn824  Zn    0.21771   0.49999   0.75000   0.00000  Uiso   1.00
O825   O     0.12843   0.43893   0.75000   0.00000  Uiso   1.00
O826   O     0.20488   0.43892   0.75000   0.00000  Uiso   1.00
O827   O     0.14742   0.50001   0.67319   0.00000  Uiso   1.00
O828   O     0.22387   0.50000   0.67319   0.00000  Uiso   1.00
C829   C     0.16654   0.42017   0.75081   0.00000  Uiso   1.00
C830   C     0.19162   0.50056   0.64861   0.00000  Uiso   1.00
C831   C     0.26807   0.48812   0.51075   0.00000  Uiso   1.00
C832   C     0.20603   0.49720   0.59100   0.00000  Uiso   1.00
C833   C     0.09046   0.45607   0.92988   0.00000  Uiso   1.00
C834   C     0.08353   0.43620   0.97978   0.00000  Uiso   1.00
C835   C     0.11526   0.44087   0.50907   0.00000  Uiso   1.00
C836   C     0.15756   0.46063   0.98396   0.00000  Uiso   1.00
C837   C     0.16961   0.46596   0.92843   0.00000  Uiso   1.00
C838   C     0.18912   0.47422   0.51070   0.00000  Uiso   1.00
C839   C     0.23630   0.47880   0.98211   0.00000  Uiso   1.00
C840   C     0.25019   0.47178   0.92640   0.00000  Uiso   1.00
C841   C     0.21677   0.46385   0.90072   0.00000  Uiso   1.00
C842   C     0.17420   0.48573   0.56423   0.00000  Uiso   1.00
C843   C     0.25275   0.49912   0.56394   0.00000  Uiso   1.00
C844   C     0.13376   0.47215   0.90357   0.00000  Uiso   1.00
H845   H     0.06330   0.45696   0.91037   0.00000  Uiso   1.00
H846   H     0.05346   0.41756   0.99699   0.00000  Uiso   1.00
C847   C     0.20653   0.64543   0.72208   0.00000  Uiso   1.00
H848   H     0.23723   0.62921   0.69920   0.00000  Uiso   1.00
C849   C     0.20640   0.35490   0.72391   0.00000  Uiso   1.00
H850   H     0.23711   0.37169   0.70226   0.00000  Uiso   1.00
C851   C     0.16625   0.37580   0.75212   0.00000  Uiso   1.00
C852   C     0.12605   0.35385   0.77927   0.00000  Uiso   1.00
C853   C     0.12746   0.64444   0.77872   0.00000  Uiso   1.00
H854   H     0.09836   0.62736   0.80294   0.00000  Uiso   1.00
C855   C     0.16690   0.62387   0.74956   0.00000  Uiso   1.00
C856   C     0.31512   0.46785   0.72861   0.00000  Uiso   1.00
C857   C     0.02915   0.46772   0.72899   0.00000  Uiso   1.00
N858   N     0.04760   0.50001   0.75002   0.00000  Uiso   1.00
C859   C     0.01839   0.53275   0.77025   0.00000  Uiso   1.00
C860   C     0.30387   0.53227   0.77142   0.00000  Uiso   1.00
N861   N     0.28573   0.49998   0.75001   0.00000  Uiso   1.00
H862   H     0.27802   0.50527   0.58533   0.00000  Uiso   1.00
N863   N     0.08437   0.37405   0.80898   0.00000  Uiso   1.00
O864   O     0.04444   0.36033   0.80689   0.00000  Uiso   1.00
O865   O     0.08584   0.40093   0.84511   0.00000  Uiso   1.00
H866   H     0.30211   0.44184   0.71130   0.00000  Uiso   1.00
H867   H     0.05098   0.44157   0.71202   0.00000  Uiso   1.00
N868   N     0.03580   0.56832   0.79017   0.00000  Uiso   1.00
O869   O     0.04689   0.56594   0.83480   0.00000  Uiso   1.00
O870   O     0.03607   0.60425   0.76646   0.00000  Uiso   1.00
N871   N     0.27410   0.56500   0.79795   0.00000  Uiso   1.00
O872   O     0.24661   0.55861   0.84550   0.00000  Uiso   1.00
O873   O     0.27793   0.60239   0.77744   0.00000  Uiso   1.00
N874   N     0.29659   0.47811   0.89390   0.00000  Uiso   1.00
O875   O     0.31564   0.45174   0.85662   0.00000  Uiso   1.00
O876   O     0.31696   0.51332   0.89592   0.00000  Uiso   1.00
N877   N     0.31489   0.47626   0.99083   0.00000  Uiso   1.00
O878   O     0.32339   0.43863   0.97270   0.00000  Uiso   1.00
O879   O     0.01352   0.49806   0.50250   0.00000  Uiso   1.00
H880   H     0.13780   0.48564   0.58536   0.00000  Uiso   1.00
N881   N     0.10676   0.42033   0.56023   0.00000  Uiso   1.00
O882   O     0.13990   0.40024   0.57298   0.00000  Uiso   1.00
O883   O     0.06480   0.41713   0.59127   0.00000  Uiso   1.00
H884   H     0.22862   0.45601   0.85898   0.00000  Uiso   1.00
O885   O     0.46179   0.56108   0.75001   0.00000  Uiso   1.00
O886   O     0.53823   0.56107   0.75001   0.00000  Uiso   1.00
C887   C     0.50013   0.57974   0.74939   0.00000  Uiso   1.00
O888   O     0.44280   0.50000   0.82681   0.00000  Uiso   1.00
O889   O     0.51924   0.49999   0.82681   0.00000  Uiso   1.00
C890   C     0.47605   0.49238   0.85008   0.00000  Uiso   1.00
Zn891  Zn    0.44896   0.50001   0.75000   0.00000  Uiso   1.00
Zn892  Zn    0.55104   0.49999   0.75000   0.00000  Uiso   1.00
O893   O     0.46177   0.43893   0.75000   0.00000  Uiso   1.00
O894   O     0.53821   0.43892   0.75000   0.00000  Uiso   1.00
O895   O     0.48076   0.50001   0.67319   0.00000  Uiso   1.00
O896   O     0.55720   0.50000   0.67319   0.00000  Uiso   1.00
C897   C     0.49987   0.42017   0.75081   0.00000  Uiso   1.00
C898   C     0.52496   0.50056   0.64861   0.00000  Uiso   1.00
C899   C     0.60141   0.48812   0.51075   0.00000  Uiso   1.00
C900   C     0.53936   0.49720   0.59100   0.00000  Uiso   1.00
C901   C     0.42379   0.45607   0.92988   0.00000  Uiso   1.00
C902   C     0.41686   0.43620   0.97978   0.00000  Uiso   1.00
C903   C     0.44859   0.44087   0.50907   0.00000  Uiso   1.00
C904   C     0.49090   0.46063   0.98396   0.00000  Uiso   1.00
C905   C     0.50295   0.46596   0.92843   0.00000  Uiso   1.00
C906   C     0.52245   0.47422   0.51070   0.00000  Uiso   1.00
C907   C     0.56964   0.47880   0.98211   0.00000  Uiso   1.00
C908   C     0.58352   0.47178   0.92640   0.00000  Uiso   1.00
C909   C     0.55010   0.46385   0.90072   0.00000  Uiso   1.00
C910   C     0.50754   0.48573   0.56423   0.00000  Uiso   1.00
C911   C     0.58608   0.49912   0.56394   0.00000  Uiso   1.00
C912   C     0.46709   0.47215   0.90357   0.00000  Uiso   1.00
H913   H     0.39663   0.45696   0.91037   0.00000  Uiso   1.00
H914   H     0.38680   0.41756   0.99699   0.00000  Uiso   1.00
C915   C     0.53987   0.64543   0.72208   0.00000  Uiso   1.00
H916   H     0.57057   0.62921   0.69920   0.00000  Uiso   1.00
C917   C     0.53973   0.35490   0.72391   0.00000  Uiso   1.00
H918   H     0.57044   0.37169   0.70226   0.00000  Uiso   1.00
C919   C     0.49959   0.37580   0.75212   0.00000  Uiso   1.00
C920   C     0.45938   0.35385   0.77927   0.00000  Uiso   1.00
C921   C     0.46079   0.64444   0.77872   0.00000  Uiso   1.00
H922   H     0.43169   0.62736   0.80294   0.00000  Uiso   1.00
C923   C     0.50023   0.62387   0.74956   0.00000  Uiso   1.00
C924   C     0.64845   0.46785   0.72861   0.00000  Uiso   1.00
C925   C     0.36248   0.46772   0.72899   0.00000  Uiso   1.00
N926   N     0.38093   0.50001   0.75002   0.00000  Uiso   1.00
C927   C     0.35173   0.53275   0.77025   0.00000  Uiso   1.00
C928   C     0.63721   0.53227   0.77142   0.00000  Uiso   1.00
N929   N     0.61906   0.49998   0.75001   0.00000  Uiso   1.00
H930   H     0.61135   0.50527   0.58533   0.00000  Uiso   1.00
N931   N     0.41771   0.37405   0.80898   0.00000  Uiso   1.00
O932   O     0.37777   0.36033   0.80689   0.00000  Uiso   1.00
O933   O     0.41917   0.40093   0.84511   0.00000  Uiso   1.00
H934   H     0.63544   0.44184   0.71130   0.00000  Uiso   1.00
H935   H     0.38431   0.44157   0.71202   0.00000  Uiso   1.00
N936   N     0.36913   0.56832   0.79017   0.00000  Uiso   1.00
O937   O     0.38022   0.56594   0.83480   0.00000  Uiso   1.00
O938   O     0.36940   0.60425   0.76646   0.00000  Uiso   1.00
N939   N     0.60743   0.56500   0.79795   0.00000  Uiso   1.00
O940   O     0.57994   0.55861   0.84550   0.00000  Uiso   1.00
O941   O     0.61126   0.60239   0.77744   0.00000  Uiso   1.00
N942   N     0.62992   0.47811   0.89390   0.00000  Uiso   1.00
O943   O     0.64897   0.45174   0.85662   0.00000  Uiso   1.00
O944   O     0.65029   0.51332   0.89592   0.00000  Uiso   1.00
N945   N     0.64822   0.47626   0.99083   0.00000  Uiso   1.00
O946   O     0.65673   0.43863   0.97270   0.00000  Uiso   1.00
O947   O     0.34685   0.49806   0.50250   0.00000  Uiso   1.00
H948   H     0.47113   0.48564   0.58536   0.00000  Uiso   1.00
N949   N     0.44009   0.42033   0.56023   0.00000  Uiso   1.00
O950   O     0.47323   0.40024   0.57298   0.00000  Uiso   1.00
O951   O     0.39813   0.41713   0.59127   0.00000  Uiso   1.00
H952   H     0.56196   0.45601   0.85898   0.00000  Uiso   1.00
O953   O     0.79512   0.56108   0.75001   0.00000  Uiso   1.00
O954   O     0.87157   0.56107   0.75001   0.00000  Uiso   1.00
C955   C     0.83347   0.57974   0.74939   0.00000  Uiso   1.00
O956   O     0.77613   0.50000   0.82681   0.00000  Uiso   1.00
O957   O     0.85258   0.49999   0.82681   0.00000  Uiso   1.00
C958   C     0.80939   0.49238   0.85008   0.00000  Uiso   1.00
Zn959  Zn    0.78229   0.50001   0.75000   0.00000  Uiso   1.00
Zn960  Zn    0.88438   0.49999   0.75000   0.00000  Uiso   1.00
O961   O     0.79510   0.43893   0.75000   0.00000  Uiso   1.00
O962   O     0.87154   0.43892   0.75000   0.00000  Uiso   1.00
O963   O     0.81409   0.50001   0.67319   0.00000  Uiso   1.00
O964   O     0.89053   0.50000   0.67319   0.00000  Uiso   1.00
C965   C     0.83320   0.42017   0.75081   0.00000  Uiso   1.00
C966   C     0.85829   0.50056   0.64861   0.00000  Uiso   1.00
C967   C     0.93474   0.48812   0.51075   0.00000  Uiso   1.00
C968   C     0.87270   0.49720   0.59100   0.00000  Uiso   1.00
C969   C     0.75713   0.45607   0.92988   0.00000  Uiso   1.00
C970   C     0.75020   0.43620   0.97978   0.00000  Uiso   1.00
C971   C     0.78192   0.44087   0.50907   0.00000  Uiso   1.00
C972   C     0.82423   0.46063   0.98396   0.00000  Uiso   1.00
C973   C     0.83628   0.46596   0.92843   0.00000  Uiso   1.00
C974   C     0.85579   0.47422   0.51070   0.00000  Uiso   1.00
C975   C     0.90297   0.47880   0.98211   0.00000  Uiso   1.00
C976   C     0.91685   0.47178   0.92640   0.00000  Uiso   1.00
C977   C     0.88344   0.46385   0.90072   0.00000  Uiso   1.00
C978   C     0.84087   0.48573   0.56423   0.00000  Uiso   1.00
C979   C     0.91941   0.49912   0.56394   0.00000  Uiso   1.00
C980   C     0.80042   0.47215   0.90357   0.00000  Uiso   1.00
H981   H     0.72997   0.45696   0.91037   0.00000  Uiso   1.00
H982   H     0.72013   0.41756   0.99699   0.00000  Uiso   1.00
C983   C     0.87320   0.64543   0.72208   0.00000  Uiso   1.00
H984   H     0.90390   0.62921   0.69920   0.00000  Uiso   1.00
C985   C     0.87306   0.35490   0.72391   0.00000  Uiso   1.00
H986   H     0.90378   0.37169   0.70226   0.00000  Uiso   1.00
C987   C     0.83292   0.37580   0.75212   0.00000  Uiso   1.00
C988   C     0.79272   0.35385   0.77927   0.00000  Uiso   1.00
C989   C     0.79412   0.64444   0.77872   0.00000  Uiso   1.00
H990   H     0.76502   0.62736   0.80294   0.00000  Uiso   1.00
C991   C     0.83356   0.62387   0.74956   0.00000  Uiso   1.00
C992   C     0.98179   0.46785   0.72861   0.00000  Uiso   1.00
C993   C     0.69581   0.46772   0.72899   0.00000  Uiso   1.00
N994   N     0.71426   0.50001   0.75002   0.00000  Uiso   1.00
C995   C     0.68506   0.53275   0.77025   0.00000  Uiso   1.00
C996   C     0.97054   0.53227   0.77142   0.00000  Uiso   1.00
N997   N     0.95239   0.49998   0.75001   0.00000  Uiso   1.00
H998   H     0.94468   0.50527   0.58533   0.00000  Uiso   1.00
N999   N     0.75104   0.37405   0.80898   0.00000  Uiso   1.00
O1000  O     0.71111   0.36033   0.80689   0.00000  Uiso   1.00
O1001  O     0.75250   0.40093   0.84511   0.00000  Uiso   1.00
H1002  H     0.96877   0.44184   0.71130   0.00000  Uiso   1.00
H1003  H     0.71765   0.44157   0.71202   0.00000  Uiso   1.00
N1004  N     0.70246   0.56832   0.79017   0.00000  Uiso   1.00
O1005  O     0.71355   0.56594   0.83480   0.00000  Uiso   1.00
O1006  O     0.70273   0.60425   0.76646   0.00000  Uiso   1.00
N1007  N     0.94076   0.56500   0.79795   0.00000  Uiso   1.00
O1008  O     0.91327   0.55861   0.84550   0.00000  Uiso   1.00
O1009  O     0.94460   0.60239   0.77744   0.00000  Uiso   1.00
N1010  N     0.96326   0.47811   0.89390   0.00000  Uiso   1.00
O1011  O     0.98230   0.45174   0.85662   0.00000  Uiso   1.00
O1012  O     0.98363   0.51332   0.89592   0.00000  Uiso   1.00
N1013  N     0.98155   0.47626   0.99083   0.00000  Uiso   1.00
O1014  O     0.99006   0.43863   0.97270   0.00000  Uiso   1.00
O1015  O     0.68019   0.49806   0.50250   0.00000  Uiso   1.00
H1016  H     0.80446   0.48564   0.58536   0.00000  Uiso   1.00
N1017  N     0.77342   0.42033   0.56023   0.00000  Uiso   1.00
O1018  O     0.80657   0.40024   0.57298   0.00000  Uiso   1.00
O1019  O     0.73146   0.41713   0.59127   0.00000  Uiso   1.00
H1020  H     0.89529   0.45601   0.85898   0.00000  Uiso   1.00
O1021  O     0.12846   0.89442   0.75001   0.00000  Uiso   1.00
O1022  O     0.20490   0.89441   0.75001   0.00000  Uiso   1.00
C1023  C     0.16680   0.91307   0.74939   0.00000  Uiso   1.00
O1024  O     0.10947   0.83333   0.82681   0.00000  Uiso   1.00
O1025  O     0.18591   0.83332   0.82681   0.00000  Uiso   1.00
C1026  C     0.14272   0.82572   0.85008   0.00000  Uiso   1.00
Zn1027 Zn    0.11562   0.83334   0.75000   0.00000  Uiso   1.00
Zn1028 Zn    0.21771   0.83333   0.75000   0.00000  Uiso   1.00
O1029  O     0.12843   0.77226   0.75000   0.00000  Uiso   1.00
O1030  O     0.20488   0.77225   0.75000   0.00000  Uiso   1.00
O1031  O     0.14742   0.83335   0.67319   0.00000  Uiso   1.00
O1032  O     0.22387   0.83334   0.67319   0.00000  Uiso   1.00
C1033  C     0.16654   0.75350   0.75081   0.00000  Uiso   1.00
C1034  C     0.19162   0.83390   0.64861   0.00000  Uiso   1.00
C1035  C     0.26807   0.82145   0.51075   0.00000  Uiso   1.00
C1036  C     0.20603   0.83053   0.59100   0.00000  Uiso   1.00
C1037  C     0.09046   0.78940   0.92988   0.00000  Uiso   1.00
C1038  C     0.08353   0.76954   0.97978   0.00000  Uiso   1.00
C1039  C     0.11526   0.77420   0.50907   0.00000  Uiso   1.00
C1040  C     0.15756   0.79397   0.98396   0.00000  Uiso   1.00
C1041  C     0.16961   0.79929   0.92843   0.00000  Uiso   1.00
C1042  C     0.18912   0.80755   0.51070   0.00000  Uiso   1.00
C1043  C     0.23630   0.81213   0.98211   0.00000  Uiso   1.00
C1044  C     0.25019   0.80512   0.92640   0.00000  Uiso   1.00
C1045  C     0.21677   0.79718   0.90072   0.00000  Uiso   1.00
C1046  C     0.17420   0.81906   0.56423   0.00000  Uiso   1.00
C1047  C     0.25275   0.83245   0.56394   0.00000  Uiso   1.00
C1048  C     0.13376   0.80548   0.90357   0.00000  Uiso   1.00
H1049  H     0.06330   0.79029   0.91037   0.00000  Uiso   1.00
H1050  H     0.05346   0.75090   0.99699   0.00000  Uiso   1.00
C1051  C     0.20653   0.97876   0.72208   0.00000  Uiso   1.00
H1052  H     0.23723   0.96254   0.69920   0.00000  Uiso   1.00
C1053  C     0.20640   0.68824   0.72391   0.00000  Uiso   1.00
H1054  H     0.23711   0.70503   0.70226   0.00000  Uiso   1.00
C1055  C     0.16625   0.70914   0.75212   0.00000  Uiso   1.00
C1056  C     0.12605   0.68718   0.77927   0.00000  Uiso   1.00
C1057  C     0.12746   0.97778   0.77872   0.00000  Uiso   1.00
H1058  H     0.09836   0.96069   0.80294   0.00000  Uiso   1.00
C1059  C     0.16690   0.95721   0.74956   0.00000  Uiso   1.00
C1060  C     0.31512   0.80119   0.72861   0.00000  Uiso   1.00
C1061  C     0.02915   0.80105   0.72899   0.00000  Uiso   1.00
N1062  N     0.04760   0.83334   0.75002   0.00000  Uiso   1.00
C1063  C     0.01839   0.86608   0.77025   0.00000  Uiso   1.00
C1064  C     0.30387   0.86561   0.77142   0.00000  Uiso   1.00
N1065  N     0.28573   0.83331   0.75001   0.00000  Uiso   1.00
H1066  H     0.27802   0.83860   0.58533   0.00000  Uiso   1.00
N1067  N     0.08437   0.70738   0.80898   0.00000  Uiso   1.00
O1068  O     0.04444   0.69366   0.80689   0.00000  Uiso   1.00
O1069  O     0.08584   0.73426   0.84511   0.00000  Uiso   1.00
H1070  H     0.30211   0.77517   0.71130   0.00000  Uiso   1.00
H1071  H     0.05098   0.77491   0.71202   0.00000  Uiso   1.00
N1072  N     0.03580   0.90165   0.79017   0.00000  Uiso   1.00
O1073  O     0.04689   0.89927   0.83480   0.00000  Uiso   1.00
O1074  O     0.03607   0.93758   0.76646   0.00000  Uiso   1.00
N1075  N     0.27410   0.89834   0.79795   0.00000  Uiso   1.00
O1076  O     0.24661   0.89194   0.84550   0.00000  Uiso   1.00
O1077  O     0.27793   0.93572   0.77744   0.00000  Uiso   1.00
N1078  N     0.29659   0.81145   0.89390   0.00000  Uiso   1.00
O1079  O     0.31564   0.78507   0.85662   0.00000  Uiso   1.00
O1080  O     0.31696   0.84665   0.89592   0.00000  Uiso   1.00
N1081  N     0.31489   0.80960   0.99083   0.00000  Uiso   1.00
O1082  O     0.32339   0.77196   0.97270   0.00000  Uiso   1.00
O1083  O     0.01352   0.83140   0.50250   0.00000  Uiso   1.00
H1084  H     0.13780   0.81898   0.58536   0.00000  Uiso   1.00
N1085  N     0.10676   0.75366   0.56023   0.00000  Uiso   1.00
O1086  O     0.13990   0.73357   0.57298   0.00000  Uiso   1.00
O1087  O     0.06480   0.75047   0.59127   0.00000  Uiso   1.00
H1088  H     0.22862   0.78935   0.85898   0.00000  Uiso   1.00
O1089  O     0.46179   0.89442   0.75001   0.00000  Uiso   1.00
O1090  O     0.53823   0.89441   0.75001   0.00000  Uiso   1.00
C1091  C     0.50013   0.91307   0.74939   0.00000  Uiso   1.00
O1092  O     0.44280   0.83333   0.82681   0.00000  Uiso   1.00
O1093  O     0.51924   0.83332   0.82681   0.00000  Uiso   1.00
C1094  C     0.47605   0.82572   0.85008   0.00000  Uiso   1.00
Zn1095 Zn    0.44896   0.83334   0.75000   0.00000  Uiso   1.00
Zn1096 Zn    0.55104   0.83333   0.75000   0.00000  Uiso   1.00
O1097  O     0.46177   0.77226   0.75000   0.00000  Uiso   1.00
O1098  O     0.53821   0.77225   0.75000   0.00000  Uiso   1.00
O1099  O     0.48076   0.83335   0.67319   0.00000  Uiso   1.00
O1100  O     0.55720   0.83334   0.67319   0.00000  Uiso   1.00
C1101  C     0.49987   0.75350   0.75081   0.00000  Uiso   1.00
C1102  C     0.52496   0.83390   0.64861   0.00000  Uiso   1.00
C1103  C     0.60141   0.82145   0.51075   0.00000  Uiso   1.00
C1104  C     0.53936   0.83053   0.59100   0.00000  Uiso   1.00
C1105  C     0.42379   0.78940   0.92988   0.00000  Uiso   1.00
C1106  C     0.41686   0.76954   0.97978   0.00000  Uiso   1.00
C1107  C     0.44859   0.77420   0.50907   0.00000  Uiso   1.00
C1108  C     0.49090   0.79397   0.98396   0.00000  Uiso   1.00
C1109  C     0.50295   0.79929   0.92843   0.00000  Uiso   1.00
C1110  C     0.52245   0.80755   0.51070   0.00000  Uiso   1.00
C1111  C     0.56964   0.81213   0.98211   0.00000  Uiso   1.00
C1112  C     0.58352   0.80512   0.92640   0.00000  Uiso   1.00
C1113  C     0.55010   0.79718   0.90072   0.00000  Uiso   1.00
C1114  C     0.50754   0.81906   0.56423   0.00000  Uiso   1.00
C1115  C     0.58608   0.83245   0.56394   0.00000  Uiso   1.00
C1116  C     0.46709   0.80548   0.90357   0.00000  Uiso   1.00
H1117  H     0.39663   0.79029   0.91037   0.00000  Uiso   1.00
H1118  H     0.38680   0.75090   0.99699   0.00000  Uiso   1.00
C1119  C     0.53987   0.97876   0.72208   0.00000  Uiso   1.00
H1120  H     0.57057   0.96254   0.69920   0.00000  Uiso   1.00
C1121  C     0.53973   0.68824   0.72391   0.00000  Uiso   1.00
H1122  H     0.57044   0.70503   0.70226   0.00000  Uiso   1.00
C1123  C     0.49959   0.70914   0.75212   0.00000  Uiso   1.00
C1124  C     0.45938   0.68718   0.77927   0.00000  Uiso   1.00
C1125  C     0.46079   0.97778   0.77872   0.00000  Uiso   1.00
H1126  H     0.43169   0.96069   0.80294   0.00000  Uiso   1.00
C1127  C     0.50023   0.95721   0.74956   0.00000  Uiso   1.00
C1128  C     0.64845   0.80119   0.72861   0.00000  Uiso   1.00
C1129  C     0.36248   0.80105   0.72899   0.00000  Uiso   1.00
N1130  N     0.38093   0.83334   0.75002   0.00000  Uiso   1.00
C1131  C     0.35173   0.86608   0.77025   0.00000  Uiso   1.00
C1132  C     0.63721   0.86561   0.77142   0.00000  Uiso   1.00
N1133  N     0.61906   0.83331   0.75001   0.00000  Uiso   1.00
H1134  H     0.61135   0.83860   0.58533   0.00000  Uiso   1.00
N1135  N     0.41771   0.70738   0.80898   0.00000  Uiso   1.00
O1136  O     0.37777   0.69366   0.80689   0.00000  Uiso   1.00
O1137  O     0.41917   0.73426   0.84511   0.00000  Uiso   1.00
H1138  H     0.63544   0.77517   0.71130   0.00000  Uiso   1.00
H1139  H     0.38431   0.77491   0.71202   0.00000  Uiso   1.00
N1140  N     0.36913   0.90165   0.79017   0.00000  Uiso   1.00
O1141  O     0.38022   0.89927   0.83480   0.00000  Uiso   1.00
O1142  O     0.36940   0.93758   0.76646   0.00000  Uiso   1.00
N1143  N     0.60743   0.89834   0.79795   0.00000  Uiso   1.00
O1144  O     0.57994   0.89194   0.84550   0.00000  Uiso   1.00
O1145  O     0.61126   0.93572   0.77744   0.00000  Uiso   1.00
N1146  N     0.62992   0.81145   0.89390   0.00000  Uiso   1.00
O1147  O     0.64897   0.78507   0.85662   0.00000  Uiso   1.00
O1148  O     0.65029   0.84665   0.89592   0.00000  Uiso   1.00
N1149  N     0.64822   0.80960   0.99083   0.00000  Uiso   1.00
O1150  O     0.65673   0.77196   0.97270   0.00000  Uiso   1.00
O1151  O     0.34685   0.83140   0.50250   0.00000  Uiso   1.00
H1152  H     0.47113   0.81898   0.58536   0.00000  Uiso   1.00
N1153  N     0.44009   0.75366   0.56023   0.00000  Uiso   1.00
O1154  O     0.47323   0.73357   0.57298   0.00000  Uiso   1.00
O1155  O     0.39813   0.75047   0.59127   0.00000  Uiso   1.00
H1156  H     0.56196   0.78935   0.85898   0.00000  Uiso   1.00
O1157  O     0.79512   0.89442   0.75001   0.00000  Uiso   1.00
O1158  O     0.87157   0.89441   0.75001   0.00000  Uiso   1.00
C1159  C     0.83347   0.91307   0.74939   0.00000  Uiso   1.00
O1160  O     0.77613   0.83333   0.82681   0.00000  Uiso   1.00
O1161  O     0.85258   0.83332   0.82681   0.00000  Uiso   1.00
C1162  C     0.80939   0.82572   0.85008   0.00000  Uiso   1.00
Zn1163 Zn    0.78229   0.83334   0.75000   0.00000  Uiso   1.00
Zn1164 Zn    0.88438   0.83333   0.75000   0.00000  Uiso   1.00
O1165  O     0.79510   0.77226   0.75000   0.00000  Uiso   1.00
O1166  O     0.87154   0.77225   0.75000   0.00000  Uiso   1.00
O1167  O     0.81409   0.83335   0.67319   0.00000  Uiso   1.00
O1168  O     0.89053   0.83334   0.67319   0.00000  Uiso   1.00
C1169  C     0.83320   0.75350   0.75081   0.00000  Uiso   1.00
C1170  C     0.85829   0.83390   0.64861   0.00000  Uiso   1.00
C1171  C     0.93474   0.82145   0.51075   0.00000  Uiso   1.00
C1172  C     0.87270   0.83053   0.59100   0.00000  Uiso   1.00
C1173  C     0.75713   0.78940   0.92988   0.00000  Uiso   1.00
C1174  C     0.75020   0.76954   0.97978   0.00000  Uiso   1.00
C1175  C     0.78192   0.77420   0.50907   0.00000  Uiso   1.00
C1176  C     0.82423   0.79397   0.98396   0.00000  Uiso   1.00
C1177  C     0.83628   0.79929   0.92843   0.00000  Uiso   1.00
C1178  C     0.85579   0.80755   0.51070   0.00000  Uiso   1.00
C1179  C     0.90297   0.81213   0.98211   0.00000  Uiso   1.00
C1180  C     0.91685   0.80512   0.92640   0.00000  Uiso   1.00
C1181  C     0.88344   0.79718   0.90072   0.00000  Uiso   1.00
C1182  C     0.84087   0.81906   0.56423   0.00000  Uiso   1.00
C1183  C     0.91941   0.83245   0.56394   0.00000  Uiso   1.00
C1184  C     0.80042   0.80548   0.90357   0.00000  Uiso   1.00
H1185  H     0.72997   0.79029   0.91037   0.00000  Uiso   1.00
H1186  H     0.72013   0.75090   0.99699   0.00000  Uiso   1.00
C1187  C     0.87320   0.97876   0.72208   0.00000  Uiso   1.00
H1188  H     0.90390   0.96254   0.69920   0.00000  Uiso   1.00
C1189  C     0.87306   0.68824   0.72391   0.00000  Uiso   1.00
H1190  H     0.90378   0.70503   0.70226   0.00000  Uiso   1.00
C1191  C     0.83292   0.70914   0.75212   0.00000  Uiso   1.00
C1192  C     0.79272   0.68718   0.77927   0.00000  Uiso   1.00
C1193  C     0.79412   0.97778   0.77872   0.00000  Uiso   1.00
H1194  H     0.76502   0.96069   0.80294   0.00000  Uiso   1.00
C1195  C     0.83356   0.95721   0.74956   0.00000  Uiso   1.00
C1196  C     0.98179   0.80119   0.72861   0.00000  Uiso   1.00
C1197  C     0.69581   0.80105   0.72899   0.00000  Uiso   1.00
N1198  N     0.71426   0.83334   0.75002   0.00000  Uiso   1.00
C1199  C     0.68506   0.86608   0.77025   0.00000  Uiso   1.00
C1200  C     0.97054   0.86561   0.77142   0.00000  Uiso   1.00
N1201  N     0.95239   0.83331   0.75001   0.00000  Uiso   1.00
H1202  H     0.94468   0.83860   0.58533   0.00000  Uiso   1.00
N1203  N     0.75104   0.70738   0.80898   0.00000  Uiso   1.00
O1204  O     0.71111   0.69366   0.80689   0.00000  Uiso   1.00
O1205  O     0.75250   0.73426   0.84511   0.00000  Uiso   1.00
H1206  H     0.96877   0.77517   0.71130   0.00000  Uiso   1.00
H1207  H     0.71765   0.77491   0.71202   0.00000  Uiso   1.00
N1208  N     0.70246   0.90165   0.79017   0.00000  Uiso   1.00
O1209  O     0.71355   0.89927   0.83480   0.00000  Uiso   1.00
O1210  O     0.70273   0.93758   0.76646   0.00000  Uiso   1.00
N1211  N     0.94076   0.89834   0.79795   0.00000  Uiso   1.00
O1212  O     0.91327   0.89194   0.84550   0.00000  Uiso   1.00
O1213  O     0.94460   0.93572   0.77744   0.00000  Uiso   1.00
N1214  N     0.96326   0.81145   0.89390   0.00000  Uiso   1.00
O1215  O     0.98230   0.78507   0.85662   0.00000  Uiso   1.00
O1216  O     0.98363   0.84665   0.89592   0.00000  Uiso   1.00
N1217  N     0.98155   0.80960   0.99083   0.00000  Uiso   1.00
O1218  O     0.99006   0.77196   0.97270   0.00000  Uiso   1.00
O1219  O     0.68019   0.83140   0.50250   0.00000  Uiso   1.00
H1220  H     0.80446   0.81898   0.58536   0.00000  Uiso   1.00
N1221  N     0.77342   0.75366   0.56023   0.00000  Uiso   1.00
O1222  O     0.80657   0.73357   0.57298   0.00000  Uiso   1.00
O1223  O     0.73146   0.75047   0.59127   0.00000  Uiso   1.00
H1224  H     0.89529   0.78935   0.85898   0.00000  Uiso   1.00
loop_
_geom_bond_atom_site_label_1
_geom_bond_atom_site_label_2
_geom_bond_distance
_geom_bond_site_symmetry_2
_ccdc_geom_bond_type
O1     Zn7     2.002   .     S
O1     C3      1.303   .     A
O2     C3      1.295   .     A
O2     Zn8     1.995   .     S
C3     C39     1.417   .     S
O4     Zn7     1.961   .     S
O4     C6      1.329   .     A
O5     Zn8     1.965   .     S
O5     C6      1.297   .     A
C6     C28     1.487   .     S
Zn7    O11     1.965   .     S
Zn7    N42     2.051   .     S
Zn7    O9      1.995   .     S
Zn8    O12     1.961   .     S
Zn8    O10     2.002   .     S
Zn8    N45     2.051   .     S
O9     C13     1.298   .     A
O10    C13     1.303   .     A
O11    C14     1.307   .     A
O12    C14     1.306   .     A
C13    C35     1.424   .     S
C14    C16     1.449   .     S
C15    C27     1.384   .     A
C15    C635    1.406   1_554 S
C15    N673    1.411   1_554 S
C16    C27     1.389   .     A
C16    C26     1.390   .     A
C17    H29     1.079   .     S
C17    C18     1.405   .     A
C17    C28     1.394   .     A
C18    H30     1.075   .     S
C18    C631    1.392   .     S
C19    N65     1.439   .     S
C19    C630    1.392   1_554 S
C19    C632    1.412   1_554 S
C20    C21     1.400   .     A
C20    C631    1.412   .     S
C20    C634    1.403   .     S
C21    C28     1.419   .     A
C21    C25     1.405   .     A
C22    C26     1.396   .     A
C22    C632    1.403   1_554 S
C22    C635    1.417   1_554 S
C23    C24     1.416   .     A
C23    C627    1.406   .     S
C23    C634    1.417   .     S
C24    C25     1.384   .     A
C24    N58     1.433   .     S
C25    H68     1.079   .     S
C26    H64     1.082   .     S
C27    H46     1.084   .     S
C31    H32     1.084   .     S
C31    C39     1.394   .     A
C31    C237    1.375   .     S
C33    C35     1.399   .     A
C33    H34     1.084   .     S
C33    C439    1.375   1_545 S
C35    C36     1.410   .     A
C36    N47     1.433   .     S
C36    C445    1.372   1_545 S
C37    H38     1.077   .     S
C37    C39     1.386   .     A
C37    C240    1.372   .     S
C40    H50     1.082   .     S
C40    N45     1.372   .     A
C40    C109    1.431   .     S
C41    N42     1.372   .     A
C41    H51     1.082   .     S
C41    C176    1.431   1_455 S
N42    C43     1.377   .     A
C43    N52     1.424   .     S
C43    C180    1.435   1_455 S
C44    N55     1.429   .     S
C44    N45     1.372   .     A
C44    C111    1.435   .     S
N47    O49     1.296   .     A
N47    O48     1.301   .     A
N52    O54     1.300   .     A
N52    O53     1.300   .     A
N55    O56     1.300   .     A
N55    O57     1.300   .     A
N58    O60     1.300   .     A
N58    O59     1.301   .     A
N61    O62     1.300   .     A
N61    C627    1.411   .     S
N61    O743    1.301   .     S
O63    N809    1.301   1_454 S
N65    O66     1.302   .     A
N65    O67     1.302   .     A
O69    Zn75    2.002   .     S
O69    C71     1.303   .     A
O70    C71     1.295   .     A
O70    Zn76    1.995   .     S
C71    C107    1.417   .     S
O72    Zn75    1.961   .     S
O72    C74     1.329   .     A
O73    Zn76    1.965   .     S
O73    C74     1.297   .     A
C74    C96     1.487   .     S
Zn75   O79     1.965   .     S
Zn75   N110    2.051   .     S
Zn75   O77     1.995   .     S
Zn76   O80     1.961   .     S
Zn76   O78     2.002   .     S
Zn76   N113    2.051   .     S
O77    C81     1.298   .     A
O78    C81     1.303   .     A
O79    C82     1.307   .     A
O80    C82     1.306   .     A
C81    C103    1.424   .     S
C82    C84     1.449   .     S
C83    C95     1.384   .     A
C83    C703    1.406   1_554 S
C83    N741    1.411   1_554 S
C84    C95     1.389   .     A
C84    C94     1.390   .     A
C85    H97     1.079   .     S
C85    C86     1.405   .     A
C85    C96     1.394   .     A
C86    H98     1.075   .     S
C86    C699    1.392   .     S
C87    N133    1.439   .     S
C87    C698    1.392   1_554 S
C87    C700    1.412   1_554 S
C88    C89     1.400   .     A
C88    C699    1.412   .     S
C88    C702    1.403   .     S
C89    C96     1.419   .     A
C89    C93     1.405   .     A
C90    C94     1.396   .     A
C90    C700    1.403   1_554 S
C90    C703    1.417   1_554 S
C91    C92     1.416   .     A
C91    C695    1.406   .     S
C91    C702    1.417   .     S
C92    C93     1.384   .     A
C92    N126    1.433   .     S
C93    H136    1.079   .     S
C94    H132    1.082   .     S
C95    H114    1.084   .     S
C99    H100    1.084   .     S
C99    C107    1.394   .     A
C99    C305    1.375   .     S
C101   C103    1.399   .     A
C101   H102    1.084   .     S
C101   C507    1.375   1_545 S
C103   C104    1.410   .     A
C104   N115    1.433   .     S
C104   C513    1.372   1_545 S
C105   H106    1.077   .     S
C105   C107    1.386   .     A
C105   C308    1.372   .     S
C108   H118    1.082   .     S
C108   N113    1.372   .     A
C108   C177    1.431   .     S
C109   N110    1.372   .     A
C109   H119    1.082   .     S
N110   C111    1.377   .     A
C111   N120    1.424   .     S
C112   N123    1.429   .     S
C112   N113    1.372   .     A
C112   C179    1.435   .     S
N115   O117    1.296   .     A
N115   O116    1.301   .     A
N120   O122    1.300   .     A
N120   O121    1.300   .     A
N123   O124    1.300   .     A
N123   O125    1.300   .     A
N126   O128    1.300   .     A
N126   O127    1.301   .     A
N129   O130    1.300   .     A
N129   C695    1.411   .     S
N129   O811    1.301   .     S
O131   N673    1.301   1_554 S
N133   O134    1.302   .     A
N133   O135    1.302   .     A
O137   Zn143   2.002   .     S
O137   C139    1.303   .     A
O138   C139    1.295   .     A
O138   Zn144   1.995   .     S
C139   C175    1.417   .     S
O140   Zn143   1.961   .     S
O140   C142    1.329   .     A
O141   Zn144   1.965   .     S
O141   C142    1.297   .     A
C142   C164    1.487   .     S
Zn143  O147    1.965   .     S
Zn143  N178    2.051   .     S
Zn143  O145    1.995   .     S
Zn144  O148    1.961   .     S
Zn144  O146    2.002   .     S
Zn144  N181    2.051   .     S
O145   C149    1.298   .     A
O146   C149    1.303   .     A
O147   C150    1.307   .     A
O148   C150    1.306   .     A
C149   C171    1.424   .     S
C150   C152    1.449   .     S
C151   C163    1.384   .     A
C151   C771    1.406   1_554 S
C151   N809    1.411   1_554 S
C152   C163    1.389   .     A
C152   C162    1.390   .     A
C153   H165    1.079   .     S
C153   C154    1.405   .     A
C153   C164    1.394   .     A
C154   H166    1.075   .     S
C154   C767    1.392   .     S
C155   N201    1.439   .     S
C155   C766    1.392   1_554 S
C155   C768    1.412   1_554 S
C156   C157    1.400   .     A
C156   C767    1.412   .     S
C156   C770    1.403   .     S
C157   C164    1.419   .     A
C157   C161    1.405   .     A
C158   C162    1.396   .     A
C158   C768    1.403   1_554 S
C158   C771    1.417   1_554 S
C159   C160    1.416   .     A
C159   C763    1.406   .     S
C159   C770    1.417   .     S
C160   C161    1.384   .     A
C160   N194    1.433   .     S
C161   H204    1.079   .     S
C162   H200    1.082   .     S
C163   H182    1.084   .     S
C167   H168    1.084   .     S
C167   C175    1.394   .     A
C167   C373    1.375   .     S
C169   C171    1.399   .     A
C169   H170    1.084   .     S
C169   C575    1.375   1_545 S
C171   C172    1.410   .     A
C172   N183    1.433   .     S
C172   C581    1.372   1_545 S
C173   H174    1.077   .     S
C173   C175    1.386   .     A
C173   C376    1.372   .     S
C176   H186    1.082   .     S
C176   N181    1.372   .     A
C176   C41     1.431   1_655 S
C177   N178    1.372   .     A
C177   H187    1.082   .     S
N178   C179    1.377   .     A
C179   N188    1.424   .     S
C180   N191    1.429   .     S
C180   N181    1.372   .     A
C180   C43     1.435   1_655 S
N183   O185    1.296   .     A
N183   O184    1.301   .     A
N188   O190    1.300   .     A
N188   O189    1.300   .     A
N191   O192    1.300   .     A
N191   O193    1.300   .     A
N194   O196    1.300   .     A
N194   O195    1.301   .     A
N197   O198    1.300   .     A
N197   C763    1.411   .     S
N197   O675    1.301   1_655 S
O199   N741    1.301   1_554 S
N201   O202    1.302   .     A
N201   O203    1.302   .     A
O205   Zn211   2.002   .     S
O205   C207    1.303   .     A
O206   C207    1.295   .     A
O206   Zn212   1.995   .     S
C207   C243    1.417   .     S
O208   Zn211   1.961   .     S
O208   C210    1.329   .     A
O209   Zn212   1.965   .     S
O209   C210    1.297   .     A
C210   C232    1.487   .     S
Zn211  O215    1.965   .     S
Zn211  N246    2.051   .     S
Zn211  O213    1.995   .     S
Zn212  O216    1.961   .     S
Zn212  O214    2.002   .     S
Zn212  N249    2.051   .     S
O213   C217    1.298   .     A
O214   C217    1.303   .     A
O215   C218    1.307   .     A
O216   C218    1.306   .     A
C217   C239    1.424   .     S
C218   C220    1.449   .     S
C219   C231    1.384   .     A
C219   C839    1.406   1_554 S
C219   N877    1.411   1_554 S
C220   C231    1.389   .     A
C220   C230    1.390   .     A
C221   H233    1.079   .     S
C221   C222    1.405   .     A
C221   C232    1.394   .     A
C222   H234    1.075   .     S
C222   C835    1.392   .     S
C223   N269    1.439   .     S
C223   C834    1.392   1_554 S
C223   C836    1.412   1_554 S
C224   C225    1.400   .     A
C224   C835    1.412   .     S
C224   C838    1.403   .     S
C225   C232    1.419   .     A
C225   C229    1.405   .     A
C226   C230    1.396   .     A
C226   C836    1.403   1_554 S
C226   C839    1.417   1_554 S
C227   C228    1.416   .     A
C227   C831    1.406   .     S
C227   C838    1.417   .     S
C228   C229    1.384   .     A
C228   N262    1.433   .     S
C229   H272    1.079   .     S
C230   H268    1.082   .     S
C231   H250    1.084   .     S
C235   H236    1.084   .     S
C235   C243    1.394   .     A
C235   C441    1.375   .     S
C237   C239    1.399   .     A
C237   H238    1.084   .     S
C239   C240    1.410   .     A
C240   N251    1.433   .     S
C241   H242    1.077   .     S
C241   C243    1.386   .     A
C241   C444    1.372   .     S
C244   H254    1.082   .     S
C244   N249    1.372   .     A
C244   C313    1.431   .     S
C245   N246    1.372   .     A
C245   H255    1.082   .     S
C245   C380    1.431   1_455 S
N246   C247    1.377   .     A
C247   N256    1.424   .     S
C247   C384    1.435   1_455 S
C248   N259    1.429   .     S
C248   N249    1.372   .     A
C248   C315    1.435   .     S
N251   O253    1.296   .     A
N251   O252    1.301   .     A
N256   O258    1.300   .     A
N256   O257    1.300   .     A
N259   O260    1.300   .     A
N259   O261    1.300   .     A
N262   O264    1.300   .     A
N262   O263    1.301   .     A
N265   O266    1.300   .     A
N265   C831    1.411   .     S
N265   O947    1.301   .     S
O267   N1013   1.301   1_454 S
N269   O270    1.302   .     A
N269   O271    1.302   .     A
O273   Zn279   2.002   .     S
O273   C275    1.303   .     A
O274   C275    1.295   .     A
O274   Zn280   1.995   .     S
C275   C311    1.417   .     S
O276   Zn279   1.961   .     S
O276   C278    1.329   .     A
O277   Zn280   1.965   .     S
O277   C278    1.297   .     A
C278   C300    1.487   .     S
Zn279  O283    1.965   .     S
Zn279  N314    2.051   .     S
Zn279  O281    1.995   .     S
Zn280  O284    1.961   .     S
Zn280  O282    2.002   .     S
Zn280  N317    2.051   .     S
O281   C285    1.298   .     A
O282   C285    1.303   .     A
O283   C286    1.307   .     A
O284   C286    1.306   .     A
C285   C307    1.424   .     S
C286   C288    1.449   .     S
C287   C299    1.384   .     A
C287   C907    1.406   1_554 S
C287   N945    1.411   1_554 S
C288   C299    1.389   .     A
C288   C298    1.390   .     A
C289   H301    1.079   .     S
C289   C290    1.405   .     A
C289   C300    1.394   .     A
C290   H302    1.075   .     S
C290   C903    1.392   .     S
C291   N337    1.439   .     S
C291   C902    1.392   1_554 S
C291   C904    1.412   1_554 S
C292   C293    1.400   .     A
C292   C903    1.412   .     S
C292   C906    1.403   .     S
C293   C300    1.419   .     A
C293   C297    1.405   .     A
C294   C298    1.396   .     A
C294   C904    1.403   1_554 S
C294   C907    1.417   1_554 S
C295   C296    1.416   .     A
C295   C899    1.406   .     S
C295   C906    1.417   .     S
C296   C297    1.384   .     A
C296   N330    1.433   .     S
C297   H340    1.079   .     S
C298   H336    1.082   .     S
C299   H318    1.084   .     S
C303   H304    1.084   .     S
C303   C311    1.394   .     A
C303   C509    1.375   .     S
C305   C307    1.399   .     A
C305   H306    1.084   .     S
C307   C308    1.410   .     A
C308   N319    1.433   .     S
C309   H310    1.077   .     S
C309   C311    1.386   .     A
C309   C512    1.372   .     S
C312   H322    1.082   .     S
C312   N317    1.372   .     A
C312   C381    1.431   .     S
C313   N314    1.372   .     A
C313   H323    1.082   .     S
N314   C315    1.377   .     A
C315   N324    1.424   .     S
C316   N327    1.429   .     S
C316   N317    1.372   .     A
C316   C383    1.435   .     S
N319   O321    1.296   .     A
N319   O320    1.301   .     A
N324   O326    1.300   .     A
N324   O325    1.300   .     A
N327   O328    1.300   .     A
N327   O329    1.300   .     A
N330   O332    1.300   .     A
N330   O331    1.301   .     A
N333   O334    1.300   .     A
N333   C899    1.411   .     S
N333   O1015   1.301   .     S
O335   N877    1.301   1_554 S
N337   O338    1.302   .     A
N337   O339    1.302   .     A
O341   Zn347   2.002   .     S
O341   C343    1.303   .     A
O342   C343    1.295   .     A
O342   Zn348   1.995   .     S
C343   C379    1.417   .     S
O344   Zn347   1.961   .     S
O344   C346    1.329   .     A
O345   Zn348   1.965   .     S
O345   C346    1.297   .     A
C346   C368    1.487   .     S
Zn347  O351    1.965   .     S
Zn347  N382    2.051   .     S
Zn347  O349    1.995   .     S
Zn348  O352    1.961   .     S
Zn348  O350    2.002   .     S
Zn348  N385    2.051   .     S
O349   C353    1.298   .     A
O350   C353    1.303   .     A
O351   C354    1.307   .     A
O352   C354    1.306   .     A
C353   C375    1.424   .     S
C354   C356    1.449   .     S
C355   C367    1.384   .     A
C355   C975    1.406   1_554 S
C355   N1013   1.411   1_554 S
C356   C367    1.389   .     A
C356   C366    1.390   .     A
C357   H369    1.079   .     S
C357   C358    1.405   .     A
C357   C368    1.394   .     A
C358   H370    1.075   .     S
C358   C971    1.392   .     S
C359   N405    1.439   .     S
C359   C970    1.392   1_554 S
C359   C972    1.412   1_554 S
C360   C361    1.400   .     A
C360   C971    1.412   .     S
C360   C974    1.403   .     S
C361   C368    1.419   .     A
C361   C365    1.405   .     A
C362   C366    1.396   .     A
C362   C972    1.403   1_554 S
C362   C975    1.417   1_554 S
C363   C364    1.416   .     A
C363   C967    1.406   .     S
C363   C974    1.417   .     S
C364   C365    1.384   .     A
C364   N398    1.433   .     S
C365   H408    1.079   .     S
C366   H404    1.082   .     S
C367   H386    1.084   .     S
C371   H372    1.084   .     S
C371   C379    1.394   .     A
C371   C577    1.375   .     S
C373   C375    1.399   .     A
C373   H374    1.084   .     S
C375   C376    1.410   .     A
C376   N387    1.433   .     S
C377   H378    1.077   .     S
C377   C379    1.386   .     A
C377   C580    1.372   .     S
C380   H390    1.082   .     S
C380   N385    1.372   .     A
C380   C245    1.431   1_655 S
C381   N382    1.372   .     A
C381   H391    1.082   .     S
N382   C383    1.377   .     A
C383   N392    1.424   .     S
C384   N395    1.429   .     S
C384   N385    1.372   .     A
C384   C247    1.435   1_655 S
N387   O389    1.296   .     A
N387   O388    1.301   .     A
N392   O394    1.300   .     A
N392   O393    1.300   .     A
N395   O396    1.300   .     A
N395   O397    1.300   .     A
N398   O400    1.300   .     A
N398   O399    1.301   .     A
N401   O402    1.300   .     A
N401   C967    1.411   .     S
N401   O879    1.301   1_655 S
O403   N945    1.301   1_554 S
N405   O406    1.302   .     A
N405   O407    1.302   .     A
O409   Zn415   2.002   .     S
O409   C411    1.303   .     A
O410   C411    1.295   .     A
O410   Zn416   1.995   .     S
C411   C447    1.417   .     S
O412   Zn415   1.961   .     S
O412   C414    1.329   .     A
O413   Zn416   1.965   .     S
O413   C414    1.297   .     A
C414   C436    1.487   .     S
Zn415  O419    1.965   .     S
Zn415  N450    2.051   .     S
Zn415  O417    1.995   .     S
Zn416  O420    1.961   .     S
Zn416  O418    2.002   .     S
Zn416  N453    2.051   .     S
O417   C421    1.298   .     A
O418   C421    1.303   .     A
O419   C422    1.307   .     A
O420   C422    1.306   .     A
C421   C443    1.424   .     S
C422   C424    1.449   .     S
C423   C435    1.384   .     A
C423   C1043   1.406   1_554 S
C423   N1081   1.411   1_554 S
C424   C435    1.389   .     A
C424   C434    1.390   .     A
C425   H437    1.079   .     S
C425   C426    1.405   .     A
C425   C436    1.394   .     A
C426   H438    1.075   .     S
C426   C1039   1.392   .     S
C427   N473    1.439   .     S
C427   C1038   1.392   1_554 S
C427   C1040   1.412   1_554 S
C428   C429    1.400   .     A
C428   C1039   1.412   .     S
C428   C1042   1.403   .     S
C429   C436    1.419   .     A
C429   C433    1.405   .     A
C430   C434    1.396   .     A
C430   C1040   1.403   1_554 S
C430   C1043   1.417   1_554 S
C431   C432    1.416   .     A
C431   C1035   1.406   .     S
C431   C1042   1.417   .     S
C432   C433    1.384   .     A
C432   N466    1.433   .     S
C433   H476    1.079   .     S
C434   H472    1.082   .     S
C435   H454    1.084   .     S
C439   H440    1.084   .     S
C439   C447    1.394   .     A
C439   C33     1.375   1_565 S
C441   C443    1.399   .     A
C441   H442    1.084   .     S
C443   C444    1.410   .     A
C444   N455    1.433   .     S
C445   H446    1.077   .     S
C445   C447    1.386   .     A
C445   C36     1.372   1_565 S
C448   H458    1.082   .     S
C448   N453    1.372   .     A
C448   C517    1.431   .     S
C449   N450    1.372   .     A
C449   H459    1.082   .     S
C449   C584    1.431   1_455 S
N450   C451    1.377   .     A
C451   N460    1.424   .     S
C451   C588    1.435   1_455 S
C452   N463    1.429   .     S
C452   N453    1.372   .     A
C452   C519    1.435   .     S
N455   O457    1.296   .     A
N455   O456    1.301   .     A
N460   O462    1.300   .     A
N460   O461    1.300   .     A
N463   O464    1.300   .     A
N463   O465    1.300   .     A
N466   O468    1.300   .     A
N466   O467    1.301   .     A
N469   O470    1.300   .     A
N469   C1035   1.411   .     S
N469   O1151   1.301   .     S
O471   N1217   1.301   1_454 S
N473   O474    1.302   .     A
N473   O475    1.302   .     A
O477   Zn483   2.002   .     S
O477   C479    1.303   .     A
O478   C479    1.295   .     A
O478   Zn484   1.995   .     S
C479   C515    1.417   .     S
O480   Zn483   1.961   .     S
O480   C482    1.329   .     A
O481   Zn484   1.965   .     S
O481   C482    1.297   .     A
C482   C504    1.487   .     S
Zn483  O487    1.965   .     S
Zn483  N518    2.051   .     S
Zn483  O485    1.995   .     S
Zn484  O488    1.961   .     S
Zn484  O486    2.002   .     S
Zn484  N521    2.051   .     S
O485   C489    1.298   .     A
O486   C489    1.303   .     A
O487   C490    1.307   .     A
O488   C490    1.306   .     A
C489   C511    1.424   .     S
C490   C492    1.449   .     S
C491   C503    1.384   .     A
C491   C1111   1.406   1_554 S
C491   N1149   1.411   1_554 S
C492   C503    1.389   .     A
C492   C502    1.390   .     A
C493   H505    1.079   .     S
C493   C494    1.405   .     A
C493   C504    1.394   .     A
C494   H506    1.075   .     S
C494   C1107   1.392   .     S
C495   N541    1.439   .     S
C495   C1106   1.392   1_554 S
C495   C1108   1.412   1_554 S
C496   C497    1.400   .     A
C496   C1107   1.412   .     S
C496   C1110   1.403   .     S
C497   C504    1.419   .     A
C497   C501    1.405   .     A
C498   C502    1.396   .     A
C498   C1108   1.403   1_554 S
C498   C1111   1.417   1_554 S
C499   C500    1.416   .     A
C499   C1103   1.406   .     S
C499   C1110   1.417   .     S
C500   C501    1.384   .     A
C500   N534    1.433   .     S
C501   H544    1.079   .     S
C502   H540    1.082   .     S
C503   H522    1.084   .     S
C507   H508    1.084   .     S
C507   C515    1.394   .     A
C507   C101    1.375   1_565 S
C509   C511    1.399   .     A
C509   H510    1.084   .     S
C511   C512    1.410   .     A
C512   N523    1.433   .     S
C513   H514    1.077   .     S
C513   C515    1.386   .     A
C513   C104    1.372   1_565 S
C516   H526    1.082   .     S
C516   N521    1.372   .     A
C516   C585    1.431   .     S
C517   N518    1.372   .     A
C517   H527    1.082   .     S
N518   C519    1.377   .     A
C519   N528    1.424   .     S
C520   N531    1.429   .     S
C520   N521    1.372   .     A
C520   C587    1.435   .     S
N523   O525    1.296   .     A
N523   O524    1.301   .     A
N528   O530    1.300   .     A
N528   O529    1.300   .     A
N531   O532    1.300   .     A
N531   O533    1.300   .     A
N534   O536    1.300   .     A
N534   O535    1.301   .     A
N537   O538    1.300   .     A
N537   C1103   1.411   .     S
N537   O1219   1.301   .     S
O539   N1081   1.301   1_554 S
N541   O542    1.302   .     A
N541   O543    1.302   .     A
O545   Zn551   2.002   .     S
O545   C547    1.303   .     A
O546   C547    1.295   .     A
O546   Zn552   1.995   .     S
C547   C583    1.417   .     S
O548   Zn551   1.961   .     S
O548   C550    1.329   .     A
O549   Zn552   1.965   .     S
O549   C550    1.297   .     A
C550   C572    1.487   .     S
Zn551  O555    1.965   .     S
Zn551  N586    2.051   .     S
Zn551  O553    1.995   .     S
Zn552  O556    1.961   .     S
Zn552  O554    2.002   .     S
Zn552  N589    2.051   .     S
O553   C557    1.298   .     A
O554   C557    1.303   .     A
O555   C558    1.307   .     A
O556   C558    1.306   .     A
C557   C579    1.424   .     S
C558   C560    1.449   .     S
C559   C571    1.384   .     A
C559   C1179   1.406   1_554 S
C559   N1217   1.411   1_554 S
C560   C571    1.389   .     A
C560   C570    1.390   .     A
C561   H573    1.079   .     S
C561   C562    1.405   .     A
C561   C572    1.394   .     A
C562   H574    1.075   .     S
C562   C1175   1.392   .     S
C563   N609    1.439   .     S
C563   C1174   1.392   1_554 S
C563   C1176   1.412   1_554 S
C564   C565    1.400   .     A
C564   C1175   1.412   .     S
C564   C1178   1.403   .     S
C565   C572    1.419   .     A
C565   C569    1.405   .     A
C566   C570    1.396   .     A
C566   C1176   1.403   1_554 S
C566   C1179   1.417   1_554 S
C567   C568    1.416   .     A
C567   C1171   1.406   .     S
C567   C1178   1.417   .     S
C568   C569    1.384   .     A
C568   N602    1.433   .     S
C569   H612    1.079   .     S
C570   H608    1.082   .     S
C571   H590    1.084   .     S
C575   H576    1.084   .     S
C575   C583    1.394   .     A
C575   C169    1.375   1_565 S
C577   C579    1.399   .     A
C577   H578    1.084   .     S
C579   C580    1.410   .     A
C580   N591    1.433   .     S
C581   H582    1.077   .     S
C581   C583    1.386   .     A
C581   C172    1.372   1_565 S
C584   H594    1.082   .     S
C584   N589    1.372   .     A
C584   C449    1.431   1_655 S
C585   N586    1.372   .     A
C585   H595    1.082   .     S
N586   C587    1.377   .     A
C587   N596    1.424   .     S
C588   N599    1.429   .     S
C588   N589    1.372   .     A
C588   C451    1.435   1_655 S
N591   O593    1.296   .     A
N591   O592    1.301   .     A
N596   O598    1.300   .     A
N596   O597    1.300   .     A
N599   O600    1.300   .     A
N599   O601    1.300   .     A
N602   O604    1.300   .     A
N602   O603    1.301   .     A
N605   O606    1.300   .     A
N605   C1171   1.411   .     S
N605   O1083   1.301   1_655 S
O607   N1149   1.301   1_554 S
N609   O610    1.302   .     A
N609   O611    1.302   .     A
O613   Zn619   2.002   .     S
O613   C615    1.303   .     A
O614   C615    1.295   .     A
O614   Zn620   1.995   .     S
C615   C651    1.417   .     S
O616   Zn619   1.961   .     S
O616   C618    1.329   .     A
O617   Zn620   1.965   .     S
O617   C618    1.297   .     A
C618   C640    1.487   .     S
Zn619  O623    1.965   .     S
Zn619  N654    2.051   .     S
Zn619  O621    1.995   .     S
Zn620  O624    1.961   .     S
Zn620  O622    2.002   .     S
Zn620  N657    2.051   .     S
O621   C625    1.298   .     A
O622   C625    1.303   .     A
O623   C626    1.307   .     A
O624   C626    1.306   .     A
C625   C647    1.424   .     S
C626   C628    1.449   .     S
C627   C639    1.384   .     A
C628   C639    1.389   .     A
C628   C638    1.390   .     A
C629   H641    1.079   .     S
C629   C630    1.405   .     A
C629   C640    1.394   .     A
C630   H642    1.075   .     S
C630   C19     1.392   1_556 S
C631   N677    1.439   .     S
C632   C633    1.400   .     A
C632   C19     1.412   1_556 S
C632   C22     1.403   1_556 S
C633   C640    1.419   .     A
C633   C637    1.405   .     A
C634   C638    1.396   .     A
C635   C636    1.416   .     A
C635   C15     1.406   1_556 S
C635   C22     1.417   1_556 S
C636   C637    1.384   .     A
C636   N670    1.433   .     S
C637   H680    1.079   .     S
C638   H676    1.082   .     S
C639   H658    1.084   .     S
C643   H644    1.084   .     S
C643   C651    1.394   .     A
C643   C849    1.375   .     S
C645   C647    1.399   .     A
C645   H646    1.084   .     S
C645   C1051   1.375   1_545 S
C647   C648    1.410   .     A
C648   N659    1.433   .     S
C648   C1057   1.372   1_545 S
C649   H650    1.077   .     S
C649   C651    1.386   .     A
C649   C852    1.372   .     S
C652   H662    1.082   .     S
C652   N657    1.372   .     A
C652   C721    1.431   .     S
C653   N654    1.372   .     A
C653   H663    1.082   .     S
C653   C788    1.431   1_455 S
N654   C655    1.377   .     A
C655   N664    1.424   .     S
C655   C792    1.435   1_455 S
C656   N667    1.429   .     S
C656   N657    1.372   .     A
C656   C723    1.435   .     S
N659   O661    1.296   .     A
N659   O660    1.301   .     A
N664   O666    1.300   .     A
N664   O665    1.300   .     A
N667   O668    1.300   .     A
N667   O669    1.300   .     A
N670   O672    1.300   .     A
N670   O671    1.301   .     A
N673   O674    1.300   .     A
N673   C15     1.411   1_556 S
N673   O131    1.301   1_556 S
O675   N197    1.301   1_455 S
N677   O678    1.302   .     A
N677   O679    1.302   .     A
O681   Zn687   2.002   .     S
O681   C683    1.303   .     A
O682   C683    1.295   .     A
O682   Zn688   1.995   .     S
C683   C719    1.417   .     S
O684   Zn687   1.961   .     S
O684   C686    1.329   .     A
O685   Zn688   1.965   .     S
O685   C686    1.297   .     A
C686   C708    1.487   .     S
Zn687  O691    1.965   .     S
Zn687  N722    2.051   .     S
Zn687  O689    1.995   .     S
Zn688  O692    1.961   .     S
Zn688  O690    2.002   .     S
Zn688  N725    2.051   .     S
O689   C693    1.298   .     A
O690   C693    1.303   .     A
O691   C694    1.307   .     A
O692   C694    1.306   .     A
C693   C715    1.424   .     S
C694   C696    1.449   .     S
C695   C707    1.384   .     A
C696   C707    1.389   .     A
C696   C706    1.390   .     A
C697   H709    1.079   .     S
C697   C698    1.405   .     A
C697   C708    1.394   .     A
C698   H710    1.075   .     S
C698   C87     1.392   1_556 S
C699   N745    1.439   .     S
C700   C701    1.400   .     A
C700   C87     1.412   1_556 S
C700   C90     1.403   1_556 S
C701   C708    1.419   .     A
C701   C705    1.405   .     A
C702   C706    1.396   .     A
C703   C704    1.416   .     A
C703   C83     1.406   1_556 S
C703   C90     1.417   1_556 S
C704   C705    1.384   .     A
C704   N738    1.433   .     S
C705   H748    1.079   .     S
C706   H744    1.082   .     S
C707   H726    1.084   .     S
C711   H712    1.084   .     S
C711   C719    1.394   .     A
C711   C917    1.375   .     S
C713   C715    1.399   .     A
C713   H714    1.084   .     S
C713   C1119   1.375   1_545 S
C715   C716    1.410   .     A
C716   N727    1.433   .     S
C716   C1125   1.372   1_545 S
C717   H718    1.077   .     S
C717   C719    1.386   .     A
C717   C920    1.372   .     S
C720   H730    1.082   .     S
C720   N725    1.372   .     A
C720   C789    1.431   .     S
C721   N722    1.372   .     A
C721   H731    1.082   .     S
N722   C723    1.377   .     A
C723   N732    1.424   .     S
C724   N735    1.429   .     S
C724   N725    1.372   .     A
C724   C791    1.435   .     S
N727   O729    1.296   .     A
N727   O728    1.301   .     A
N732   O734    1.300   .     A
N732   O733    1.300   .     A
N735   O736    1.300   .     A
N735   O737    1.300   .     A
N738   O740    1.300   .     A
N738   O739    1.301   .     A
N741   O742    1.300   .     A
N741   C83     1.411   1_556 S
N741   O199    1.301   1_556 S
N745   O746    1.302   .     A
N745   O747    1.302   .     A
O749   Zn755   2.002   .     S
O749   C751    1.303   .     A
O750   C751    1.295   .     A
O750   Zn756   1.995   .     S
C751   C787    1.417   .     S
O752   Zn755   1.961   .     S
O752   C754    1.329   .     A
O753   Zn756   1.965   .     S
O753   C754    1.297   .     A
C754   C776    1.487   .     S
Zn755  O759    1.965   .     S
Zn755  N790    2.051   .     S
Zn755  O757    1.995   .     S
Zn756  O760    1.961   .     S
Zn756  O758    2.002   .     S
Zn756  N793    2.051   .     S
O757   C761    1.298   .     A
O758   C761    1.303   .     A
O759   C762    1.307   .     A
O760   C762    1.306   .     A
C761   C783    1.424   .     S
C762   C764    1.449   .     S
C763   C775    1.384   .     A
C764   C775    1.389   .     A
C764   C774    1.390   .     A
C765   H777    1.079   .     S
C765   C766    1.405   .     A
C765   C776    1.394   .     A
C766   H778    1.075   .     S
C766   C155    1.392   1_556 S
C767   N813    1.439   .     S
C768   C769    1.400   .     A
C768   C155    1.412   1_556 S
C768   C158    1.403   1_556 S
C769   C776    1.419   .     A
C769   C773    1.405   .     A
C770   C774    1.396   .     A
C771   C772    1.416   .     A
C771   C151    1.406   1_556 S
C771   C158    1.417   1_556 S
C772   C773    1.384   .     A
C772   N806    1.433   .     S
C773   H816    1.079   .     S
C774   H812    1.082   .     S
C775   H794    1.084   .     S
C779   H780    1.084   .     S
C779   C787    1.394   .     A
C779   C985    1.375   .     S
C781   C783    1.399   .     A
C781   H782    1.084   .     S
C781   C1187   1.375   1_545 S
C783   C784    1.410   .     A
C784   N795    1.433   .     S
C784   C1193   1.372   1_545 S
C785   H786    1.077   .     S
C785   C787    1.386   .     A
C785   C988    1.372   .     S
C788   H798    1.082   .     S
C788   N793    1.372   .     A
C788   C653    1.431   1_655 S
C789   N790    1.372   .     A
C789   H799    1.082   .     S
N790   C791    1.377   .     A
C791   N800    1.424   .     S
C792   N803    1.429   .     S
C792   N793    1.372   .     A
C792   C655    1.435   1_655 S
N795   O797    1.296   .     A
N795   O796    1.301   .     A
N800   O802    1.300   .     A
N800   O801    1.300   .     A
N803   O804    1.300   .     A
N803   O805    1.300   .     A
N806   O808    1.300   .     A
N806   O807    1.301   .     A
N809   O810    1.300   .     A
N809   C151    1.411   1_556 S
N809   O63     1.301   1_656 S
N813   O814    1.302   .     A
N813   O815    1.302   .     A
O817   Zn823   2.002   .     S
O817   C819    1.303   .     A
O818   C819    1.295   .     A
O818   Zn824   1.995   .     S
C819   C855    1.417   .     S
O820   Zn823   1.961   .     S
O820   C822    1.329   .     A
O821   Zn824   1.965   .     S
O821   C822    1.297   .     A
C822   C844    1.487   .     S
Zn823  O827    1.965   .     S
Zn823  N858    2.051   .     S
Zn823  O825    1.995   .     S
Zn824  O828    1.961   .     S
Zn824  O826    2.002   .     S
Zn824  N861    2.051   .     S
O825   C829    1.298   .     A
O826   C829    1.303   .     A
O827   C830    1.307   .     A
O828   C830    1.306   .     A
C829   C851    1.424   .     S
C830   C832    1.449   .     S
C831   C843    1.384   .     A
C832   C843    1.389   .     A
C832   C842    1.390   .     A
C833   H845    1.079   .     S
C833   C834    1.405   .     A
C833   C844    1.394   .     A
C834   H846    1.075   .     S
C834   C223    1.392   1_556 S
C835   N881    1.439   .     S
C836   C837    1.400   .     A
C836   C223    1.412   1_556 S
C836   C226    1.403   1_556 S
C837   C844    1.419   .     A
C837   C841    1.405   .     A
C838   C842    1.396   .     A
C839   C840    1.416   .     A
C839   C219    1.406   1_556 S
C839   C226    1.417   1_556 S
C840   C841    1.384   .     A
C840   N874    1.433   .     S
C841   H884    1.079   .     S
C842   H880    1.082   .     S
C843   H862    1.084   .     S
C847   H848    1.084   .     S
C847   C855    1.394   .     A
C847   C1053   1.375   .     S
C849   C851    1.399   .     A
C849   H850    1.084   .     S
C851   C852    1.410   .     A
C852   N863    1.433   .     S
C853   H854    1.077   .     S
C853   C855    1.386   .     A
C853   C1056   1.372   .     S
C856   H866    1.082   .     S
C856   N861    1.372   .     A
C856   C925    1.431   .     S
C857   N858    1.372   .     A
C857   H867    1.082   .     S
C857   C992    1.431   1_455 S
N858   C859    1.377   .     A
C859   N868    1.424   .     S
C859   C996    1.435   1_455 S
C860   N871    1.429   .     S
C860   N861    1.372   .     A
C860   C927    1.435   .     S
N863   O865    1.296   .     A
N863   O864    1.301   .     A
N868   O870    1.300   .     A
N868   O869    1.300   .     A
N871   O872    1.300   .     A
N871   O873    1.300   .     A
N874   O876    1.300   .     A
N874   O875    1.301   .     A
N877   O878    1.300   .     A
N877   C219    1.411   1_556 S
N877   O335    1.301   1_556 S
O879   N401    1.301   1_455 S
N881   O882    1.302   .     A
N881   O883    1.302   .     A
O885   Zn891   2.002   .     S
O885   C887    1.303   .     A
O886   C887    1.295   .     A
O886   Zn892   1.995   .     S
C887   C923    1.417   .     S
O888   Zn891   1.961   .     S
O888   C890    1.329   .     A
O889   Zn892   1.965   .     S
O889   C890    1.297   .     A
C890   C912    1.487   .     S
Zn891  O895    1.965   .     S
Zn891  N926    2.051   .     S
Zn891  O893    1.995   .     S
Zn892  O896    1.961   .     S
Zn892  O894    2.002   .     S
Zn892  N929    2.051   .     S
O893   C897    1.298   .     A
O894   C897    1.303   .     A
O895   C898    1.307   .     A
O896   C898    1.306   .     A
C897   C919    1.424   .     S
C898   C900    1.449   .     S
C899   C911    1.384   .     A
C900   C911    1.389   .     A
C900   C910    1.390   .     A
C901   H913    1.079   .     S
C901   C902    1.405   .     A
C901   C912    1.394   .     A
C902   H914    1.075   .     S
C902   C291    1.392   1_556 S
C903   N949    1.439   .     S
C904   C905    1.400   .     A
C904   C291    1.412   1_556 S
C904   C294    1.403   1_556 S
C905   C912    1.419   .     A
C905   C909    1.405   .     A
C906   C910    1.396   .     A
C907   C908    1.416   .     A
C907   C287    1.406   1_556 S
C907   C294    1.417   1_556 S
C908   C909    1.384   .     A
C908   N942    1.433   .     S
C909   H952    1.079   .     S
C910   H948    1.082   .     S
C911   H930    1.084   .     S
C915   H916    1.084   .     S
C915   C923    1.394   .     A
C915   C1121   1.375   .     S
C917   C919    1.399   .     A
C917   H918    1.084   .     S
C919   C920    1.410   .     A
C920   N931    1.433   .     S
C921   H922    1.077   .     S
C921   C923    1.386   .     A
C921   C1124   1.372   .     S
C924   H934    1.082   .     S
C924   N929    1.372   .     A
C924   C993    1.431   .     S
C925   N926    1.372   .     A
C925   H935    1.082   .     S
N926   C927    1.377   .     A
C927   N936    1.424   .     S
C928   N939    1.429   .     S
C928   N929    1.372   .     A
C928   C995    1.435   .     S
N931   O933    1.296   .     A
N931   O932    1.301   .     A
N936   O938    1.300   .     A
N936   O937    1.300   .     A
N939   O940    1.300   .     A
N939   O941    1.300   .     A
N942   O944    1.300   .     A
N942   O943    1.301   .     A
N945   O946    1.300   .     A
N945   C287    1.411   1_556 S
N945   O403    1.301   1_556 S
N949   O950    1.302   .     A
N949   O951    1.302   .     A
O953   Zn959   2.002   .     S
O953   C955    1.303   .     A
O954   C955    1.295   .     A
O954   Zn960   1.995   .     S
C955   C991    1.417   .     S
O956   Zn959   1.961   .     S
O956   C958    1.329   .     A
O957   Zn960   1.965   .     S
O957   C958    1.297   .     A
C958   C980    1.487   .     S
Zn959  O963    1.965   .     S
Zn959  N994    2.051   .     S
Zn959  O961    1.995   .     S
Zn960  O964    1.961   .     S
Zn960  O962    2.002   .     S
Zn960  N997    2.051   .     S
O961   C965    1.298   .     A
O962   C965    1.303   .     A
O963   C966    1.307   .     A
O964   C966    1.306   .     A
C965   C987    1.424   .     S
C966   C968    1.449   .     S
C967   C979    1.384   .     A
C968   C979    1.389   .     A
C968   C978    1.390   .     A
C969   H981    1.079   .     S
C969   C970    1.405   .     A
C969   C980    1.394   .     A
C970   H982    1.075   .     S
C970   C359    1.392   1_556 S
C971   N1017   1.439   .     S
C972   C973    1.400   .     A
C972   C359    1.412   1_556 S
C972   C362    1.403   1_556 S
C973   C980    1.419   .     A
C973   C977    1.405   .     A
C974   C978    1.396   .     A
C975   C976    1.416   .     A
C975   C355    1.406   1_556 S
C975   C362    1.417   1_556 S
C976   C977    1.384   .     A
C976   N1010   1.433   .     S
C977   H1020   1.079   .     S
C978   H1016   1.082   .     S
C979   H998    1.084   .     S
C983   H984    1.084   .     S
C983   C991    1.394   .     A
C983   C1189   1.375   .     S
C985   C987    1.399   .     A
C985   H986    1.084   .     S
C987   C988    1.410   .     A
C988   N999    1.433   .     S
C989   H990    1.077   .     S
C989   C991    1.386   .     A
C989   C1192   1.372   .     S
C992   H1002   1.082   .     S
C992   N997    1.372   .     A
C992   C857    1.431   1_655 S
C993   N994    1.372   .     A
C993   H1003   1.082   .     S
N994   C995    1.377   .     A
C995   N1004   1.424   .     S
C996   N1007   1.429   .     S
C996   N997    1.372   .     A
C996   C859    1.435   1_655 S
N999   O1001   1.296   .     A
N999   O1000   1.301   .     A
N1004  O1006   1.300   .     A
N1004  O1005   1.300   .     A
N1007  O1008   1.300   .     A
N1007  O1009   1.300   .     A
N1010  O1012   1.300   .     A
N1010  O1011   1.301   .     A
N1013  O1014   1.300   .     A
N1013  C355    1.411   1_556 S
N1013  O267    1.301   1_656 S
N1017  O1018   1.302   .     A
N1017  O1019   1.302   .     A
O1021  Zn1027  2.002   .     S
O1021  C1023   1.303   .     A
O1022  C1023   1.295   .     A
O1022  Zn1028  1.995   .     S
C1023  C1059   1.417   .     S
O1024  Zn1027  1.961   .     S
O1024  C1026   1.329   .     A
O1025  Zn1028  1.965   .     S
O1025  C1026   1.297   .     A
C1026  C1048   1.487   .     S
Zn1027 O1031   1.965   .     S
Zn1027 N1062   2.051   .     S
Zn1027 O1029   1.995   .     S
Zn1028 O1032   1.961   .     S
Zn1028 O1030   2.002   .     S
Zn1028 N1065   2.051   .     S
O1029  C1033   1.298   .     A
O1030  C1033   1.303   .     A
O1031  C1034   1.307   .     A
O1032  C1034   1.306   .     A
C1033  C1055   1.424   .     S
C1034  C1036   1.449   .     S
C1035  C1047   1.384   .     A
C1036  C1047   1.389   .     A
C1036  C1046   1.390   .     A
C1037  H1049   1.079   .     S
C1037  C1038   1.405   .     A
C1037  C1048   1.394   .     A
C1038  H1050   1.075   .     S
C1038  C427    1.392   1_556 S
C1039  N1085   1.439   .     S
C1040  C1041   1.400   .     A
C1040  C427    1.412   1_556 S
C1040  C430    1.403   1_556 S
C1041  C1048   1.419   .     A
C1041  C1045   1.405   .     A
C1042  C1046   1.396   .     A
C1043  C1044   1.416   .     A
C1043  C423    1.406   1_556 S
C1043  C430    1.417   1_556 S
C1044  C1045   1.384   .     A
C1044  N1078   1.433   .     S
C1045  H1088   1.079   .     S
C1046  H1084   1.082   .     S
C1047  H1066   1.084   .     S
C1051  H1052   1.084   .     S
C1051  C1059   1.394   .     A
C1051  C645    1.375   1_565 S
C1053  C1055   1.399   .     A
C1053  H1054   1.084   .     S
C1055  C1056   1.410   .     A
C1056  N1067   1.433   .     S
C1057  H1058   1.077   .     S
C1057  C1059   1.386   .     A
C1057  C648    1.372   1_565 S
C1060  H1070   1.082   .     S
C1060  N1065   1.372   .     A
C1060  C1129   1.431   .     S
C1061  N1062   1.372   .     A
C1061  H1071   1.082   .     S
C1061  C1196   1.431   1_455 S
N1062  C1063   1.377   .     A
C1063  N1072   1.424   .     S
C1063  C1200   1.435   1_455 S
C1064  N1075   1.429   .     S
C1064  N1065   1.372   .     A
C1064  C1131   1.435   .     S
N1067  O1069   1.296   .     A
N1067  O1068   1.301   .     A
N1072  O1074   1.300   .     A
N1072  O1073   1.300   .     A
N1075  O1076   1.300   .     A
N1075  O1077   1.300   .     A
N1078  O1080   1.300   .     A
N1078  O1079   1.301   .     A
N1081  O1082   1.300   .     A
N1081  C423    1.411   1_556 S
N1081  O539    1.301   1_556 S
O1083  N605    1.301   1_455 S
N1085  O1086   1.302   .     A
N1085  O1087   1.302   .     A
O1089  Zn1095  2.002   .     S
O1089  C1091   1.303   .     A
O1090  C1091   1.295   .     A
O1090  Zn1096  1.995   .     S
C1091  C1127   1.417   .     S
O1092  Zn1095  1.961   .     S
O1092  C1094   1.329   .     A
O1093  Zn1096  1.965   .     S
O1093  C1094   1.297   .     A
C1094  C1116   1.487   .     S
Zn1095 O1099   1.965   .     S
Zn1095 N1130   2.051   .     S
Zn1095 O1097   1.995   .     S
Zn1096 O1100   1.961   .     S
Zn1096 O1098   2.002   .     S
Zn1096 N1133   2.051   .     S
O1097  C1101   1.298   .     A
O1098  C1101   1.303   .     A
O1099  C1102   1.307   .     A
O1100  C1102   1.306   .     A
C1101  C1123   1.424   .     S
C1102  C1104   1.449   .     S
C1103  C1115   1.384   .     A
C1104  C1115   1.389   .     A
C1104  C1114   1.390   .     A
C1105  H1117   1.079   .     S
C1105  C1106   1.405   .     A
C1105  C1116   1.394   .     A
C1106  H1118   1.075   .     S
C1106  C495    1.392   1_556 S
C1107  N1153   1.439   .     S
C1108  C1109   1.400   .     A
C1108  C495    1.412   1_556 S
C1108  C498    1.403   1_556 S
C1109  C1116   1.419   .     A
C1109  C1113   1.405   .     A
C1110  C1114   1.396   .     A
C1111  C1112   1.416   .     A
C1111  C491    1.406   1_556 S
C1111  C498    1.417   1_556 S
C1112  C1113   1.384   .     A
C1112  N1146   1.433   .     S
C1113  H1156   1.079   .     S
C1114  H1152   1.082   .     S
C1115  H1134   1.084   .     S
C1119  H1120   1.084   .     S
C1119  C1127   1.394   .     A
C1119  C713    1.375   1_565 S
C1121  C1123   1.399   .     A
C1121  H1122   1.084   .     S
C1123  C1124   1.410   .     A
C1124  N1135   1.433   .     S
C1125  H1126   1.077   .     S
C1125  C1127   1.386   .     A
C1125  C716    1.372   1_565 S
C1128  H1138   1.082   .     S
C1128  N1133   1.372   .     A
C1128  C1197   1.431   .     S
C1129  N1130   1.372   .     A
C1129  H1139   1.082   .     S
N1130  C1131   1.377   .     A
C1131  N1140   1.424   .     S
C1132  N1143   1.429   .     S
C1132  N1133   1.372   .     A
C1132  C1199   1.435   .     S
N1135  O1137   1.296   .     A
N1135  O1136   1.301   .     A
N1140  O1142   1.300   .     A
N1140  O1141   1.300   .     A
N1143  O1144   1.300   .     A
N1143  O1145   1.300   .     A
N1146  O1148   1.300   .     A
N1146  O1147   1.301   .     A
N1149  O1150   1.300   .     A
N1149  C491    1.411   1_556 S
N1149  O607    1.301   1_556 S
N1153  O1154   1.302   .     A
N1153  O1155   1.302   .     A
O1157  Zn1163  2.002   .     S
O1157  C1159   1.303   .     A
O1158  C1159   1.295   .     A
O1158  Zn1164  1.995   .     S
C1159  C1195   1.417   .     S
O1160  Zn1163  1.961   .     S
O1160  C1162   1.329   .     A
O1161  Zn1164  1.965   .     S
O1161  C1162   1.297   .     A
C1162  C1184   1.487   .     S
Zn1163 O1167   1.965   .     S
Zn1163 N1198   2.051   .     S
Zn1163 O1165   1.995   .     S
Zn1164 O1168   1.961   .     S
Zn1164 O1166   2.002   .     S
Zn1164 N1201   2.051   .     S
O1165  C1169   1.298   .     A
O1166  C1169   1.303   .     A
O1167  C1170   1.307   .     A
O1168  C1170   1.306   .     A
C1169  C1191   1.424   .     S
C1170  C1172   1.449   .     S
C1171  C1183   1.384   .     A
C1172  C1183   1.389   .     A
C1172  C1182   1.390   .     A
C1173  H1185   1.079   .     S
C1173  C1174   1.405   .     A
C1173  C1184   1.394   .     A
C1174  H1186   1.075   .     S
C1174  C563    1.392   1_556 S
C1175  N1221   1.439   .     S
C1176  C1177   1.400   .     A
C1176  C563    1.412   1_556 S
C1176  C566    1.403   1_556 S
C1177  C1184   1.419   .     A
C1177  C1181   1.405   .     A
C1178  C1182   1.396   .     A
C1179  C1180   1.416   .     A
C1179  C559    1.406   1_556 S
C1179  C566    1.417   1_556 S
C1180  C1181   1.384   .     A
C1180  N1214   1.433   .     S
C1181  H1224   1.079   .     S
C1182  H1220   1.082   .     S
C1183  H1202   1.084   .     S
C1187  H1188   1.084   .     S
C1187  C1195   1.394   .     A
C1187  C781    1.375   1_565 S
C1189  C1191   1.399   .     A
C1189  H1190   1.084   .     S
C1191  C1192   1.410   .     A
C1192  N1203   1.433   .     S
C1193  H1194   1.077   .     S
C1193  C1195   1.386   .     A
C1193  C784    1.372   1_565 S
C1196  H1206   1.082   .     S
C1196  N1201   1.372   .     A
C1196  C1061   1.431   1_655 S
C1197  N1198   1.372   .     A
C1197  H1207   1.082   .     S
N1198  C1199   1.377   .     A
C1199  N1208   1.424   .     S
C1200  N1211   1.429   .     S
C1200  N1201   1.372   .     A
C1200  C1063   1.435   1_655 S
N1203  O1205   1.296   .     A
N1203  O1204   1.301   .     A
N1208  O1210   1.300   .     A
N1208  O1209   1.300   .     A
N1211  O1212   1.300   .     A
N1211  O1213   1.300   .     A
N1214  O1216   1.300   .     A
N1214  O1215   1.301   .     A
N1217  O1218   1.300   .     A
N1217  C559    1.411   1_556 S
N1217  O471    1.301   1_656 S
N1221  O1222   1.302   .     A
N1221  O1223   1.302   .     A
