data_str_m3_o1_o18_pcu_sym.116
_audit_creation_date              2020-01-03
_audit_creation_method            'Materials Studio'
_symmetry_space_group_name_H-M    'P1'
_symmetry_Int_Tables_number       1
_symmetry_cell_setting            triclinic
loop_
_symmetry_equiv_pos_as_xyz
  x,y,z
_cell_length_a                    29.8962
_cell_length_b                    32.0912
_cell_length_c                    30.9244
_cell_angle_alpha                 90.0480
_cell_angle_beta                  68.6909
_cell_angle_gamma                 90.0181
loop_
_atom_site_label
_atom_site_type_symbol
_atom_site_fract_x
_atom_site_fract_y
_atom_site_fract_z
_atom_site_U_iso_or_equiv
_atom_site_adp_type
_atom_site_occupancy
C1     C     0.16668   0.24657   0.25002   0.00000  Uiso   1.00
C2     C     0.16667   0.08677   0.24995   0.00000  Uiso   1.00
C3     C     0.11062   0.14478   0.05204   0.00000  Uiso   1.00
C4     C     0.22149   0.12621   0.45118   0.00000  Uiso   1.00
C5     C     0.07648   0.14004   0.03168   0.00000  Uiso   1.00
C6     C     0.25335   0.11816   0.47401   0.00000  Uiso   1.00
C7     C     0.21042   0.31199   0.23675   0.00000  Uiso   1.00
C8     C     0.12294   0.02135   0.26313   0.00000  Uiso   1.00
C9     C     0.21042   0.02137   0.23667   0.00000  Uiso   1.00
C10    C     0.12295   0.31198   0.26318   0.00000  Uiso   1.00
C11    C     0.16668   0.04256   0.24990   0.00000  Uiso   1.00
C12    C     0.16669   0.29079   0.25000   0.00000  Uiso   1.00
C13    C     0.32152   0.14415   0.21797   0.00000  Uiso   1.00
C14    C     0.01182   0.18920   0.28200   0.00000  Uiso   1.00
C15    C     0.03585   0.14414   0.21799   0.00000  Uiso   1.00
C16    C     0.29749   0.18920   0.28198   0.00000  Uiso   1.00
C17    C     0.13677   0.16588   0.33781   0.00000  Uiso   1.00
C18    C     0.19661   0.16566   0.16233   0.00000  Uiso   1.00
C19    C     0.11933   0.16030   0.38809   0.00000  Uiso   1.00
C20    C     0.21444   0.15706   0.11279   0.00000  Uiso   1.00
C21    C     0.05585   0.15280   0.46312   0.00000  Uiso   1.00
C22    C     0.27042   0.12199   0.04551   0.00000  Uiso   1.00
C23    C     0.07036   0.15949   0.41541   0.00000  Uiso   1.00
C24    C     0.25749   0.13571   0.09139   0.00000  Uiso   1.00
C25    C     0.15337   0.15379   0.40856   0.00000  Uiso   1.00
C26    C     0.18368   0.16321   0.08903   0.00000  Uiso   1.00
C27    C     0.13957   0.14603   0.45581   0.00000  Uiso   1.00
C28    C     0.19434   0.14645   0.04482   0.00000  Uiso   1.00
C29    C     0.09009   0.14628   0.48374   0.00000  Uiso   1.00
C30    C     0.24007   0.12923   0.02099   0.00000  Uiso   1.00
C31    C     0.17403   0.13952   0.47639   0.00000  Uiso   1.00
C32    C     0.15963   0.14527   0.02456   0.00000  Uiso   1.00
H33    H     0.15068   0.18035   0.10579   0.00000  Uiso   1.00
H34    H     0.19103   0.15637   0.38756   0.00000  Uiso   1.00
H35    H     0.27966   0.12851   0.11120   0.00000  Uiso   1.00
H36    H     0.04348   0.16458   0.40011   0.00000  Uiso   1.00
H37    H     0.01815   0.15460   0.48390   0.00000  Uiso   1.00
H38    H     0.30282   0.10414   0.02959   0.00000  Uiso   1.00
H39    H     0.09847   0.14303   0.08948   0.00000  Uiso   1.00
H40    H     0.23343   0.11879   0.41465   0.00000  Uiso   1.00
H41    H     0.24447   0.29569   0.22609   0.00000  Uiso   1.00
H42    H     0.08890   0.03766   0.27380   0.00000  Uiso   1.00
H43    H     0.24446   0.03769   0.22596   0.00000  Uiso   1.00
H44    H     0.08890   0.29567   0.27388   0.00000  Uiso   1.00
H45    H     0.31342   0.12603   0.19220   0.00000  Uiso   1.00
H46    H     0.01994   0.20733   0.30774   0.00000  Uiso   1.00
H47    H     0.06328   0.12601   0.19223   0.00000  Uiso   1.00
H48    H     0.27007   0.20736   0.30771   0.00000  Uiso   1.00
N49    N     0.04759   0.16668   0.25001   0.00000  Uiso   1.00
N50    N     0.28574   0.16666   0.24999   0.00000  Uiso   1.00
O51    O     0.12846   0.22775   0.25000   0.00000  Uiso   1.00
O52    O     0.20488   0.10558   0.25000   0.00000  Uiso   1.00
O53    O     0.20490   0.22774   0.25000   0.00000  Uiso   1.00
O54    O     0.12843   0.10559   0.25000   0.00000  Uiso   1.00
O55    O     0.10661   0.16667   0.31612   0.00000  Uiso   1.00
O56    O     0.22672   0.16666   0.18388   0.00000  Uiso   1.00
O57    O     0.18305   0.16666   0.31612   0.00000  Uiso   1.00
O58    O     0.15028   0.16667   0.18388   0.00000  Uiso   1.00
Zn59   Zn    0.11562   0.16667   0.25000   0.00000  Uiso   1.00
Zn60   Zn    0.21771   0.16666   0.25000   0.00000  Uiso   1.00
O61    O     0.03069   0.12746   0.05830   0.00000  Uiso   1.00
C62    C     0.03295   0.08649   0.07470   0.00000  Uiso   1.00
H63    H     0.04502   0.08703   0.10471   0.00000  Uiso   1.00
H64    H     0.05642   0.06555   0.04690   0.00000  Uiso   1.00
H65    H     0.33002   0.07232   0.08711   0.00000  Uiso   1.00
O66    O     0.29899   0.10339   0.44931   0.00000  Uiso   1.00
C67    C     0.29618   0.06023   0.44225   0.00000  Uiso   1.00
H68    H     0.27572   0.05357   0.41932   0.00000  Uiso   1.00
H69    H     0.28006   0.04334   0.47582   0.00000  Uiso   1.00
H70    H     0.33312   0.04806   0.42471   0.00000  Uiso   1.00
C71    C     0.50001   0.24657   0.25002   0.00000  Uiso   1.00
C72    C     0.50000   0.08677   0.24995   0.00000  Uiso   1.00
C73    C     0.44395   0.14478   0.05204   0.00000  Uiso   1.00
C74    C     0.55482   0.12621   0.45118   0.00000  Uiso   1.00
C75    C     0.40981   0.14004   0.03168   0.00000  Uiso   1.00
C76    C     0.58668   0.11816   0.47401   0.00000  Uiso   1.00
C77    C     0.54376   0.31199   0.23675   0.00000  Uiso   1.00
C78    C     0.45628   0.02135   0.26313   0.00000  Uiso   1.00
C79    C     0.54376   0.02137   0.23667   0.00000  Uiso   1.00
C80    C     0.45628   0.31198   0.26318   0.00000  Uiso   1.00
C81    C     0.50001   0.04256   0.24990   0.00000  Uiso   1.00
C82    C     0.50002   0.29079   0.25000   0.00000  Uiso   1.00
C83    C     0.65485   0.14415   0.21797   0.00000  Uiso   1.00
C84    C     0.34516   0.18920   0.28200   0.00000  Uiso   1.00
C85    C     0.36918   0.14414   0.21799   0.00000  Uiso   1.00
C86    C     0.63082   0.18920   0.28198   0.00000  Uiso   1.00
C87    C     0.47010   0.16588   0.33781   0.00000  Uiso   1.00
C88    C     0.52995   0.16566   0.16233   0.00000  Uiso   1.00
C89    C     0.45267   0.16030   0.38809   0.00000  Uiso   1.00
C90    C     0.54777   0.15706   0.11279   0.00000  Uiso   1.00
C91    C     0.38918   0.15280   0.46312   0.00000  Uiso   1.00
C92    C     0.60375   0.12199   0.04551   0.00000  Uiso   1.00
C93    C     0.40369   0.15949   0.41541   0.00000  Uiso   1.00
C94    C     0.59083   0.13571   0.09139   0.00000  Uiso   1.00
C95    C     0.48670   0.15379   0.40856   0.00000  Uiso   1.00
C96    C     0.51701   0.16321   0.08903   0.00000  Uiso   1.00
C97    C     0.47290   0.14603   0.45581   0.00000  Uiso   1.00
C98    C     0.52768   0.14645   0.04482   0.00000  Uiso   1.00
C99    C     0.42342   0.14628   0.48374   0.00000  Uiso   1.00
C100   C     0.57340   0.12923   0.02099   0.00000  Uiso   1.00
C101   C     0.50736   0.13952   0.47639   0.00000  Uiso   1.00
C102   C     0.49297   0.14527   0.02456   0.00000  Uiso   1.00
H103   H     0.48401   0.18035   0.10579   0.00000  Uiso   1.00
H104   H     0.52436   0.15637   0.38756   0.00000  Uiso   1.00
H105   H     0.61299   0.12851   0.11120   0.00000  Uiso   1.00
H106   H     0.37681   0.16458   0.40011   0.00000  Uiso   1.00
H107   H     0.35148   0.15460   0.48390   0.00000  Uiso   1.00
H108   H     0.63615   0.10414   0.02959   0.00000  Uiso   1.00
H109   H     0.43180   0.14303   0.08948   0.00000  Uiso   1.00
H110   H     0.56676   0.11879   0.41465   0.00000  Uiso   1.00
H111   H     0.57780   0.29569   0.22609   0.00000  Uiso   1.00
H112   H     0.42223   0.03766   0.27380   0.00000  Uiso   1.00
H113   H     0.57780   0.03769   0.22596   0.00000  Uiso   1.00
H114   H     0.42224   0.29567   0.27388   0.00000  Uiso   1.00
H115   H     0.64675   0.12603   0.19220   0.00000  Uiso   1.00
H116   H     0.35327   0.20733   0.30774   0.00000  Uiso   1.00
H117   H     0.39661   0.12601   0.19223   0.00000  Uiso   1.00
H118   H     0.60340   0.20736   0.30771   0.00000  Uiso   1.00
N119   N     0.38093   0.16668   0.25001   0.00000  Uiso   1.00
N120   N     0.61907   0.16666   0.24999   0.00000  Uiso   1.00
O121   O     0.46179   0.22775   0.25000   0.00000  Uiso   1.00
O122   O     0.53821   0.10558   0.25000   0.00000  Uiso   1.00
O123   O     0.53823   0.22774   0.25000   0.00000  Uiso   1.00
O124   O     0.46177   0.10559   0.25000   0.00000  Uiso   1.00
O125   O     0.43994   0.16667   0.31612   0.00000  Uiso   1.00
O126   O     0.56006   0.16666   0.18388   0.00000  Uiso   1.00
O127   O     0.51639   0.16666   0.31612   0.00000  Uiso   1.00
O128   O     0.48361   0.16667   0.18388   0.00000  Uiso   1.00
Zn129  Zn    0.44896   0.16667   0.25000   0.00000  Uiso   1.00
Zn130  Zn    0.55104   0.16666   0.25000   0.00000  Uiso   1.00
O131   O     0.36402   0.12746   0.05830   0.00000  Uiso   1.00
C132   C     0.36628   0.08649   0.07470   0.00000  Uiso   1.00
H133   H     0.37835   0.08703   0.10471   0.00000  Uiso   1.00
H134   H     0.38975   0.06555   0.04690   0.00000  Uiso   1.00
H135   H     0.66335   0.07232   0.08711   0.00000  Uiso   1.00
O136   O     0.63232   0.10339   0.44931   0.00000  Uiso   1.00
C137   C     0.62951   0.06023   0.44225   0.00000  Uiso   1.00
H138   H     0.60905   0.05357   0.41932   0.00000  Uiso   1.00
H139   H     0.61340   0.04334   0.47582   0.00000  Uiso   1.00
H140   H     0.66645   0.04806   0.42471   0.00000  Uiso   1.00
C141   C     0.83335   0.24657   0.25002   0.00000  Uiso   1.00
C142   C     0.83333   0.08677   0.24995   0.00000  Uiso   1.00
C143   C     0.77729   0.14478   0.05204   0.00000  Uiso   1.00
C144   C     0.88816   0.12621   0.45118   0.00000  Uiso   1.00
C145   C     0.74314   0.14004   0.03168   0.00000  Uiso   1.00
C146   C     0.92001   0.11816   0.47401   0.00000  Uiso   1.00
C147   C     0.87709   0.31199   0.23675   0.00000  Uiso   1.00
C148   C     0.78961   0.02135   0.26313   0.00000  Uiso   1.00
C149   C     0.87709   0.02137   0.23667   0.00000  Uiso   1.00
C150   C     0.78961   0.31198   0.26318   0.00000  Uiso   1.00
C151   C     0.83334   0.04256   0.24990   0.00000  Uiso   1.00
C152   C     0.83335   0.29079   0.25000   0.00000  Uiso   1.00
C153   C     0.98818   0.14415   0.21797   0.00000  Uiso   1.00
C154   C     0.67849   0.18920   0.28200   0.00000  Uiso   1.00
C155   C     0.70252   0.14414   0.21799   0.00000  Uiso   1.00
C156   C     0.96416   0.18920   0.28198   0.00000  Uiso   1.00
C157   C     0.80343   0.16588   0.33781   0.00000  Uiso   1.00
C158   C     0.86328   0.16566   0.16233   0.00000  Uiso   1.00
C159   C     0.78600   0.16030   0.38809   0.00000  Uiso   1.00
C160   C     0.88111   0.15706   0.11279   0.00000  Uiso   1.00
C161   C     0.72251   0.15280   0.46312   0.00000  Uiso   1.00
C162   C     0.93708   0.12199   0.04551   0.00000  Uiso   1.00
C163   C     0.73702   0.15949   0.41541   0.00000  Uiso   1.00
C164   C     0.92416   0.13571   0.09139   0.00000  Uiso   1.00
C165   C     0.82004   0.15379   0.40856   0.00000  Uiso   1.00
C166   C     0.85035   0.16321   0.08903   0.00000  Uiso   1.00
C167   C     0.80624   0.14603   0.45581   0.00000  Uiso   1.00
C168   C     0.86101   0.14645   0.04482   0.00000  Uiso   1.00
C169   C     0.75675   0.14628   0.48374   0.00000  Uiso   1.00
C170   C     0.90673   0.12923   0.02099   0.00000  Uiso   1.00
C171   C     0.84070   0.13952   0.47639   0.00000  Uiso   1.00
C172   C     0.82630   0.14527   0.02456   0.00000  Uiso   1.00
H173   H     0.81735   0.18035   0.10579   0.00000  Uiso   1.00
H174   H     0.85769   0.15637   0.38756   0.00000  Uiso   1.00
H175   H     0.94632   0.12851   0.11120   0.00000  Uiso   1.00
H176   H     0.71014   0.16458   0.40011   0.00000  Uiso   1.00
H177   H     0.68481   0.15460   0.48390   0.00000  Uiso   1.00
H178   H     0.96949   0.10414   0.02959   0.00000  Uiso   1.00
H179   H     0.76513   0.14303   0.08948   0.00000  Uiso   1.00
H180   H     0.90010   0.11879   0.41465   0.00000  Uiso   1.00
H181   H     0.91113   0.29569   0.22609   0.00000  Uiso   1.00
H182   H     0.75556   0.03766   0.27380   0.00000  Uiso   1.00
H183   H     0.91113   0.03769   0.22596   0.00000  Uiso   1.00
H184   H     0.75557   0.29567   0.27388   0.00000  Uiso   1.00
H185   H     0.98008   0.12603   0.19220   0.00000  Uiso   1.00
H186   H     0.68661   0.20733   0.30774   0.00000  Uiso   1.00
H187   H     0.72994   0.12601   0.19223   0.00000  Uiso   1.00
H188   H     0.93674   0.20736   0.30771   0.00000  Uiso   1.00
N189   N     0.71426   0.16668   0.25001   0.00000  Uiso   1.00
N190   N     0.95241   0.16666   0.24999   0.00000  Uiso   1.00
O191   O     0.79512   0.22775   0.25000   0.00000  Uiso   1.00
O192   O     0.87154   0.10558   0.25000   0.00000  Uiso   1.00
O193   O     0.87157   0.22774   0.25000   0.00000  Uiso   1.00
O194   O     0.79510   0.10559   0.25000   0.00000  Uiso   1.00
O195   O     0.77328   0.16667   0.31612   0.00000  Uiso   1.00
O196   O     0.89339   0.16666   0.18388   0.00000  Uiso   1.00
O197   O     0.84972   0.16666   0.31612   0.00000  Uiso   1.00
O198   O     0.81695   0.16667   0.18388   0.00000  Uiso   1.00
Zn199  Zn    0.78229   0.16667   0.25000   0.00000  Uiso   1.00
Zn200  Zn    0.88438   0.16666   0.25000   0.00000  Uiso   1.00
O201   O     0.69736   0.12746   0.05830   0.00000  Uiso   1.00
C202   C     0.69962   0.08649   0.07470   0.00000  Uiso   1.00
H203   H     0.71168   0.08703   0.10471   0.00000  Uiso   1.00
H204   H     0.72308   0.06555   0.04690   0.00000  Uiso   1.00
H205   H     0.99669   0.07232   0.08711   0.00000  Uiso   1.00
O206   O     0.96565   0.10339   0.44931   0.00000  Uiso   1.00
C207   C     0.96285   0.06023   0.44225   0.00000  Uiso   1.00
H208   H     0.94239   0.05357   0.41932   0.00000  Uiso   1.00
H209   H     0.94673   0.04334   0.47582   0.00000  Uiso   1.00
H210   H     0.99978   0.04806   0.42471   0.00000  Uiso   1.00
C211   C     0.16668   0.57990   0.25002   0.00000  Uiso   1.00
C212   C     0.16667   0.42010   0.24995   0.00000  Uiso   1.00
C213   C     0.11062   0.47811   0.05204   0.00000  Uiso   1.00
C214   C     0.22149   0.45954   0.45118   0.00000  Uiso   1.00
C215   C     0.07648   0.47338   0.03168   0.00000  Uiso   1.00
C216   C     0.25335   0.45149   0.47401   0.00000  Uiso   1.00
C217   C     0.21042   0.64533   0.23675   0.00000  Uiso   1.00
C218   C     0.12294   0.35469   0.26313   0.00000  Uiso   1.00
C219   C     0.21042   0.35470   0.23667   0.00000  Uiso   1.00
C220   C     0.12295   0.64532   0.26318   0.00000  Uiso   1.00
C221   C     0.16668   0.37589   0.24990   0.00000  Uiso   1.00
C222   C     0.16669   0.62412   0.25000   0.00000  Uiso   1.00
C223   C     0.32152   0.47748   0.21797   0.00000  Uiso   1.00
C224   C     0.01182   0.52253   0.28200   0.00000  Uiso   1.00
C225   C     0.03585   0.47748   0.21799   0.00000  Uiso   1.00
C226   C     0.29749   0.52253   0.28198   0.00000  Uiso   1.00
C227   C     0.13677   0.49922   0.33781   0.00000  Uiso   1.00
C228   C     0.19661   0.49899   0.16233   0.00000  Uiso   1.00
C229   C     0.11933   0.49363   0.38809   0.00000  Uiso   1.00
C230   C     0.21444   0.49040   0.11279   0.00000  Uiso   1.00
C231   C     0.05585   0.48614   0.46312   0.00000  Uiso   1.00
C232   C     0.27042   0.45532   0.04551   0.00000  Uiso   1.00
C233   C     0.07036   0.49283   0.41541   0.00000  Uiso   1.00
C234   C     0.25749   0.46904   0.09139   0.00000  Uiso   1.00
C235   C     0.15337   0.48712   0.40856   0.00000  Uiso   1.00
C236   C     0.18368   0.49654   0.08903   0.00000  Uiso   1.00
C237   C     0.13957   0.47936   0.45581   0.00000  Uiso   1.00
C238   C     0.19434   0.47979   0.04482   0.00000  Uiso   1.00
C239   C     0.09009   0.47962   0.48374   0.00000  Uiso   1.00
C240   C     0.24007   0.46256   0.02099   0.00000  Uiso   1.00
C241   C     0.17403   0.47285   0.47639   0.00000  Uiso   1.00
C242   C     0.15963   0.47861   0.02456   0.00000  Uiso   1.00
H243   H     0.15068   0.51368   0.10579   0.00000  Uiso   1.00
H244   H     0.19103   0.48971   0.38756   0.00000  Uiso   1.00
H245   H     0.27966   0.46185   0.11120   0.00000  Uiso   1.00
H246   H     0.04348   0.49791   0.40011   0.00000  Uiso   1.00
H247   H     0.01815   0.48793   0.48390   0.00000  Uiso   1.00
H248   H     0.30282   0.43747   0.02959   0.00000  Uiso   1.00
H249   H     0.09847   0.47636   0.08948   0.00000  Uiso   1.00
H250   H     0.23343   0.45213   0.41465   0.00000  Uiso   1.00
H251   H     0.24447   0.62902   0.22609   0.00000  Uiso   1.00
H252   H     0.08890   0.37099   0.27380   0.00000  Uiso   1.00
H253   H     0.24446   0.37102   0.22596   0.00000  Uiso   1.00
H254   H     0.08890   0.62900   0.27388   0.00000  Uiso   1.00
H255   H     0.31342   0.45937   0.19220   0.00000  Uiso   1.00
H256   H     0.01994   0.54066   0.30774   0.00000  Uiso   1.00
H257   H     0.06328   0.45934   0.19223   0.00000  Uiso   1.00
H258   H     0.27007   0.54069   0.30771   0.00000  Uiso   1.00
N259   N     0.04759   0.50001   0.25001   0.00000  Uiso   1.00
N260   N     0.28574   0.49999   0.24999   0.00000  Uiso   1.00
O261   O     0.12846   0.56108   0.25000   0.00000  Uiso   1.00
O262   O     0.20488   0.43892   0.25000   0.00000  Uiso   1.00
O263   O     0.20490   0.56107   0.25000   0.00000  Uiso   1.00
O264   O     0.12843   0.43893   0.25000   0.00000  Uiso   1.00
O265   O     0.10661   0.50001   0.31612   0.00000  Uiso   1.00
O266   O     0.22672   0.49999   0.18388   0.00000  Uiso   1.00
O267   O     0.18305   0.50000   0.31612   0.00000  Uiso   1.00
O268   O     0.15028   0.50000   0.18388   0.00000  Uiso   1.00
Zn269  Zn    0.11562   0.50001   0.25000   0.00000  Uiso   1.00
Zn270  Zn    0.21771   0.49999   0.25000   0.00000  Uiso   1.00
O271   O     0.03069   0.46079   0.05830   0.00000  Uiso   1.00
C272   C     0.03295   0.41983   0.07470   0.00000  Uiso   1.00
H273   H     0.04502   0.42037   0.10471   0.00000  Uiso   1.00
H274   H     0.05642   0.39888   0.04690   0.00000  Uiso   1.00
H275   H     0.33002   0.40566   0.08711   0.00000  Uiso   1.00
O276   O     0.29899   0.43673   0.44931   0.00000  Uiso   1.00
C277   C     0.29618   0.39356   0.44225   0.00000  Uiso   1.00
H278   H     0.27572   0.38690   0.41932   0.00000  Uiso   1.00
H279   H     0.28006   0.37667   0.47582   0.00000  Uiso   1.00
H280   H     0.33312   0.38140   0.42471   0.00000  Uiso   1.00
C281   C     0.50001   0.57990   0.25002   0.00000  Uiso   1.00
C282   C     0.50000   0.42010   0.24995   0.00000  Uiso   1.00
C283   C     0.44395   0.47811   0.05204   0.00000  Uiso   1.00
C284   C     0.55482   0.45954   0.45118   0.00000  Uiso   1.00
C285   C     0.40981   0.47338   0.03168   0.00000  Uiso   1.00
C286   C     0.58668   0.45149   0.47401   0.00000  Uiso   1.00
C287   C     0.54376   0.64533   0.23675   0.00000  Uiso   1.00
C288   C     0.45628   0.35469   0.26313   0.00000  Uiso   1.00
C289   C     0.54376   0.35470   0.23667   0.00000  Uiso   1.00
C290   C     0.45628   0.64532   0.26318   0.00000  Uiso   1.00
C291   C     0.50001   0.37589   0.24990   0.00000  Uiso   1.00
C292   C     0.50002   0.62412   0.25000   0.00000  Uiso   1.00
C293   C     0.65485   0.47748   0.21797   0.00000  Uiso   1.00
C294   C     0.34516   0.52253   0.28200   0.00000  Uiso   1.00
C295   C     0.36918   0.47748   0.21799   0.00000  Uiso   1.00
C296   C     0.63082   0.52253   0.28198   0.00000  Uiso   1.00
C297   C     0.47010   0.49922   0.33781   0.00000  Uiso   1.00
C298   C     0.52995   0.49899   0.16233   0.00000  Uiso   1.00
C299   C     0.45267   0.49363   0.38809   0.00000  Uiso   1.00
C300   C     0.54777   0.49040   0.11279   0.00000  Uiso   1.00
C301   C     0.38918   0.48614   0.46312   0.00000  Uiso   1.00
C302   C     0.60375   0.45532   0.04551   0.00000  Uiso   1.00
C303   C     0.40369   0.49283   0.41541   0.00000  Uiso   1.00
C304   C     0.59083   0.46904   0.09139   0.00000  Uiso   1.00
C305   C     0.48670   0.48712   0.40856   0.00000  Uiso   1.00
C306   C     0.51701   0.49654   0.08903   0.00000  Uiso   1.00
C307   C     0.47290   0.47936   0.45581   0.00000  Uiso   1.00
C308   C     0.52768   0.47979   0.04482   0.00000  Uiso   1.00
C309   C     0.42342   0.47962   0.48374   0.00000  Uiso   1.00
C310   C     0.57340   0.46256   0.02099   0.00000  Uiso   1.00
C311   C     0.50736   0.47285   0.47639   0.00000  Uiso   1.00
C312   C     0.49297   0.47861   0.02456   0.00000  Uiso   1.00
H313   H     0.48401   0.51368   0.10579   0.00000  Uiso   1.00
H314   H     0.52436   0.48971   0.38756   0.00000  Uiso   1.00
H315   H     0.61299   0.46185   0.11120   0.00000  Uiso   1.00
H316   H     0.37681   0.49791   0.40011   0.00000  Uiso   1.00
H317   H     0.35148   0.48793   0.48390   0.00000  Uiso   1.00
H318   H     0.63615   0.43747   0.02959   0.00000  Uiso   1.00
H319   H     0.43180   0.47636   0.08948   0.00000  Uiso   1.00
H320   H     0.56676   0.45213   0.41465   0.00000  Uiso   1.00
H321   H     0.57780   0.62902   0.22609   0.00000  Uiso   1.00
H322   H     0.42223   0.37099   0.27380   0.00000  Uiso   1.00
H323   H     0.57780   0.37102   0.22596   0.00000  Uiso   1.00
H324   H     0.42224   0.62900   0.27388   0.00000  Uiso   1.00
H325   H     0.64675   0.45937   0.19220   0.00000  Uiso   1.00
H326   H     0.35327   0.54066   0.30774   0.00000  Uiso   1.00
H327   H     0.39661   0.45934   0.19223   0.00000  Uiso   1.00
H328   H     0.60340   0.54069   0.30771   0.00000  Uiso   1.00
N329   N     0.38093   0.50001   0.25001   0.00000  Uiso   1.00
N330   N     0.61907   0.49999   0.24999   0.00000  Uiso   1.00
O331   O     0.46179   0.56108   0.25000   0.00000  Uiso   1.00
O332   O     0.53821   0.43892   0.25000   0.00000  Uiso   1.00
O333   O     0.53823   0.56107   0.25000   0.00000  Uiso   1.00
O334   O     0.46177   0.43893   0.25000   0.00000  Uiso   1.00
O335   O     0.43994   0.50001   0.31612   0.00000  Uiso   1.00
O336   O     0.56006   0.49999   0.18388   0.00000  Uiso   1.00
O337   O     0.51639   0.50000   0.31612   0.00000  Uiso   1.00
O338   O     0.48361   0.50000   0.18388   0.00000  Uiso   1.00
Zn339  Zn    0.44896   0.50001   0.25000   0.00000  Uiso   1.00
Zn340  Zn    0.55104   0.49999   0.25000   0.00000  Uiso   1.00
O341   O     0.36402   0.46079   0.05830   0.00000  Uiso   1.00
C342   C     0.36628   0.41983   0.07470   0.00000  Uiso   1.00
H343   H     0.37835   0.42037   0.10471   0.00000  Uiso   1.00
H344   H     0.38975   0.39888   0.04690   0.00000  Uiso   1.00
H345   H     0.66335   0.40566   0.08711   0.00000  Uiso   1.00
O346   O     0.63232   0.43673   0.44931   0.00000  Uiso   1.00
C347   C     0.62951   0.39356   0.44225   0.00000  Uiso   1.00
H348   H     0.60905   0.38690   0.41932   0.00000  Uiso   1.00
H349   H     0.61340   0.37667   0.47582   0.00000  Uiso   1.00
H350   H     0.66645   0.38140   0.42471   0.00000  Uiso   1.00
C351   C     0.83335   0.57990   0.25002   0.00000  Uiso   1.00
C352   C     0.83333   0.42010   0.24995   0.00000  Uiso   1.00
C353   C     0.77729   0.47811   0.05204   0.00000  Uiso   1.00
C354   C     0.88816   0.45954   0.45118   0.00000  Uiso   1.00
C355   C     0.74314   0.47338   0.03168   0.00000  Uiso   1.00
C356   C     0.92001   0.45149   0.47401   0.00000  Uiso   1.00
C357   C     0.87709   0.64533   0.23675   0.00000  Uiso   1.00
C358   C     0.78961   0.35469   0.26313   0.00000  Uiso   1.00
C359   C     0.87709   0.35470   0.23667   0.00000  Uiso   1.00
C360   C     0.78961   0.64532   0.26318   0.00000  Uiso   1.00
C361   C     0.83334   0.37589   0.24990   0.00000  Uiso   1.00
C362   C     0.83335   0.62412   0.25000   0.00000  Uiso   1.00
C363   C     0.98818   0.47748   0.21797   0.00000  Uiso   1.00
C364   C     0.67849   0.52253   0.28200   0.00000  Uiso   1.00
C365   C     0.70252   0.47748   0.21799   0.00000  Uiso   1.00
C366   C     0.96416   0.52253   0.28198   0.00000  Uiso   1.00
C367   C     0.80343   0.49922   0.33781   0.00000  Uiso   1.00
C368   C     0.86328   0.49899   0.16233   0.00000  Uiso   1.00
C369   C     0.78600   0.49363   0.38809   0.00000  Uiso   1.00
C370   C     0.88111   0.49040   0.11279   0.00000  Uiso   1.00
C371   C     0.72251   0.48614   0.46312   0.00000  Uiso   1.00
C372   C     0.93708   0.45532   0.04551   0.00000  Uiso   1.00
C373   C     0.73702   0.49283   0.41541   0.00000  Uiso   1.00
C374   C     0.92416   0.46904   0.09139   0.00000  Uiso   1.00
C375   C     0.82004   0.48712   0.40856   0.00000  Uiso   1.00
C376   C     0.85035   0.49654   0.08903   0.00000  Uiso   1.00
C377   C     0.80624   0.47936   0.45581   0.00000  Uiso   1.00
C378   C     0.86101   0.47979   0.04482   0.00000  Uiso   1.00
C379   C     0.75675   0.47962   0.48374   0.00000  Uiso   1.00
C380   C     0.90673   0.46256   0.02099   0.00000  Uiso   1.00
C381   C     0.84070   0.47285   0.47639   0.00000  Uiso   1.00
C382   C     0.82630   0.47861   0.02456   0.00000  Uiso   1.00
H383   H     0.81735   0.51368   0.10579   0.00000  Uiso   1.00
H384   H     0.85769   0.48971   0.38756   0.00000  Uiso   1.00
H385   H     0.94632   0.46185   0.11120   0.00000  Uiso   1.00
H386   H     0.71014   0.49791   0.40011   0.00000  Uiso   1.00
H387   H     0.68481   0.48793   0.48390   0.00000  Uiso   1.00
H388   H     0.96949   0.43747   0.02959   0.00000  Uiso   1.00
H389   H     0.76513   0.47636   0.08948   0.00000  Uiso   1.00
H390   H     0.90010   0.45213   0.41465   0.00000  Uiso   1.00
H391   H     0.91113   0.62902   0.22609   0.00000  Uiso   1.00
H392   H     0.75556   0.37099   0.27380   0.00000  Uiso   1.00
H393   H     0.91113   0.37102   0.22596   0.00000  Uiso   1.00
H394   H     0.75557   0.62900   0.27388   0.00000  Uiso   1.00
H395   H     0.98008   0.45937   0.19220   0.00000  Uiso   1.00
H396   H     0.68661   0.54066   0.30774   0.00000  Uiso   1.00
H397   H     0.72994   0.45934   0.19223   0.00000  Uiso   1.00
H398   H     0.93674   0.54069   0.30771   0.00000  Uiso   1.00
N399   N     0.71426   0.50001   0.25001   0.00000  Uiso   1.00
N400   N     0.95241   0.49999   0.24999   0.00000  Uiso   1.00
O401   O     0.79512   0.56108   0.25000   0.00000  Uiso   1.00
O402   O     0.87154   0.43892   0.25000   0.00000  Uiso   1.00
O403   O     0.87157   0.56107   0.25000   0.00000  Uiso   1.00
O404   O     0.79510   0.43893   0.25000   0.00000  Uiso   1.00
O405   O     0.77328   0.50001   0.31612   0.00000  Uiso   1.00
O406   O     0.89339   0.49999   0.18388   0.00000  Uiso   1.00
O407   O     0.84972   0.50000   0.31612   0.00000  Uiso   1.00
O408   O     0.81695   0.50000   0.18388   0.00000  Uiso   1.00
Zn409  Zn    0.78229   0.50001   0.25000   0.00000  Uiso   1.00
Zn410  Zn    0.88438   0.49999   0.25000   0.00000  Uiso   1.00
O411   O     0.69736   0.46079   0.05830   0.00000  Uiso   1.00
C412   C     0.69962   0.41983   0.07470   0.00000  Uiso   1.00
H413   H     0.71168   0.42037   0.10471   0.00000  Uiso   1.00
H414   H     0.72308   0.39888   0.04690   0.00000  Uiso   1.00
H415   H     0.99669   0.40566   0.08711   0.00000  Uiso   1.00
O416   O     0.96565   0.43673   0.44931   0.00000  Uiso   1.00
C417   C     0.96285   0.39356   0.44225   0.00000  Uiso   1.00
H418   H     0.94239   0.38690   0.41932   0.00000  Uiso   1.00
H419   H     0.94673   0.37667   0.47582   0.00000  Uiso   1.00
H420   H     0.99978   0.38140   0.42471   0.00000  Uiso   1.00
C421   C     0.16668   0.91324   0.25002   0.00000  Uiso   1.00
C422   C     0.16667   0.75343   0.24995   0.00000  Uiso   1.00
C423   C     0.11062   0.81145   0.05204   0.00000  Uiso   1.00
C424   C     0.22149   0.79288   0.45118   0.00000  Uiso   1.00
C425   C     0.07648   0.80671   0.03168   0.00000  Uiso   1.00
C426   C     0.25335   0.78483   0.47401   0.00000  Uiso   1.00
C427   C     0.21042   0.97866   0.23675   0.00000  Uiso   1.00
C428   C     0.12294   0.68802   0.26313   0.00000  Uiso   1.00
C429   C     0.21042   0.68804   0.23667   0.00000  Uiso   1.00
C430   C     0.12295   0.97865   0.26318   0.00000  Uiso   1.00
C431   C     0.16668   0.70922   0.24990   0.00000  Uiso   1.00
C432   C     0.16669   0.95746   0.25000   0.00000  Uiso   1.00
C433   C     0.32152   0.81081   0.21797   0.00000  Uiso   1.00
C434   C     0.01182   0.85586   0.28200   0.00000  Uiso   1.00
C435   C     0.03585   0.81081   0.21799   0.00000  Uiso   1.00
C436   C     0.29749   0.85586   0.28198   0.00000  Uiso   1.00
C437   C     0.13677   0.83255   0.33781   0.00000  Uiso   1.00
C438   C     0.19661   0.83233   0.16233   0.00000  Uiso   1.00
C439   C     0.11933   0.82696   0.38809   0.00000  Uiso   1.00
C440   C     0.21444   0.82373   0.11279   0.00000  Uiso   1.00
C441   C     0.05585   0.81947   0.46312   0.00000  Uiso   1.00
C442   C     0.27042   0.78866   0.04551   0.00000  Uiso   1.00
C443   C     0.07036   0.82616   0.41541   0.00000  Uiso   1.00
C444   C     0.25749   0.80237   0.09139   0.00000  Uiso   1.00
C445   C     0.15337   0.82046   0.40856   0.00000  Uiso   1.00
C446   C     0.18368   0.82987   0.08903   0.00000  Uiso   1.00
C447   C     0.13957   0.81269   0.45581   0.00000  Uiso   1.00
C448   C     0.19434   0.81312   0.04482   0.00000  Uiso   1.00
C449   C     0.09009   0.81295   0.48374   0.00000  Uiso   1.00
C450   C     0.24007   0.79590   0.02099   0.00000  Uiso   1.00
C451   C     0.17403   0.80619   0.47639   0.00000  Uiso   1.00
C452   C     0.15963   0.81194   0.02456   0.00000  Uiso   1.00
H453   H     0.15068   0.84702   0.10579   0.00000  Uiso   1.00
H454   H     0.19103   0.82304   0.38756   0.00000  Uiso   1.00
H455   H     0.27966   0.79518   0.11120   0.00000  Uiso   1.00
H456   H     0.04348   0.83124   0.40011   0.00000  Uiso   1.00
H457   H     0.01815   0.82126   0.48390   0.00000  Uiso   1.00
H458   H     0.30282   0.77081   0.02959   0.00000  Uiso   1.00
H459   H     0.09847   0.80969   0.08948   0.00000  Uiso   1.00
H460   H     0.23343   0.78546   0.41465   0.00000  Uiso   1.00
H461   H     0.24447   0.96236   0.22609   0.00000  Uiso   1.00
H462   H     0.08890   0.70432   0.27380   0.00000  Uiso   1.00
H463   H     0.24446   0.70435   0.22596   0.00000  Uiso   1.00
H464   H     0.08890   0.96234   0.27388   0.00000  Uiso   1.00
H465   H     0.31342   0.79270   0.19220   0.00000  Uiso   1.00
H466   H     0.01994   0.87400   0.30774   0.00000  Uiso   1.00
H467   H     0.06328   0.79267   0.19223   0.00000  Uiso   1.00
H468   H     0.27007   0.87402   0.30771   0.00000  Uiso   1.00
N469   N     0.04759   0.83334   0.25001   0.00000  Uiso   1.00
N470   N     0.28574   0.83332   0.24999   0.00000  Uiso   1.00
O471   O     0.12846   0.89442   0.25000   0.00000  Uiso   1.00
O472   O     0.20488   0.77225   0.25000   0.00000  Uiso   1.00
O473   O     0.20490   0.89441   0.25000   0.00000  Uiso   1.00
O474   O     0.12843   0.77226   0.25000   0.00000  Uiso   1.00
O475   O     0.10661   0.83334   0.31612   0.00000  Uiso   1.00
O476   O     0.22672   0.83333   0.18388   0.00000  Uiso   1.00
O477   O     0.18305   0.83333   0.31612   0.00000  Uiso   1.00
O478   O     0.15028   0.83334   0.18388   0.00000  Uiso   1.00
Zn479  Zn    0.11562   0.83334   0.25000   0.00000  Uiso   1.00
Zn480  Zn    0.21771   0.83333   0.25000   0.00000  Uiso   1.00
O481   O     0.03069   0.79412   0.05830   0.00000  Uiso   1.00
C482   C     0.03295   0.75316   0.07470   0.00000  Uiso   1.00
H483   H     0.04502   0.75370   0.10471   0.00000  Uiso   1.00
H484   H     0.05642   0.73222   0.04690   0.00000  Uiso   1.00
H485   H     0.33002   0.73899   0.08711   0.00000  Uiso   1.00
O486   O     0.29899   0.77006   0.44931   0.00000  Uiso   1.00
C487   C     0.29618   0.72690   0.44225   0.00000  Uiso   1.00
H488   H     0.27572   0.72023   0.41932   0.00000  Uiso   1.00
H489   H     0.28006   0.71000   0.47582   0.00000  Uiso   1.00
H490   H     0.33312   0.71473   0.42471   0.00000  Uiso   1.00
C491   C     0.50001   0.91324   0.25002   0.00000  Uiso   1.00
C492   C     0.50000   0.75343   0.24995   0.00000  Uiso   1.00
C493   C     0.44395   0.81145   0.05204   0.00000  Uiso   1.00
C494   C     0.55482   0.79288   0.45118   0.00000  Uiso   1.00
C495   C     0.40981   0.80671   0.03168   0.00000  Uiso   1.00
C496   C     0.58668   0.78483   0.47401   0.00000  Uiso   1.00
C497   C     0.54376   0.97866   0.23675   0.00000  Uiso   1.00
C498   C     0.45628   0.68802   0.26313   0.00000  Uiso   1.00
C499   C     0.54376   0.68804   0.23667   0.00000  Uiso   1.00
C500   C     0.45628   0.97865   0.26318   0.00000  Uiso   1.00
C501   C     0.50001   0.70922   0.24990   0.00000  Uiso   1.00
C502   C     0.50002   0.95746   0.25000   0.00000  Uiso   1.00
C503   C     0.65485   0.81081   0.21797   0.00000  Uiso   1.00
C504   C     0.34516   0.85586   0.28200   0.00000  Uiso   1.00
C505   C     0.36918   0.81081   0.21799   0.00000  Uiso   1.00
C506   C     0.63082   0.85586   0.28198   0.00000  Uiso   1.00
C507   C     0.47010   0.83255   0.33781   0.00000  Uiso   1.00
C508   C     0.52995   0.83233   0.16233   0.00000  Uiso   1.00
C509   C     0.45267   0.82696   0.38809   0.00000  Uiso   1.00
C510   C     0.54777   0.82373   0.11279   0.00000  Uiso   1.00
C511   C     0.38918   0.81947   0.46312   0.00000  Uiso   1.00
C512   C     0.60375   0.78866   0.04551   0.00000  Uiso   1.00
C513   C     0.40369   0.82616   0.41541   0.00000  Uiso   1.00
C514   C     0.59083   0.80237   0.09139   0.00000  Uiso   1.00
C515   C     0.48670   0.82046   0.40856   0.00000  Uiso   1.00
C516   C     0.51701   0.82987   0.08903   0.00000  Uiso   1.00
C517   C     0.47290   0.81269   0.45581   0.00000  Uiso   1.00
C518   C     0.52768   0.81312   0.04482   0.00000  Uiso   1.00
C519   C     0.42342   0.81295   0.48374   0.00000  Uiso   1.00
C520   C     0.57340   0.79590   0.02099   0.00000  Uiso   1.00
C521   C     0.50736   0.80619   0.47639   0.00000  Uiso   1.00
C522   C     0.49297   0.81194   0.02456   0.00000  Uiso   1.00
H523   H     0.48401   0.84702   0.10579   0.00000  Uiso   1.00
H524   H     0.52436   0.82304   0.38756   0.00000  Uiso   1.00
H525   H     0.61299   0.79518   0.11120   0.00000  Uiso   1.00
H526   H     0.37681   0.83124   0.40011   0.00000  Uiso   1.00
H527   H     0.35148   0.82126   0.48390   0.00000  Uiso   1.00
H528   H     0.63615   0.77081   0.02959   0.00000  Uiso   1.00
H529   H     0.43180   0.80969   0.08948   0.00000  Uiso   1.00
H530   H     0.56676   0.78546   0.41465   0.00000  Uiso   1.00
H531   H     0.57780   0.96236   0.22609   0.00000  Uiso   1.00
H532   H     0.42223   0.70432   0.27380   0.00000  Uiso   1.00
H533   H     0.57780   0.70435   0.22596   0.00000  Uiso   1.00
H534   H     0.42224   0.96234   0.27388   0.00000  Uiso   1.00
H535   H     0.64675   0.79270   0.19220   0.00000  Uiso   1.00
H536   H     0.35327   0.87400   0.30774   0.00000  Uiso   1.00
H537   H     0.39661   0.79267   0.19223   0.00000  Uiso   1.00
H538   H     0.60340   0.87402   0.30771   0.00000  Uiso   1.00
N539   N     0.38093   0.83334   0.25001   0.00000  Uiso   1.00
N540   N     0.61907   0.83332   0.24999   0.00000  Uiso   1.00
O541   O     0.46179   0.89442   0.25000   0.00000  Uiso   1.00
O542   O     0.53821   0.77225   0.25000   0.00000  Uiso   1.00
O543   O     0.53823   0.89441   0.25000   0.00000  Uiso   1.00
O544   O     0.46177   0.77226   0.25000   0.00000  Uiso   1.00
O545   O     0.43994   0.83334   0.31612   0.00000  Uiso   1.00
O546   O     0.56006   0.83333   0.18388   0.00000  Uiso   1.00
O547   O     0.51639   0.83333   0.31612   0.00000  Uiso   1.00
O548   O     0.48361   0.83334   0.18388   0.00000  Uiso   1.00
Zn549  Zn    0.44896   0.83334   0.25000   0.00000  Uiso   1.00
Zn550  Zn    0.55104   0.83333   0.25000   0.00000  Uiso   1.00
O551   O     0.36402   0.79412   0.05830   0.00000  Uiso   1.00
C552   C     0.36628   0.75316   0.07470   0.00000  Uiso   1.00
H553   H     0.37835   0.75370   0.10471   0.00000  Uiso   1.00
H554   H     0.38975   0.73222   0.04690   0.00000  Uiso   1.00
H555   H     0.66335   0.73899   0.08711   0.00000  Uiso   1.00
O556   O     0.63232   0.77006   0.44931   0.00000  Uiso   1.00
C557   C     0.62951   0.72690   0.44225   0.00000  Uiso   1.00
H558   H     0.60905   0.72023   0.41932   0.00000  Uiso   1.00
H559   H     0.61340   0.71000   0.47582   0.00000  Uiso   1.00
H560   H     0.66645   0.71473   0.42471   0.00000  Uiso   1.00
C561   C     0.83335   0.91324   0.25002   0.00000  Uiso   1.00
C562   C     0.83333   0.75343   0.24995   0.00000  Uiso   1.00
C563   C     0.77729   0.81145   0.05204   0.00000  Uiso   1.00
C564   C     0.88816   0.79288   0.45118   0.00000  Uiso   1.00
C565   C     0.74314   0.80671   0.03168   0.00000  Uiso   1.00
C566   C     0.92001   0.78483   0.47401   0.00000  Uiso   1.00
C567   C     0.87709   0.97866   0.23675   0.00000  Uiso   1.00
C568   C     0.78961   0.68802   0.26313   0.00000  Uiso   1.00
C569   C     0.87709   0.68804   0.23667   0.00000  Uiso   1.00
C570   C     0.78961   0.97865   0.26318   0.00000  Uiso   1.00
C571   C     0.83334   0.70922   0.24990   0.00000  Uiso   1.00
C572   C     0.83335   0.95746   0.25000   0.00000  Uiso   1.00
C573   C     0.98818   0.81081   0.21797   0.00000  Uiso   1.00
C574   C     0.67849   0.85586   0.28200   0.00000  Uiso   1.00
C575   C     0.70252   0.81081   0.21799   0.00000  Uiso   1.00
C576   C     0.96416   0.85586   0.28198   0.00000  Uiso   1.00
C577   C     0.80343   0.83255   0.33781   0.00000  Uiso   1.00
C578   C     0.86328   0.83233   0.16233   0.00000  Uiso   1.00
C579   C     0.78600   0.82696   0.38809   0.00000  Uiso   1.00
C580   C     0.88111   0.82373   0.11279   0.00000  Uiso   1.00
C581   C     0.72251   0.81947   0.46312   0.00000  Uiso   1.00
C582   C     0.93708   0.78866   0.04551   0.00000  Uiso   1.00
C583   C     0.73702   0.82616   0.41541   0.00000  Uiso   1.00
C584   C     0.92416   0.80237   0.09139   0.00000  Uiso   1.00
C585   C     0.82004   0.82046   0.40856   0.00000  Uiso   1.00
C586   C     0.85035   0.82987   0.08903   0.00000  Uiso   1.00
C587   C     0.80624   0.81269   0.45581   0.00000  Uiso   1.00
C588   C     0.86101   0.81312   0.04482   0.00000  Uiso   1.00
C589   C     0.75675   0.81295   0.48374   0.00000  Uiso   1.00
C590   C     0.90673   0.79590   0.02099   0.00000  Uiso   1.00
C591   C     0.84070   0.80619   0.47639   0.00000  Uiso   1.00
C592   C     0.82630   0.81194   0.02456   0.00000  Uiso   1.00
H593   H     0.81735   0.84702   0.10579   0.00000  Uiso   1.00
H594   H     0.85769   0.82304   0.38756   0.00000  Uiso   1.00
H595   H     0.94632   0.79518   0.11120   0.00000  Uiso   1.00
H596   H     0.71014   0.83124   0.40011   0.00000  Uiso   1.00
H597   H     0.68481   0.82126   0.48390   0.00000  Uiso   1.00
H598   H     0.96949   0.77081   0.02959   0.00000  Uiso   1.00
H599   H     0.76513   0.80969   0.08948   0.00000  Uiso   1.00
H600   H     0.90010   0.78546   0.41465   0.00000  Uiso   1.00
H601   H     0.91113   0.96236   0.22609   0.00000  Uiso   1.00
H602   H     0.75556   0.70432   0.27380   0.00000  Uiso   1.00
H603   H     0.91113   0.70435   0.22596   0.00000  Uiso   1.00
H604   H     0.75557   0.96234   0.27388   0.00000  Uiso   1.00
H605   H     0.98008   0.79270   0.19220   0.00000  Uiso   1.00
H606   H     0.68661   0.87400   0.30774   0.00000  Uiso   1.00
H607   H     0.72994   0.79267   0.19223   0.00000  Uiso   1.00
H608   H     0.93674   0.87402   0.30771   0.00000  Uiso   1.00
N609   N     0.71426   0.83334   0.25001   0.00000  Uiso   1.00
N610   N     0.95241   0.83332   0.24999   0.00000  Uiso   1.00
O611   O     0.79512   0.89442   0.25000   0.00000  Uiso   1.00
O612   O     0.87154   0.77225   0.25000   0.00000  Uiso   1.00
O613   O     0.87157   0.89441   0.25000   0.00000  Uiso   1.00
O614   O     0.79510   0.77226   0.25000   0.00000  Uiso   1.00
O615   O     0.77328   0.83334   0.31612   0.00000  Uiso   1.00
O616   O     0.89339   0.83333   0.18388   0.00000  Uiso   1.00
O617   O     0.84972   0.83333   0.31612   0.00000  Uiso   1.00
O618   O     0.81695   0.83334   0.18388   0.00000  Uiso   1.00
Zn619  Zn    0.78229   0.83334   0.25000   0.00000  Uiso   1.00
Zn620  Zn    0.88438   0.83333   0.25000   0.00000  Uiso   1.00
O621   O     0.69736   0.79412   0.05830   0.00000  Uiso   1.00
C622   C     0.69962   0.75316   0.07470   0.00000  Uiso   1.00
H623   H     0.71168   0.75370   0.10471   0.00000  Uiso   1.00
H624   H     0.72308   0.73222   0.04690   0.00000  Uiso   1.00
H625   H     0.99669   0.73899   0.08711   0.00000  Uiso   1.00
O626   O     0.96565   0.77006   0.44931   0.00000  Uiso   1.00
C627   C     0.96285   0.72690   0.44225   0.00000  Uiso   1.00
H628   H     0.94239   0.72023   0.41932   0.00000  Uiso   1.00
H629   H     0.94673   0.71000   0.47582   0.00000  Uiso   1.00
H630   H     0.99978   0.71473   0.42471   0.00000  Uiso   1.00
C631   C     0.16668   0.24657   0.75002   0.00000  Uiso   1.00
C632   C     0.16667   0.08677   0.74995   0.00000  Uiso   1.00
C633   C     0.11062   0.14478   0.55204   0.00000  Uiso   1.00
C634   C     0.22149   0.12621   0.95118   0.00000  Uiso   1.00
C635   C     0.07648   0.14004   0.53168   0.00000  Uiso   1.00
C636   C     0.25335   0.11816   0.97401   0.00000  Uiso   1.00
C637   C     0.21042   0.31199   0.73675   0.00000  Uiso   1.00
C638   C     0.12294   0.02135   0.76313   0.00000  Uiso   1.00
C639   C     0.21042   0.02137   0.73667   0.00000  Uiso   1.00
C640   C     0.12295   0.31198   0.76318   0.00000  Uiso   1.00
C641   C     0.16668   0.04256   0.74990   0.00000  Uiso   1.00
C642   C     0.16669   0.29079   0.75000   0.00000  Uiso   1.00
C643   C     0.32152   0.14415   0.71797   0.00000  Uiso   1.00
C644   C     0.01182   0.18920   0.78200   0.00000  Uiso   1.00
C645   C     0.03585   0.14414   0.71799   0.00000  Uiso   1.00
C646   C     0.29749   0.18920   0.78198   0.00000  Uiso   1.00
C647   C     0.13677   0.16588   0.83781   0.00000  Uiso   1.00
C648   C     0.19661   0.16566   0.66233   0.00000  Uiso   1.00
C649   C     0.11933   0.16030   0.88809   0.00000  Uiso   1.00
C650   C     0.21444   0.15706   0.61279   0.00000  Uiso   1.00
C651   C     0.05585   0.15280   0.96312   0.00000  Uiso   1.00
C652   C     0.27042   0.12199   0.54551   0.00000  Uiso   1.00
C653   C     0.07036   0.15949   0.91541   0.00000  Uiso   1.00
C654   C     0.25749   0.13571   0.59139   0.00000  Uiso   1.00
C655   C     0.15337   0.15379   0.90856   0.00000  Uiso   1.00
C656   C     0.18368   0.16321   0.58903   0.00000  Uiso   1.00
C657   C     0.13957   0.14603   0.95581   0.00000  Uiso   1.00
C658   C     0.19434   0.14645   0.54482   0.00000  Uiso   1.00
C659   C     0.09009   0.14628   0.98374   0.00000  Uiso   1.00
C660   C     0.24007   0.12923   0.52099   0.00000  Uiso   1.00
C661   C     0.17403   0.13952   0.97639   0.00000  Uiso   1.00
C662   C     0.15963   0.14527   0.52456   0.00000  Uiso   1.00
H663   H     0.15068   0.18035   0.60579   0.00000  Uiso   1.00
H664   H     0.19103   0.15637   0.88756   0.00000  Uiso   1.00
H665   H     0.27966   0.12851   0.61120   0.00000  Uiso   1.00
H666   H     0.04348   0.16458   0.90011   0.00000  Uiso   1.00
H667   H     0.01815   0.15460   0.98390   0.00000  Uiso   1.00
H668   H     0.30282   0.10414   0.52959   0.00000  Uiso   1.00
H669   H     0.09847   0.14303   0.58948   0.00000  Uiso   1.00
H670   H     0.23343   0.11879   0.91465   0.00000  Uiso   1.00
H671   H     0.24447   0.29569   0.72609   0.00000  Uiso   1.00
H672   H     0.08890   0.03766   0.77380   0.00000  Uiso   1.00
H673   H     0.24446   0.03769   0.72596   0.00000  Uiso   1.00
H674   H     0.08890   0.29567   0.77388   0.00000  Uiso   1.00
H675   H     0.31342   0.12603   0.69220   0.00000  Uiso   1.00
H676   H     0.01994   0.20733   0.80774   0.00000  Uiso   1.00
H677   H     0.06328   0.12601   0.69223   0.00000  Uiso   1.00
H678   H     0.27007   0.20736   0.80771   0.00000  Uiso   1.00
N679   N     0.04759   0.16668   0.75001   0.00000  Uiso   1.00
N680   N     0.28574   0.16666   0.74999   0.00000  Uiso   1.00
O681   O     0.12846   0.22775   0.75000   0.00000  Uiso   1.00
O682   O     0.20488   0.10558   0.75000   0.00000  Uiso   1.00
O683   O     0.20490   0.22774   0.75000   0.00000  Uiso   1.00
O684   O     0.12843   0.10559   0.75000   0.00000  Uiso   1.00
O685   O     0.10661   0.16667   0.81612   0.00000  Uiso   1.00
O686   O     0.22672   0.16666   0.68388   0.00000  Uiso   1.00
O687   O     0.18305   0.16666   0.81612   0.00000  Uiso   1.00
O688   O     0.15028   0.16667   0.68388   0.00000  Uiso   1.00
Zn689  Zn    0.11562   0.16667   0.75000   0.00000  Uiso   1.00
Zn690  Zn    0.21771   0.16666   0.75000   0.00000  Uiso   1.00
O691   O     0.03069   0.12746   0.55830   0.00000  Uiso   1.00
C692   C     0.03295   0.08649   0.57470   0.00000  Uiso   1.00
H693   H     0.04502   0.08703   0.60471   0.00000  Uiso   1.00
H694   H     0.05642   0.06555   0.54690   0.00000  Uiso   1.00
H695   H     0.33002   0.07232   0.58711   0.00000  Uiso   1.00
O696   O     0.29899   0.10339   0.94931   0.00000  Uiso   1.00
C697   C     0.29618   0.06023   0.94225   0.00000  Uiso   1.00
H698   H     0.27572   0.05357   0.91932   0.00000  Uiso   1.00
H699   H     0.28006   0.04334   0.97582   0.00000  Uiso   1.00
H700   H     0.33312   0.04806   0.92471   0.00000  Uiso   1.00
C701   C     0.50001   0.24657   0.75002   0.00000  Uiso   1.00
C702   C     0.50000   0.08677   0.74995   0.00000  Uiso   1.00
C703   C     0.44395   0.14478   0.55204   0.00000  Uiso   1.00
C704   C     0.55482   0.12621   0.95118   0.00000  Uiso   1.00
C705   C     0.40981   0.14004   0.53168   0.00000  Uiso   1.00
C706   C     0.58668   0.11816   0.97401   0.00000  Uiso   1.00
C707   C     0.54376   0.31199   0.73675   0.00000  Uiso   1.00
C708   C     0.45628   0.02135   0.76313   0.00000  Uiso   1.00
C709   C     0.54376   0.02137   0.73667   0.00000  Uiso   1.00
C710   C     0.45628   0.31198   0.76318   0.00000  Uiso   1.00
C711   C     0.50001   0.04256   0.74990   0.00000  Uiso   1.00
C712   C     0.50002   0.29079   0.75000   0.00000  Uiso   1.00
C713   C     0.65485   0.14415   0.71797   0.00000  Uiso   1.00
C714   C     0.34516   0.18920   0.78200   0.00000  Uiso   1.00
C715   C     0.36918   0.14414   0.71799   0.00000  Uiso   1.00
C716   C     0.63082   0.18920   0.78198   0.00000  Uiso   1.00
C717   C     0.47010   0.16588   0.83781   0.00000  Uiso   1.00
C718   C     0.52995   0.16566   0.66233   0.00000  Uiso   1.00
C719   C     0.45267   0.16030   0.88809   0.00000  Uiso   1.00
C720   C     0.54777   0.15706   0.61279   0.00000  Uiso   1.00
C721   C     0.38918   0.15280   0.96312   0.00000  Uiso   1.00
C722   C     0.60375   0.12199   0.54551   0.00000  Uiso   1.00
C723   C     0.40369   0.15949   0.91541   0.00000  Uiso   1.00
C724   C     0.59083   0.13571   0.59139   0.00000  Uiso   1.00
C725   C     0.48670   0.15379   0.90856   0.00000  Uiso   1.00
C726   C     0.51701   0.16321   0.58903   0.00000  Uiso   1.00
C727   C     0.47290   0.14603   0.95581   0.00000  Uiso   1.00
C728   C     0.52768   0.14645   0.54482   0.00000  Uiso   1.00
C729   C     0.42342   0.14628   0.98374   0.00000  Uiso   1.00
C730   C     0.57340   0.12923   0.52099   0.00000  Uiso   1.00
C731   C     0.50736   0.13952   0.97639   0.00000  Uiso   1.00
C732   C     0.49297   0.14527   0.52456   0.00000  Uiso   1.00
H733   H     0.48401   0.18035   0.60579   0.00000  Uiso   1.00
H734   H     0.52436   0.15637   0.88756   0.00000  Uiso   1.00
H735   H     0.61299   0.12851   0.61120   0.00000  Uiso   1.00
H736   H     0.37681   0.16458   0.90011   0.00000  Uiso   1.00
H737   H     0.35148   0.15460   0.98390   0.00000  Uiso   1.00
H738   H     0.63615   0.10414   0.52959   0.00000  Uiso   1.00
H739   H     0.43180   0.14303   0.58948   0.00000  Uiso   1.00
H740   H     0.56676   0.11879   0.91465   0.00000  Uiso   1.00
H741   H     0.57780   0.29569   0.72609   0.00000  Uiso   1.00
H742   H     0.42223   0.03766   0.77380   0.00000  Uiso   1.00
H743   H     0.57780   0.03769   0.72596   0.00000  Uiso   1.00
H744   H     0.42224   0.29567   0.77388   0.00000  Uiso   1.00
H745   H     0.64675   0.12603   0.69220   0.00000  Uiso   1.00
H746   H     0.35327   0.20733   0.80774   0.00000  Uiso   1.00
H747   H     0.39661   0.12601   0.69223   0.00000  Uiso   1.00
H748   H     0.60340   0.20736   0.80771   0.00000  Uiso   1.00
N749   N     0.38093   0.16668   0.75001   0.00000  Uiso   1.00
N750   N     0.61907   0.16666   0.74999   0.00000  Uiso   1.00
O751   O     0.46179   0.22775   0.75000   0.00000  Uiso   1.00
O752   O     0.53821   0.10558   0.75000   0.00000  Uiso   1.00
O753   O     0.53823   0.22774   0.75000   0.00000  Uiso   1.00
O754   O     0.46177   0.10559   0.75000   0.00000  Uiso   1.00
O755   O     0.43994   0.16667   0.81612   0.00000  Uiso   1.00
O756   O     0.56006   0.16666   0.68388   0.00000  Uiso   1.00
O757   O     0.51639   0.16666   0.81612   0.00000  Uiso   1.00
O758   O     0.48361   0.16667   0.68388   0.00000  Uiso   1.00
Zn759  Zn    0.44896   0.16667   0.75000   0.00000  Uiso   1.00
Zn760  Zn    0.55104   0.16666   0.75000   0.00000  Uiso   1.00
O761   O     0.36402   0.12746   0.55830   0.00000  Uiso   1.00
C762   C     0.36628   0.08649   0.57470   0.00000  Uiso   1.00
H763   H     0.37835   0.08703   0.60471   0.00000  Uiso   1.00
H764   H     0.38975   0.06555   0.54690   0.00000  Uiso   1.00
H765   H     0.66335   0.07232   0.58711   0.00000  Uiso   1.00
O766   O     0.63232   0.10339   0.94931   0.00000  Uiso   1.00
C767   C     0.62951   0.06023   0.94225   0.00000  Uiso   1.00
H768   H     0.60905   0.05357   0.91932   0.00000  Uiso   1.00
H769   H     0.61340   0.04334   0.97582   0.00000  Uiso   1.00
H770   H     0.66645   0.04806   0.92471   0.00000  Uiso   1.00
C771   C     0.83335   0.24657   0.75002   0.00000  Uiso   1.00
C772   C     0.83333   0.08677   0.74995   0.00000  Uiso   1.00
C773   C     0.77729   0.14478   0.55204   0.00000  Uiso   1.00
C774   C     0.88816   0.12621   0.95118   0.00000  Uiso   1.00
C775   C     0.74314   0.14004   0.53168   0.00000  Uiso   1.00
C776   C     0.92001   0.11816   0.97401   0.00000  Uiso   1.00
C777   C     0.87709   0.31199   0.73675   0.00000  Uiso   1.00
C778   C     0.78961   0.02135   0.76313   0.00000  Uiso   1.00
C779   C     0.87709   0.02137   0.73667   0.00000  Uiso   1.00
C780   C     0.78961   0.31198   0.76318   0.00000  Uiso   1.00
C781   C     0.83334   0.04256   0.74990   0.00000  Uiso   1.00
C782   C     0.83335   0.29079   0.75000   0.00000  Uiso   1.00
C783   C     0.98818   0.14415   0.71797   0.00000  Uiso   1.00
C784   C     0.67849   0.18920   0.78200   0.00000  Uiso   1.00
C785   C     0.70252   0.14414   0.71799   0.00000  Uiso   1.00
C786   C     0.96416   0.18920   0.78198   0.00000  Uiso   1.00
C787   C     0.80343   0.16588   0.83781   0.00000  Uiso   1.00
C788   C     0.86328   0.16566   0.66233   0.00000  Uiso   1.00
C789   C     0.78600   0.16030   0.88809   0.00000  Uiso   1.00
C790   C     0.88111   0.15706   0.61279   0.00000  Uiso   1.00
C791   C     0.72251   0.15280   0.96312   0.00000  Uiso   1.00
C792   C     0.93708   0.12199   0.54551   0.00000  Uiso   1.00
C793   C     0.73702   0.15949   0.91541   0.00000  Uiso   1.00
C794   C     0.92416   0.13571   0.59139   0.00000  Uiso   1.00
C795   C     0.82004   0.15379   0.90856   0.00000  Uiso   1.00
C796   C     0.85035   0.16321   0.58903   0.00000  Uiso   1.00
C797   C     0.80624   0.14603   0.95581   0.00000  Uiso   1.00
C798   C     0.86101   0.14645   0.54482   0.00000  Uiso   1.00
C799   C     0.75675   0.14628   0.98374   0.00000  Uiso   1.00
C800   C     0.90673   0.12923   0.52099   0.00000  Uiso   1.00
C801   C     0.84070   0.13952   0.97639   0.00000  Uiso   1.00
C802   C     0.82630   0.14527   0.52456   0.00000  Uiso   1.00
H803   H     0.81735   0.18035   0.60579   0.00000  Uiso   1.00
H804   H     0.85769   0.15637   0.88756   0.00000  Uiso   1.00
H805   H     0.94632   0.12851   0.61120   0.00000  Uiso   1.00
H806   H     0.71014   0.16458   0.90011   0.00000  Uiso   1.00
H807   H     0.68481   0.15460   0.98390   0.00000  Uiso   1.00
H808   H     0.96949   0.10414   0.52959   0.00000  Uiso   1.00
H809   H     0.76513   0.14303   0.58948   0.00000  Uiso   1.00
H810   H     0.90010   0.11879   0.91465   0.00000  Uiso   1.00
H811   H     0.91113   0.29569   0.72609   0.00000  Uiso   1.00
H812   H     0.75556   0.03766   0.77380   0.00000  Uiso   1.00
H813   H     0.91113   0.03769   0.72596   0.00000  Uiso   1.00
H814   H     0.75557   0.29567   0.77388   0.00000  Uiso   1.00
H815   H     0.98008   0.12603   0.69220   0.00000  Uiso   1.00
H816   H     0.68661   0.20733   0.80774   0.00000  Uiso   1.00
H817   H     0.72994   0.12601   0.69223   0.00000  Uiso   1.00
H818   H     0.93674   0.20736   0.80771   0.00000  Uiso   1.00
N819   N     0.71426   0.16668   0.75001   0.00000  Uiso   1.00
N820   N     0.95241   0.16666   0.74999   0.00000  Uiso   1.00
O821   O     0.79512   0.22775   0.75000   0.00000  Uiso   1.00
O822   O     0.87154   0.10558   0.75000   0.00000  Uiso   1.00
O823   O     0.87157   0.22774   0.75000   0.00000  Uiso   1.00
O824   O     0.79510   0.10559   0.75000   0.00000  Uiso   1.00
O825   O     0.77328   0.16667   0.81612   0.00000  Uiso   1.00
O826   O     0.89339   0.16666   0.68388   0.00000  Uiso   1.00
O827   O     0.84972   0.16666   0.81612   0.00000  Uiso   1.00
O828   O     0.81695   0.16667   0.68388   0.00000  Uiso   1.00
Zn829  Zn    0.78229   0.16667   0.75000   0.00000  Uiso   1.00
Zn830  Zn    0.88438   0.16666   0.75000   0.00000  Uiso   1.00
O831   O     0.69736   0.12746   0.55830   0.00000  Uiso   1.00
C832   C     0.69962   0.08649   0.57470   0.00000  Uiso   1.00
H833   H     0.71168   0.08703   0.60471   0.00000  Uiso   1.00
H834   H     0.72308   0.06555   0.54690   0.00000  Uiso   1.00
H835   H     0.99669   0.07232   0.58711   0.00000  Uiso   1.00
O836   O     0.96565   0.10339   0.94931   0.00000  Uiso   1.00
C837   C     0.96285   0.06023   0.94225   0.00000  Uiso   1.00
H838   H     0.94239   0.05357   0.91932   0.00000  Uiso   1.00
H839   H     0.94673   0.04334   0.97582   0.00000  Uiso   1.00
H840   H     0.99978   0.04806   0.92471   0.00000  Uiso   1.00
C841   C     0.16668   0.57990   0.75002   0.00000  Uiso   1.00
C842   C     0.16667   0.42010   0.74995   0.00000  Uiso   1.00
C843   C     0.11062   0.47811   0.55204   0.00000  Uiso   1.00
C844   C     0.22149   0.45954   0.95118   0.00000  Uiso   1.00
C845   C     0.07648   0.47338   0.53168   0.00000  Uiso   1.00
C846   C     0.25335   0.45149   0.97401   0.00000  Uiso   1.00
C847   C     0.21042   0.64533   0.73675   0.00000  Uiso   1.00
C848   C     0.12294   0.35469   0.76313   0.00000  Uiso   1.00
C849   C     0.21042   0.35470   0.73667   0.00000  Uiso   1.00
C850   C     0.12295   0.64532   0.76318   0.00000  Uiso   1.00
C851   C     0.16668   0.37589   0.74990   0.00000  Uiso   1.00
C852   C     0.16669   0.62412   0.75000   0.00000  Uiso   1.00
C853   C     0.32152   0.47748   0.71797   0.00000  Uiso   1.00
C854   C     0.01182   0.52253   0.78200   0.00000  Uiso   1.00
C855   C     0.03585   0.47748   0.71799   0.00000  Uiso   1.00
C856   C     0.29749   0.52253   0.78198   0.00000  Uiso   1.00
C857   C     0.13677   0.49922   0.83781   0.00000  Uiso   1.00
C858   C     0.19661   0.49899   0.66233   0.00000  Uiso   1.00
C859   C     0.11933   0.49363   0.88809   0.00000  Uiso   1.00
C860   C     0.21444   0.49040   0.61279   0.00000  Uiso   1.00
C861   C     0.05585   0.48614   0.96312   0.00000  Uiso   1.00
C862   C     0.27042   0.45532   0.54551   0.00000  Uiso   1.00
C863   C     0.07036   0.49283   0.91541   0.00000  Uiso   1.00
C864   C     0.25749   0.46904   0.59139   0.00000  Uiso   1.00
C865   C     0.15337   0.48712   0.90856   0.00000  Uiso   1.00
C866   C     0.18368   0.49654   0.58903   0.00000  Uiso   1.00
C867   C     0.13957   0.47936   0.95581   0.00000  Uiso   1.00
C868   C     0.19434   0.47979   0.54482   0.00000  Uiso   1.00
C869   C     0.09009   0.47962   0.98374   0.00000  Uiso   1.00
C870   C     0.24007   0.46256   0.52099   0.00000  Uiso   1.00
C871   C     0.17403   0.47285   0.97639   0.00000  Uiso   1.00
C872   C     0.15963   0.47861   0.52456   0.00000  Uiso   1.00
H873   H     0.15068   0.51368   0.60579   0.00000  Uiso   1.00
H874   H     0.19103   0.48971   0.88756   0.00000  Uiso   1.00
H875   H     0.27966   0.46185   0.61120   0.00000  Uiso   1.00
H876   H     0.04348   0.49791   0.90011   0.00000  Uiso   1.00
H877   H     0.01815   0.48793   0.98390   0.00000  Uiso   1.00
H878   H     0.30282   0.43747   0.52959   0.00000  Uiso   1.00
H879   H     0.09847   0.47636   0.58948   0.00000  Uiso   1.00
H880   H     0.23343   0.45213   0.91465   0.00000  Uiso   1.00
H881   H     0.24447   0.62902   0.72609   0.00000  Uiso   1.00
H882   H     0.08890   0.37099   0.77380   0.00000  Uiso   1.00
H883   H     0.24446   0.37102   0.72596   0.00000  Uiso   1.00
H884   H     0.08890   0.62900   0.77388   0.00000  Uiso   1.00
H885   H     0.31342   0.45937   0.69220   0.00000  Uiso   1.00
H886   H     0.01994   0.54066   0.80774   0.00000  Uiso   1.00
H887   H     0.06328   0.45934   0.69223   0.00000  Uiso   1.00
H888   H     0.27007   0.54069   0.80771   0.00000  Uiso   1.00
N889   N     0.04759   0.50001   0.75001   0.00000  Uiso   1.00
N890   N     0.28574   0.49999   0.74999   0.00000  Uiso   1.00
O891   O     0.12846   0.56108   0.75000   0.00000  Uiso   1.00
O892   O     0.20488   0.43892   0.75000   0.00000  Uiso   1.00
O893   O     0.20490   0.56107   0.75000   0.00000  Uiso   1.00
O894   O     0.12843   0.43893   0.75000   0.00000  Uiso   1.00
O895   O     0.10661   0.50001   0.81612   0.00000  Uiso   1.00
O896   O     0.22672   0.49999   0.68388   0.00000  Uiso   1.00
O897   O     0.18305   0.50000   0.81612   0.00000  Uiso   1.00
O898   O     0.15028   0.50000   0.68388   0.00000  Uiso   1.00
Zn899  Zn    0.11562   0.50001   0.75000   0.00000  Uiso   1.00
Zn900  Zn    0.21771   0.49999   0.75000   0.00000  Uiso   1.00
O901   O     0.03069   0.46079   0.55830   0.00000  Uiso   1.00
C902   C     0.03295   0.41983   0.57470   0.00000  Uiso   1.00
H903   H     0.04502   0.42037   0.60471   0.00000  Uiso   1.00
H904   H     0.05642   0.39888   0.54690   0.00000  Uiso   1.00
H905   H     0.33002   0.40566   0.58711   0.00000  Uiso   1.00
O906   O     0.29899   0.43673   0.94931   0.00000  Uiso   1.00
C907   C     0.29618   0.39356   0.94225   0.00000  Uiso   1.00
H908   H     0.27572   0.38690   0.91932   0.00000  Uiso   1.00
H909   H     0.28006   0.37667   0.97582   0.00000  Uiso   1.00
H910   H     0.33312   0.38140   0.92471   0.00000  Uiso   1.00
C911   C     0.50001   0.57990   0.75002   0.00000  Uiso   1.00
C912   C     0.50000   0.42010   0.74995   0.00000  Uiso   1.00
C913   C     0.44395   0.47811   0.55204   0.00000  Uiso   1.00
C914   C     0.55482   0.45954   0.95118   0.00000  Uiso   1.00
C915   C     0.40981   0.47338   0.53168   0.00000  Uiso   1.00
C916   C     0.58668   0.45149   0.97401   0.00000  Uiso   1.00
C917   C     0.54376   0.64533   0.73675   0.00000  Uiso   1.00
C918   C     0.45628   0.35469   0.76313   0.00000  Uiso   1.00
C919   C     0.54376   0.35470   0.73667   0.00000  Uiso   1.00
C920   C     0.45628   0.64532   0.76318   0.00000  Uiso   1.00
C921   C     0.50001   0.37589   0.74990   0.00000  Uiso   1.00
C922   C     0.50002   0.62412   0.75000   0.00000  Uiso   1.00
C923   C     0.65485   0.47748   0.71797   0.00000  Uiso   1.00
C924   C     0.34516   0.52253   0.78200   0.00000  Uiso   1.00
C925   C     0.36918   0.47748   0.71799   0.00000  Uiso   1.00
C926   C     0.63082   0.52253   0.78198   0.00000  Uiso   1.00
C927   C     0.47010   0.49922   0.83781   0.00000  Uiso   1.00
C928   C     0.52995   0.49899   0.66233   0.00000  Uiso   1.00
C929   C     0.45267   0.49363   0.88809   0.00000  Uiso   1.00
C930   C     0.54777   0.49040   0.61279   0.00000  Uiso   1.00
C931   C     0.38918   0.48614   0.96312   0.00000  Uiso   1.00
C932   C     0.60375   0.45532   0.54551   0.00000  Uiso   1.00
C933   C     0.40369   0.49283   0.91541   0.00000  Uiso   1.00
C934   C     0.59083   0.46904   0.59139   0.00000  Uiso   1.00
C935   C     0.48670   0.48712   0.90856   0.00000  Uiso   1.00
C936   C     0.51701   0.49654   0.58903   0.00000  Uiso   1.00
C937   C     0.47290   0.47936   0.95581   0.00000  Uiso   1.00
C938   C     0.52768   0.47979   0.54482   0.00000  Uiso   1.00
C939   C     0.42342   0.47962   0.98374   0.00000  Uiso   1.00
C940   C     0.57340   0.46256   0.52099   0.00000  Uiso   1.00
C941   C     0.50736   0.47285   0.97639   0.00000  Uiso   1.00
C942   C     0.49297   0.47861   0.52456   0.00000  Uiso   1.00
H943   H     0.48401   0.51368   0.60579   0.00000  Uiso   1.00
H944   H     0.52436   0.48971   0.88756   0.00000  Uiso   1.00
H945   H     0.61299   0.46185   0.61120   0.00000  Uiso   1.00
H946   H     0.37681   0.49791   0.90011   0.00000  Uiso   1.00
H947   H     0.35148   0.48793   0.98390   0.00000  Uiso   1.00
H948   H     0.63615   0.43747   0.52959   0.00000  Uiso   1.00
H949   H     0.43180   0.47636   0.58948   0.00000  Uiso   1.00
H950   H     0.56676   0.45213   0.91465   0.00000  Uiso   1.00
H951   H     0.57780   0.62902   0.72609   0.00000  Uiso   1.00
H952   H     0.42223   0.37099   0.77380   0.00000  Uiso   1.00
H953   H     0.57780   0.37102   0.72596   0.00000  Uiso   1.00
H954   H     0.42224   0.62900   0.77388   0.00000  Uiso   1.00
H955   H     0.64675   0.45937   0.69220   0.00000  Uiso   1.00
H956   H     0.35327   0.54066   0.80774   0.00000  Uiso   1.00
H957   H     0.39661   0.45934   0.69223   0.00000  Uiso   1.00
H958   H     0.60340   0.54069   0.80771   0.00000  Uiso   1.00
N959   N     0.38093   0.50001   0.75001   0.00000  Uiso   1.00
N960   N     0.61907   0.49999   0.74999   0.00000  Uiso   1.00
O961   O     0.46179   0.56108   0.75000   0.00000  Uiso   1.00
O962   O     0.53821   0.43892   0.75000   0.00000  Uiso   1.00
O963   O     0.53823   0.56107   0.75000   0.00000  Uiso   1.00
O964   O     0.46177   0.43893   0.75000   0.00000  Uiso   1.00
O965   O     0.43994   0.50001   0.81612   0.00000  Uiso   1.00
O966   O     0.56006   0.49999   0.68388   0.00000  Uiso   1.00
O967   O     0.51639   0.50000   0.81612   0.00000  Uiso   1.00
O968   O     0.48361   0.50000   0.68388   0.00000  Uiso   1.00
Zn969  Zn    0.44896   0.50001   0.75000   0.00000  Uiso   1.00
Zn970  Zn    0.55104   0.49999   0.75000   0.00000  Uiso   1.00
O971   O     0.36402   0.46079   0.55830   0.00000  Uiso   1.00
C972   C     0.36628   0.41983   0.57470   0.00000  Uiso   1.00
H973   H     0.37835   0.42037   0.60471   0.00000  Uiso   1.00
H974   H     0.38975   0.39888   0.54690   0.00000  Uiso   1.00
H975   H     0.66335   0.40566   0.58711   0.00000  Uiso   1.00
O976   O     0.63232   0.43673   0.94931   0.00000  Uiso   1.00
C977   C     0.62951   0.39356   0.94225   0.00000  Uiso   1.00
H978   H     0.60905   0.38690   0.91932   0.00000  Uiso   1.00
H979   H     0.61340   0.37667   0.97582   0.00000  Uiso   1.00
H980   H     0.66645   0.38140   0.92471   0.00000  Uiso   1.00
C981   C     0.83335   0.57990   0.75002   0.00000  Uiso   1.00
C982   C     0.83333   0.42010   0.74995   0.00000  Uiso   1.00
C983   C     0.77729   0.47811   0.55204   0.00000  Uiso   1.00
C984   C     0.88816   0.45954   0.95118   0.00000  Uiso   1.00
C985   C     0.74314   0.47338   0.53168   0.00000  Uiso   1.00
C986   C     0.92001   0.45149   0.97401   0.00000  Uiso   1.00
C987   C     0.87709   0.64533   0.73675   0.00000  Uiso   1.00
C988   C     0.78961   0.35469   0.76313   0.00000  Uiso   1.00
C989   C     0.87709   0.35470   0.73667   0.00000  Uiso   1.00
C990   C     0.78961   0.64532   0.76318   0.00000  Uiso   1.00
C991   C     0.83334   0.37589   0.74990   0.00000  Uiso   1.00
C992   C     0.83335   0.62412   0.75000   0.00000  Uiso   1.00
C993   C     0.98818   0.47748   0.71797   0.00000  Uiso   1.00
C994   C     0.67849   0.52253   0.78200   0.00000  Uiso   1.00
C995   C     0.70252   0.47748   0.71799   0.00000  Uiso   1.00
C996   C     0.96416   0.52253   0.78198   0.00000  Uiso   1.00
C997   C     0.80343   0.49922   0.83781   0.00000  Uiso   1.00
C998   C     0.86328   0.49899   0.66233   0.00000  Uiso   1.00
C999   C     0.78600   0.49363   0.88809   0.00000  Uiso   1.00
C1000  C     0.88111   0.49040   0.61279   0.00000  Uiso   1.00
C1001  C     0.72251   0.48614   0.96312   0.00000  Uiso   1.00
C1002  C     0.93708   0.45532   0.54551   0.00000  Uiso   1.00
C1003  C     0.73702   0.49283   0.91541   0.00000  Uiso   1.00
C1004  C     0.92416   0.46904   0.59139   0.00000  Uiso   1.00
C1005  C     0.82004   0.48712   0.90856   0.00000  Uiso   1.00
C1006  C     0.85035   0.49654   0.58903   0.00000  Uiso   1.00
C1007  C     0.80624   0.47936   0.95581   0.00000  Uiso   1.00
C1008  C     0.86101   0.47979   0.54482   0.00000  Uiso   1.00
C1009  C     0.75675   0.47962   0.98374   0.00000  Uiso   1.00
C1010  C     0.90673   0.46256   0.52099   0.00000  Uiso   1.00
C1011  C     0.84070   0.47285   0.97639   0.00000  Uiso   1.00
C1012  C     0.82630   0.47861   0.52456   0.00000  Uiso   1.00
H1013  H     0.81735   0.51368   0.60579   0.00000  Uiso   1.00
H1014  H     0.85769   0.48971   0.88756   0.00000  Uiso   1.00
H1015  H     0.94632   0.46185   0.61120   0.00000  Uiso   1.00
H1016  H     0.71014   0.49791   0.90011   0.00000  Uiso   1.00
H1017  H     0.68481   0.48793   0.98390   0.00000  Uiso   1.00
H1018  H     0.96949   0.43747   0.52959   0.00000  Uiso   1.00
H1019  H     0.76513   0.47636   0.58948   0.00000  Uiso   1.00
H1020  H     0.90010   0.45213   0.91465   0.00000  Uiso   1.00
H1021  H     0.91113   0.62902   0.72609   0.00000  Uiso   1.00
H1022  H     0.75556   0.37099   0.77380   0.00000  Uiso   1.00
H1023  H     0.91113   0.37102   0.72596   0.00000  Uiso   1.00
H1024  H     0.75557   0.62900   0.77388   0.00000  Uiso   1.00
H1025  H     0.98008   0.45937   0.69220   0.00000  Uiso   1.00
H1026  H     0.68661   0.54066   0.80774   0.00000  Uiso   1.00
H1027  H     0.72994   0.45934   0.69223   0.00000  Uiso   1.00
H1028  H     0.93674   0.54069   0.80771   0.00000  Uiso   1.00
N1029  N     0.71426   0.50001   0.75001   0.00000  Uiso   1.00
N1030  N     0.95241   0.49999   0.74999   0.00000  Uiso   1.00
O1031  O     0.79512   0.56108   0.75000   0.00000  Uiso   1.00
O1032  O     0.87154   0.43892   0.75000   0.00000  Uiso   1.00
O1033  O     0.87157   0.56107   0.75000   0.00000  Uiso   1.00
O1034  O     0.79510   0.43893   0.75000   0.00000  Uiso   1.00
O1035  O     0.77328   0.50001   0.81612   0.00000  Uiso   1.00
O1036  O     0.89339   0.49999   0.68388   0.00000  Uiso   1.00
O1037  O     0.84972   0.50000   0.81612   0.00000  Uiso   1.00
O1038  O     0.81695   0.50000   0.68388   0.00000  Uiso   1.00
Zn1039 Zn    0.78229   0.50001   0.75000   0.00000  Uiso   1.00
Zn1040 Zn    0.88438   0.49999   0.75000   0.00000  Uiso   1.00
O1041  O     0.69736   0.46079   0.55830   0.00000  Uiso   1.00
C1042  C     0.69962   0.41983   0.57470   0.00000  Uiso   1.00
H1043  H     0.71168   0.42037   0.60471   0.00000  Uiso   1.00
H1044  H     0.72308   0.39888   0.54690   0.00000  Uiso   1.00
H1045  H     0.99669   0.40566   0.58711   0.00000  Uiso   1.00
O1046  O     0.96565   0.43673   0.94931   0.00000  Uiso   1.00
C1047  C     0.96285   0.39356   0.94225   0.00000  Uiso   1.00
H1048  H     0.94239   0.38690   0.91932   0.00000  Uiso   1.00
H1049  H     0.94673   0.37667   0.97582   0.00000  Uiso   1.00
H1050  H     0.99978   0.38140   0.92471   0.00000  Uiso   1.00
C1051  C     0.16668   0.91324   0.75002   0.00000  Uiso   1.00
C1052  C     0.16667   0.75343   0.74995   0.00000  Uiso   1.00
C1053  C     0.11062   0.81145   0.55204   0.00000  Uiso   1.00
C1054  C     0.22149   0.79288   0.95118   0.00000  Uiso   1.00
C1055  C     0.07648   0.80671   0.53168   0.00000  Uiso   1.00
C1056  C     0.25335   0.78483   0.97401   0.00000  Uiso   1.00
C1057  C     0.21042   0.97866   0.73675   0.00000  Uiso   1.00
C1058  C     0.12294   0.68802   0.76313   0.00000  Uiso   1.00
C1059  C     0.21042   0.68804   0.73667   0.00000  Uiso   1.00
C1060  C     0.12295   0.97865   0.76318   0.00000  Uiso   1.00
C1061  C     0.16668   0.70922   0.74990   0.00000  Uiso   1.00
C1062  C     0.16669   0.95746   0.75000   0.00000  Uiso   1.00
C1063  C     0.32152   0.81081   0.71797   0.00000  Uiso   1.00
C1064  C     0.01182   0.85586   0.78200   0.00000  Uiso   1.00
C1065  C     0.03585   0.81081   0.71799   0.00000  Uiso   1.00
C1066  C     0.29749   0.85586   0.78198   0.00000  Uiso   1.00
C1067  C     0.13677   0.83255   0.83781   0.00000  Uiso   1.00
C1068  C     0.19661   0.83233   0.66233   0.00000  Uiso   1.00
C1069  C     0.11933   0.82696   0.88809   0.00000  Uiso   1.00
C1070  C     0.21444   0.82373   0.61279   0.00000  Uiso   1.00
C1071  C     0.05585   0.81947   0.96312   0.00000  Uiso   1.00
C1072  C     0.27042   0.78866   0.54551   0.00000  Uiso   1.00
C1073  C     0.07036   0.82616   0.91541   0.00000  Uiso   1.00
C1074  C     0.25749   0.80237   0.59139   0.00000  Uiso   1.00
C1075  C     0.15337   0.82046   0.90856   0.00000  Uiso   1.00
C1076  C     0.18368   0.82987   0.58903   0.00000  Uiso   1.00
C1077  C     0.13957   0.81269   0.95581   0.00000  Uiso   1.00
C1078  C     0.19434   0.81312   0.54482   0.00000  Uiso   1.00
C1079  C     0.09009   0.81295   0.98374   0.00000  Uiso   1.00
C1080  C     0.24007   0.79590   0.52099   0.00000  Uiso   1.00
C1081  C     0.17403   0.80619   0.97639   0.00000  Uiso   1.00
C1082  C     0.15963   0.81194   0.52456   0.00000  Uiso   1.00
H1083  H     0.15068   0.84702   0.60579   0.00000  Uiso   1.00
H1084  H     0.19103   0.82304   0.88756   0.00000  Uiso   1.00
H1085  H     0.27966   0.79518   0.61120   0.00000  Uiso   1.00
H1086  H     0.04348   0.83124   0.90011   0.00000  Uiso   1.00
H1087  H     0.01815   0.82126   0.98390   0.00000  Uiso   1.00
H1088  H     0.30282   0.77081   0.52959   0.00000  Uiso   1.00
H1089  H     0.09847   0.80969   0.58948   0.00000  Uiso   1.00
H1090  H     0.23343   0.78546   0.91465   0.00000  Uiso   1.00
H1091  H     0.24447   0.96236   0.72609   0.00000  Uiso   1.00
H1092  H     0.08890   0.70432   0.77380   0.00000  Uiso   1.00
H1093  H     0.24446   0.70435   0.72596   0.00000  Uiso   1.00
H1094  H     0.08890   0.96234   0.77388   0.00000  Uiso   1.00
H1095  H     0.31342   0.79270   0.69220   0.00000  Uiso   1.00
H1096  H     0.01994   0.87400   0.80774   0.00000  Uiso   1.00
H1097  H     0.06328   0.79267   0.69223   0.00000  Uiso   1.00
H1098  H     0.27007   0.87402   0.80771   0.00000  Uiso   1.00
N1099  N     0.04759   0.83334   0.75001   0.00000  Uiso   1.00
N1100  N     0.28574   0.83332   0.74999   0.00000  Uiso   1.00
O1101  O     0.12846   0.89442   0.75000   0.00000  Uiso   1.00
O1102  O     0.20488   0.77225   0.75000   0.00000  Uiso   1.00
O1103  O     0.20490   0.89441   0.75000   0.00000  Uiso   1.00
O1104  O     0.12843   0.77226   0.75000   0.00000  Uiso   1.00
O1105  O     0.10661   0.83334   0.81612   0.00000  Uiso   1.00
O1106  O     0.22672   0.83333   0.68388   0.00000  Uiso   1.00
O1107  O     0.18305   0.83333   0.81612   0.00000  Uiso   1.00
O1108  O     0.15028   0.83334   0.68388   0.00000  Uiso   1.00
Zn1109 Zn    0.11562   0.83334   0.75000   0.00000  Uiso   1.00
Zn1110 Zn    0.21771   0.83333   0.75000   0.00000  Uiso   1.00
O1111  O     0.03069   0.79412   0.55830   0.00000  Uiso   1.00
C1112  C     0.03295   0.75316   0.57470   0.00000  Uiso   1.00
H1113  H     0.04502   0.75370   0.60471   0.00000  Uiso   1.00
H1114  H     0.05642   0.73222   0.54690   0.00000  Uiso   1.00
H1115  H     0.33002   0.73899   0.58711   0.00000  Uiso   1.00
O1116  O     0.29899   0.77006   0.94931   0.00000  Uiso   1.00
C1117  C     0.29618   0.72690   0.94225   0.00000  Uiso   1.00
H1118  H     0.27572   0.72023   0.91932   0.00000  Uiso   1.00
H1119  H     0.28006   0.71000   0.97582   0.00000  Uiso   1.00
H1120  H     0.33312   0.71473   0.92471   0.00000  Uiso   1.00
C1121  C     0.50001   0.91324   0.75002   0.00000  Uiso   1.00
C1122  C     0.50000   0.75343   0.74995   0.00000  Uiso   1.00
C1123  C     0.44395   0.81145   0.55204   0.00000  Uiso   1.00
C1124  C     0.55482   0.79288   0.95118   0.00000  Uiso   1.00
C1125  C     0.40981   0.80671   0.53168   0.00000  Uiso   1.00
C1126  C     0.58668   0.78483   0.97401   0.00000  Uiso   1.00
C1127  C     0.54376   0.97866   0.73675   0.00000  Uiso   1.00
C1128  C     0.45628   0.68802   0.76313   0.00000  Uiso   1.00
C1129  C     0.54376   0.68804   0.73667   0.00000  Uiso   1.00
C1130  C     0.45628   0.97865   0.76318   0.00000  Uiso   1.00
C1131  C     0.50001   0.70922   0.74990   0.00000  Uiso   1.00
C1132  C     0.50002   0.95746   0.75000   0.00000  Uiso   1.00
C1133  C     0.65485   0.81081   0.71797   0.00000  Uiso   1.00
C1134  C     0.34516   0.85586   0.78200   0.00000  Uiso   1.00
C1135  C     0.36918   0.81081   0.71799   0.00000  Uiso   1.00
C1136  C     0.63082   0.85586   0.78198   0.00000  Uiso   1.00
C1137  C     0.47010   0.83255   0.83781   0.00000  Uiso   1.00
C1138  C     0.52995   0.83233   0.66233   0.00000  Uiso   1.00
C1139  C     0.45267   0.82696   0.88809   0.00000  Uiso   1.00
C1140  C     0.54777   0.82373   0.61279   0.00000  Uiso   1.00
C1141  C     0.38918   0.81947   0.96312   0.00000  Uiso   1.00
C1142  C     0.60375   0.78866   0.54551   0.00000  Uiso   1.00
C1143  C     0.40369   0.82616   0.91541   0.00000  Uiso   1.00
C1144  C     0.59083   0.80237   0.59139   0.00000  Uiso   1.00
C1145  C     0.48670   0.82046   0.90856   0.00000  Uiso   1.00
C1146  C     0.51701   0.82987   0.58903   0.00000  Uiso   1.00
C1147  C     0.47290   0.81269   0.95581   0.00000  Uiso   1.00
C1148  C     0.52768   0.81312   0.54482   0.00000  Uiso   1.00
C1149  C     0.42342   0.81295   0.98374   0.00000  Uiso   1.00
C1150  C     0.57340   0.79590   0.52099   0.00000  Uiso   1.00
C1151  C     0.50736   0.80619   0.97639   0.00000  Uiso   1.00
C1152  C     0.49297   0.81194   0.52456   0.00000  Uiso   1.00
H1153  H     0.48401   0.84702   0.60579   0.00000  Uiso   1.00
H1154  H     0.52436   0.82304   0.88756   0.00000  Uiso   1.00
H1155  H     0.61299   0.79518   0.61120   0.00000  Uiso   1.00
H1156  H     0.37681   0.83124   0.90011   0.00000  Uiso   1.00
H1157  H     0.35148   0.82126   0.98390   0.00000  Uiso   1.00
H1158  H     0.63615   0.77081   0.52959   0.00000  Uiso   1.00
H1159  H     0.43180   0.80969   0.58948   0.00000  Uiso   1.00
H1160  H     0.56676   0.78546   0.91465   0.00000  Uiso   1.00
H1161  H     0.57780   0.96236   0.72609   0.00000  Uiso   1.00
H1162  H     0.42223   0.70432   0.77380   0.00000  Uiso   1.00
H1163  H     0.57780   0.70435   0.72596   0.00000  Uiso   1.00
H1164  H     0.42224   0.96234   0.77388   0.00000  Uiso   1.00
H1165  H     0.64675   0.79270   0.69220   0.00000  Uiso   1.00
H1166  H     0.35327   0.87400   0.80774   0.00000  Uiso   1.00
H1167  H     0.39661   0.79267   0.69223   0.00000  Uiso   1.00
H1168  H     0.60340   0.87402   0.80771   0.00000  Uiso   1.00
N1169  N     0.38093   0.83334   0.75001   0.00000  Uiso   1.00
N1170  N     0.61907   0.83332   0.74999   0.00000  Uiso   1.00
O1171  O     0.46179   0.89442   0.75000   0.00000  Uiso   1.00
O1172  O     0.53821   0.77225   0.75000   0.00000  Uiso   1.00
O1173  O     0.53823   0.89441   0.75000   0.00000  Uiso   1.00
O1174  O     0.46177   0.77226   0.75000   0.00000  Uiso   1.00
O1175  O     0.43994   0.83334   0.81612   0.00000  Uiso   1.00
O1176  O     0.56006   0.83333   0.68388   0.00000  Uiso   1.00
O1177  O     0.51639   0.83333   0.81612   0.00000  Uiso   1.00
O1178  O     0.48361   0.83334   0.68388   0.00000  Uiso   1.00
Zn1179 Zn    0.44896   0.83334   0.75000   0.00000  Uiso   1.00
Zn1180 Zn    0.55104   0.83333   0.75000   0.00000  Uiso   1.00
O1181  O     0.36402   0.79412   0.55830   0.00000  Uiso   1.00
C1182  C     0.36628   0.75316   0.57470   0.00000  Uiso   1.00
H1183  H     0.37835   0.75370   0.60471   0.00000  Uiso   1.00
H1184  H     0.38975   0.73222   0.54690   0.00000  Uiso   1.00
H1185  H     0.66335   0.73899   0.58711   0.00000  Uiso   1.00
O1186  O     0.63232   0.77006   0.94931   0.00000  Uiso   1.00
C1187  C     0.62951   0.72690   0.94225   0.00000  Uiso   1.00
H1188  H     0.60905   0.72023   0.91932   0.00000  Uiso   1.00
H1189  H     0.61340   0.71000   0.97582   0.00000  Uiso   1.00
H1190  H     0.66645   0.71473   0.92471   0.00000  Uiso   1.00
C1191  C     0.83335   0.91324   0.75002   0.00000  Uiso   1.00
C1192  C     0.83333   0.75343   0.74995   0.00000  Uiso   1.00
C1193  C     0.77729   0.81145   0.55204   0.00000  Uiso   1.00
C1194  C     0.88816   0.79288   0.95118   0.00000  Uiso   1.00
C1195  C     0.74314   0.80671   0.53168   0.00000  Uiso   1.00
C1196  C     0.92001   0.78483   0.97401   0.00000  Uiso   1.00
C1197  C     0.87709   0.97866   0.73675   0.00000  Uiso   1.00
C1198  C     0.78961   0.68802   0.76313   0.00000  Uiso   1.00
C1199  C     0.87709   0.68804   0.73667   0.00000  Uiso   1.00
C1200  C     0.78961   0.97865   0.76318   0.00000  Uiso   1.00
C1201  C     0.83334   0.70922   0.74990   0.00000  Uiso   1.00
C1202  C     0.83335   0.95746   0.75000   0.00000  Uiso   1.00
C1203  C     0.98818   0.81081   0.71797   0.00000  Uiso   1.00
C1204  C     0.67849   0.85586   0.78200   0.00000  Uiso   1.00
C1205  C     0.70252   0.81081   0.71799   0.00000  Uiso   1.00
C1206  C     0.96416   0.85586   0.78198   0.00000  Uiso   1.00
C1207  C     0.80343   0.83255   0.83781   0.00000  Uiso   1.00
C1208  C     0.86328   0.83233   0.66233   0.00000  Uiso   1.00
C1209  C     0.78600   0.82696   0.88809   0.00000  Uiso   1.00
C1210  C     0.88111   0.82373   0.61279   0.00000  Uiso   1.00
C1211  C     0.72251   0.81947   0.96312   0.00000  Uiso   1.00
C1212  C     0.93708   0.78866   0.54551   0.00000  Uiso   1.00
C1213  C     0.73702   0.82616   0.91541   0.00000  Uiso   1.00
C1214  C     0.92416   0.80237   0.59139   0.00000  Uiso   1.00
C1215  C     0.82004   0.82046   0.90856   0.00000  Uiso   1.00
C1216  C     0.85035   0.82987   0.58903   0.00000  Uiso   1.00
C1217  C     0.80624   0.81269   0.95581   0.00000  Uiso   1.00
C1218  C     0.86101   0.81312   0.54482   0.00000  Uiso   1.00
C1219  C     0.75675   0.81295   0.98374   0.00000  Uiso   1.00
C1220  C     0.90673   0.79590   0.52099   0.00000  Uiso   1.00
C1221  C     0.84070   0.80619   0.97639   0.00000  Uiso   1.00
C1222  C     0.82630   0.81194   0.52456   0.00000  Uiso   1.00
H1223  H     0.81735   0.84702   0.60579   0.00000  Uiso   1.00
H1224  H     0.85769   0.82304   0.88756   0.00000  Uiso   1.00
H1225  H     0.94632   0.79518   0.61120   0.00000  Uiso   1.00
H1226  H     0.71014   0.83124   0.90011   0.00000  Uiso   1.00
H1227  H     0.68481   0.82126   0.98390   0.00000  Uiso   1.00
H1228  H     0.96949   0.77081   0.52959   0.00000  Uiso   1.00
H1229  H     0.76513   0.80969   0.58948   0.00000  Uiso   1.00
H1230  H     0.90010   0.78546   0.91465   0.00000  Uiso   1.00
H1231  H     0.91113   0.96236   0.72609   0.00000  Uiso   1.00
H1232  H     0.75556   0.70432   0.77380   0.00000  Uiso   1.00
H1233  H     0.91113   0.70435   0.72596   0.00000  Uiso   1.00
H1234  H     0.75557   0.96234   0.77388   0.00000  Uiso   1.00
H1235  H     0.98008   0.79270   0.69220   0.00000  Uiso   1.00
H1236  H     0.68661   0.87400   0.80774   0.00000  Uiso   1.00
H1237  H     0.72994   0.79267   0.69223   0.00000  Uiso   1.00
H1238  H     0.93674   0.87402   0.80771   0.00000  Uiso   1.00
N1239  N     0.71426   0.83334   0.75001   0.00000  Uiso   1.00
N1240  N     0.95241   0.83332   0.74999   0.00000  Uiso   1.00
O1241  O     0.79512   0.89442   0.75000   0.00000  Uiso   1.00
O1242  O     0.87154   0.77225   0.75000   0.00000  Uiso   1.00
O1243  O     0.87157   0.89441   0.75000   0.00000  Uiso   1.00
O1244  O     0.79510   0.77226   0.75000   0.00000  Uiso   1.00
O1245  O     0.77328   0.83334   0.81612   0.00000  Uiso   1.00
O1246  O     0.89339   0.83333   0.68388   0.00000  Uiso   1.00
O1247  O     0.84972   0.83333   0.81612   0.00000  Uiso   1.00
O1248  O     0.81695   0.83334   0.68388   0.00000  Uiso   1.00
Zn1249 Zn    0.78229   0.83334   0.75000   0.00000  Uiso   1.00
Zn1250 Zn    0.88438   0.83333   0.75000   0.00000  Uiso   1.00
O1251  O     0.69736   0.79412   0.55830   0.00000  Uiso   1.00
C1252  C     0.69962   0.75316   0.57470   0.00000  Uiso   1.00
H1253  H     0.71168   0.75370   0.60471   0.00000  Uiso   1.00
H1254  H     0.72308   0.73222   0.54690   0.00000  Uiso   1.00
H1255  H     0.99669   0.73899   0.58711   0.00000  Uiso   1.00
O1256  O     0.96565   0.77006   0.94931   0.00000  Uiso   1.00
C1257  C     0.96285   0.72690   0.94225   0.00000  Uiso   1.00
H1258  H     0.94239   0.72023   0.91932   0.00000  Uiso   1.00
H1259  H     0.94673   0.71000   0.97582   0.00000  Uiso   1.00
H1260  H     0.99978   0.71473   0.92471   0.00000  Uiso   1.00
loop_
_geom_bond_atom_site_label_1
_geom_bond_atom_site_label_2
_geom_bond_distance
_geom_bond_site_symmetry_2
_ccdc_geom_bond_type
C1     O51     1.292   .     A
C1     C12     1.419   .     S
C1     O53     1.293   .     A
C2     O52     1.292   .     A
C2     C11     1.419   .     S
C2     O54     1.293   .     A
C3     C32     1.402   .     A
C3     C5      1.389   .     A
C3     H39     1.082   .     S
C4     C6      1.400   .     A
C4     C31     1.414   .     A
C4     H40     1.080   .     S
C5     O61     1.377   .     S
C5     C659    1.402   1_554 S
C6     O66     1.383   .     S
C6     C660    1.405   .     S
C7     C12     1.397   .     A
C7     H41     1.084   .     S
C7     C219    1.371   .     S
C8     C11     1.397   .     A
C8     H42     1.084   .     S
C8     C430    1.370   1_545 S
C9     C11     1.397   .     A
C9     H43     1.084   .     S
C9     C427    1.371   1_545 S
C10    C12     1.397   .     A
C10    H44     1.084   .     S
C10    C218    1.370   .     S
C13    H45     1.082   .     S
C13    N50     1.370   .     A
C13    C85     1.425   .     S
C14    H46     1.082   .     S
C14    N49     1.369   .     A
C14    C156    1.425   1_455 S
C15    N49     1.370   .     A
C15    H47     1.082   .     S
C15    C153    1.425   1_455 S
C16    H48     1.082   .     S
C16    N50     1.370   .     A
C16    C84     1.425   .     S
C17    O55     1.305   .     A
C17    C19     1.460   .     S
C17    O57     1.300   .     A
C18    O56     1.300   .     A
C18    C20     1.454   .     S
C18    O58     1.301   .     A
C19    C23     1.400   .     A
C19    C25     1.396   .     A
C20    C24     1.395   .     A
C20    C26     1.384   .     A
C21    C29     1.405   .     A
C21    C23     1.395   .     A
C21    H37     1.077   .     S
C22    C24     1.399   .     A
C22    C30     1.397   .     A
C22    H38     1.078   .     S
C23    H36     1.083   .     S
C24    H35     1.078   .     S
C25    H34     1.079   .     S
C25    C27     1.389   .     A
C26    H33     1.083   .     S
C26    C28     1.393   .     A
C27    C29     1.416   .     A
C27    C31     1.410   .     A
C28    C30     1.409   .     A
C28    C32     1.394   .     A
C29    C635    1.402   .     S
C30    C636    1.405   1_554 S
C31    C662    1.404   .     S
C32    C661    1.404   1_554 S
N49    Zn59    2.034   .     S
N50    Zn60    2.034   .     S
O51    Zn59    1.997   .     S
O52    Zn60    1.997   .     S
O53    Zn60    1.997   .     S
O54    Zn59    1.997   .     S
O55    Zn59    1.963   .     S
O56    Zn60    1.963   .     S
O57    Zn60    1.927   .     S
O58    Zn59    1.927   .     S
O61    C62     1.420   .     S
C62    H63     1.111   .     S
C62    H64     1.115   .     S
C62    H205    1.108   1_455 S
H65    C132    1.108   .     S
O66    C67     1.409   .     S
C67    H70     1.109   .     S
C67    H69     1.114   .     S
C67    H68     1.112   .     S
C71    O121    1.292   .     A
C71    C82     1.419   .     S
C71    O123    1.293   .     A
C72    O122    1.292   .     A
C72    C81     1.419   .     S
C72    O124    1.293   .     A
C73    C102    1.402   .     A
C73    C75     1.389   .     A
C73    H109    1.082   .     S
C74    C76     1.400   .     A
C74    C101    1.414   .     A
C74    H110    1.080   .     S
C75    O131    1.377   .     S
C75    C729    1.402   1_554 S
C76    O136    1.383   .     S
C76    C730    1.405   .     S
C77    C82     1.397   .     A
C77    H111    1.084   .     S
C77    C289    1.371   .     S
C78    C81     1.397   .     A
C78    H112    1.084   .     S
C78    C500    1.370   1_545 S
C79    C81     1.397   .     A
C79    H113    1.084   .     S
C79    C497    1.371   1_545 S
C80    C82     1.397   .     A
C80    H114    1.084   .     S
C80    C288    1.370   .     S
C83    H115    1.082   .     S
C83    N120    1.370   .     A
C83    C155    1.425   .     S
C84    H116    1.082   .     S
C84    N119    1.369   .     A
C85    N119    1.370   .     A
C85    H117    1.082   .     S
C86    H118    1.082   .     S
C86    N120    1.370   .     A
C86    C154    1.425   .     S
C87    O125    1.305   .     A
C87    C89     1.460   .     S
C87    O127    1.300   .     A
C88    O126    1.300   .     A
C88    C90     1.454   .     S
C88    O128    1.301   .     A
C89    C93     1.400   .     A
C89    C95     1.396   .     A
C90    C94     1.395   .     A
C90    C96     1.384   .     A
C91    C99     1.405   .     A
C91    C93     1.395   .     A
C91    H107    1.077   .     S
C92    C94     1.399   .     A
C92    C100    1.397   .     A
C92    H108    1.078   .     S
C93    H106    1.083   .     S
C94    H105    1.078   .     S
C95    H104    1.079   .     S
C95    C97     1.389   .     A
C96    H103    1.083   .     S
C96    C98     1.393   .     A
C97    C99     1.416   .     A
C97    C101    1.410   .     A
C98    C100    1.409   .     A
C98    C102    1.394   .     A
C99    C705    1.402   .     S
C100   C706    1.405   1_554 S
C101   C732    1.404   .     S
C102   C731    1.404   1_554 S
N119   Zn129   2.034   .     S
N120   Zn130   2.034   .     S
O121   Zn129   1.997   .     S
O122   Zn130   1.997   .     S
O123   Zn130   1.997   .     S
O124   Zn129   1.997   .     S
O125   Zn129   1.963   .     S
O126   Zn130   1.963   .     S
O127   Zn130   1.927   .     S
O128   Zn129   1.927   .     S
O131   C132    1.420   .     S
C132   H133    1.111   .     S
C132   H134    1.115   .     S
H135   C202    1.108   .     S
O136   C137    1.409   .     S
C137   H140    1.109   .     S
C137   H139    1.114   .     S
C137   H138    1.112   .     S
C141   O191    1.292   .     A
C141   C152    1.419   .     S
C141   O193    1.293   .     A
C142   O192    1.292   .     A
C142   C151    1.419   .     S
C142   O194    1.293   .     A
C143   C172    1.402   .     A
C143   C145    1.389   .     A
C143   H179    1.082   .     S
C144   C146    1.400   .     A
C144   C171    1.414   .     A
C144   H180    1.080   .     S
C145   O201    1.377   .     S
C145   C799    1.402   1_554 S
C146   O206    1.383   .     S
C146   C800    1.405   .     S
C147   C152    1.397   .     A
C147   H181    1.084   .     S
C147   C359    1.371   .     S
C148   C151    1.397   .     A
C148   H182    1.084   .     S
C148   C570    1.370   1_545 S
C149   C151    1.397   .     A
C149   H183    1.084   .     S
C149   C567    1.371   1_545 S
C150   C152    1.397   .     A
C150   H184    1.084   .     S
C150   C358    1.370   .     S
C153   H185    1.082   .     S
C153   N190    1.370   .     A
C153   C15     1.425   1_655 S
C154   H186    1.082   .     S
C154   N189    1.369   .     A
C155   N189    1.370   .     A
C155   H187    1.082   .     S
C156   H188    1.082   .     S
C156   N190    1.370   .     A
C156   C14     1.425   1_655 S
C157   O195    1.305   .     A
C157   C159    1.460   .     S
C157   O197    1.300   .     A
C158   O196    1.300   .     A
C158   C160    1.454   .     S
C158   O198    1.301   .     A
C159   C163    1.400   .     A
C159   C165    1.396   .     A
C160   C164    1.395   .     A
C160   C166    1.384   .     A
C161   C169    1.405   .     A
C161   C163    1.395   .     A
C161   H177    1.077   .     S
C162   C164    1.399   .     A
C162   C170    1.397   .     A
C162   H178    1.078   .     S
C163   H176    1.083   .     S
C164   H175    1.078   .     S
C165   H174    1.079   .     S
C165   C167    1.389   .     A
C166   H173    1.083   .     S
C166   C168    1.393   .     A
C167   C169    1.416   .     A
C167   C171    1.410   .     A
C168   C170    1.409   .     A
C168   C172    1.394   .     A
C169   C775    1.402   .     S
C170   C776    1.405   1_554 S
C171   C802    1.404   .     S
C172   C801    1.404   1_554 S
N189   Zn199   2.034   .     S
N190   Zn200   2.034   .     S
O191   Zn199   1.997   .     S
O192   Zn200   1.997   .     S
O193   Zn200   1.997   .     S
O194   Zn199   1.997   .     S
O195   Zn199   1.963   .     S
O196   Zn200   1.963   .     S
O197   Zn200   1.927   .     S
O198   Zn199   1.927   .     S
O201   C202    1.420   .     S
C202   H203    1.111   .     S
C202   H204    1.115   .     S
H205   C62     1.108   1_655 S
O206   C207    1.409   .     S
C207   H210    1.109   .     S
C207   H209    1.114   .     S
C207   H208    1.112   .     S
C211   O261    1.292   .     A
C211   C222    1.419   .     S
C211   O263    1.293   .     A
C212   O262    1.292   .     A
C212   C221    1.419   .     S
C212   O264    1.293   .     A
C213   C242    1.402   .     A
C213   C215    1.389   .     A
C213   H249    1.082   .     S
C214   C216    1.400   .     A
C214   C241    1.414   .     A
C214   H250    1.080   .     S
C215   O271    1.377   .     S
C215   C869    1.402   1_554 S
C216   O276    1.383   .     S
C216   C870    1.405   .     S
C217   C222    1.397   .     A
C217   H251    1.084   .     S
C217   C429    1.371   .     S
C218   C221    1.397   .     A
C218   H252    1.084   .     S
C219   C221    1.397   .     A
C219   H253    1.084   .     S
C220   C222    1.397   .     A
C220   H254    1.084   .     S
C220   C428    1.370   .     S
C223   H255    1.082   .     S
C223   N260    1.370   .     A
C223   C295    1.425   .     S
C224   H256    1.082   .     S
C224   N259    1.369   .     A
C224   C366    1.425   1_455 S
C225   N259    1.370   .     A
C225   H257    1.082   .     S
C225   C363    1.425   1_455 S
C226   H258    1.082   .     S
C226   N260    1.370   .     A
C226   C294    1.425   .     S
C227   O265    1.305   .     A
C227   C229    1.460   .     S
C227   O267    1.300   .     A
C228   O266    1.300   .     A
C228   C230    1.454   .     S
C228   O268    1.301   .     A
C229   C233    1.400   .     A
C229   C235    1.396   .     A
C230   C234    1.395   .     A
C230   C236    1.384   .     A
C231   C239    1.405   .     A
C231   C233    1.395   .     A
C231   H247    1.077   .     S
C232   C234    1.399   .     A
C232   C240    1.397   .     A
C232   H248    1.078   .     S
C233   H246    1.083   .     S
C234   H245    1.078   .     S
C235   H244    1.079   .     S
C235   C237    1.389   .     A
C236   H243    1.083   .     S
C236   C238    1.393   .     A
C237   C239    1.416   .     A
C237   C241    1.410   .     A
C238   C240    1.409   .     A
C238   C242    1.394   .     A
C239   C845    1.402   .     S
C240   C846    1.405   1_554 S
C241   C872    1.404   .     S
C242   C871    1.404   1_554 S
N259   Zn269   2.034   .     S
N260   Zn270   2.034   .     S
O261   Zn269   1.997   .     S
O262   Zn270   1.997   .     S
O263   Zn270   1.997   .     S
O264   Zn269   1.997   .     S
O265   Zn269   1.963   .     S
O266   Zn270   1.963   .     S
O267   Zn270   1.927   .     S
O268   Zn269   1.927   .     S
O271   C272    1.420   .     S
C272   H273    1.111   .     S
C272   H274    1.115   .     S
C272   H415    1.108   1_455 S
H275   C342    1.108   .     S
O276   C277    1.409   .     S
C277   H280    1.109   .     S
C277   H279    1.114   .     S
C277   H278    1.112   .     S
C281   O331    1.292   .     A
C281   C292    1.419   .     S
C281   O333    1.293   .     A
C282   O332    1.292   .     A
C282   C291    1.419   .     S
C282   O334    1.293   .     A
C283   C312    1.402   .     A
C283   C285    1.389   .     A
C283   H319    1.082   .     S
C284   C286    1.400   .     A
C284   C311    1.414   .     A
C284   H320    1.080   .     S
C285   O341    1.377   .     S
C285   C939    1.402   1_554 S
C286   O346    1.383   .     S
C286   C940    1.405   .     S
C287   C292    1.397   .     A
C287   H321    1.084   .     S
C287   C499    1.371   .     S
C288   C291    1.397   .     A
C288   H322    1.084   .     S
C289   C291    1.397   .     A
C289   H323    1.084   .     S
C290   C292    1.397   .     A
C290   H324    1.084   .     S
C290   C498    1.370   .     S
C293   H325    1.082   .     S
C293   N330    1.370   .     A
C293   C365    1.425   .     S
C294   H326    1.082   .     S
C294   N329    1.369   .     A
C295   N329    1.370   .     A
C295   H327    1.082   .     S
C296   H328    1.082   .     S
C296   N330    1.370   .     A
C296   C364    1.425   .     S
C297   O335    1.305   .     A
C297   C299    1.460   .     S
C297   O337    1.300   .     A
C298   O336    1.300   .     A
C298   C300    1.454   .     S
C298   O338    1.301   .     A
C299   C303    1.400   .     A
C299   C305    1.396   .     A
C300   C304    1.395   .     A
C300   C306    1.384   .     A
C301   C309    1.405   .     A
C301   C303    1.395   .     A
C301   H317    1.077   .     S
C302   C304    1.399   .     A
C302   C310    1.397   .     A
C302   H318    1.078   .     S
C303   H316    1.083   .     S
C304   H315    1.078   .     S
C305   H314    1.079   .     S
C305   C307    1.389   .     A
C306   H313    1.083   .     S
C306   C308    1.393   .     A
C307   C309    1.416   .     A
C307   C311    1.410   .     A
C308   C310    1.409   .     A
C308   C312    1.394   .     A
C309   C915    1.402   .     S
C310   C916    1.405   1_554 S
C311   C942    1.404   .     S
C312   C941    1.404   1_554 S
N329   Zn339   2.034   .     S
N330   Zn340   2.034   .     S
O331   Zn339   1.997   .     S
O332   Zn340   1.997   .     S
O333   Zn340   1.997   .     S
O334   Zn339   1.997   .     S
O335   Zn339   1.963   .     S
O336   Zn340   1.963   .     S
O337   Zn340   1.927   .     S
O338   Zn339   1.927   .     S
O341   C342    1.420   .     S
C342   H343    1.111   .     S
C342   H344    1.115   .     S
H345   C412    1.108   .     S
O346   C347    1.409   .     S
C347   H350    1.109   .     S
C347   H349    1.114   .     S
C347   H348    1.112   .     S
C351   O401    1.292   .     A
C351   C362    1.419   .     S
C351   O403    1.293   .     A
C352   O402    1.292   .     A
C352   C361    1.419   .     S
C352   O404    1.293   .     A
C353   C382    1.402   .     A
C353   C355    1.389   .     A
C353   H389    1.082   .     S
C354   C356    1.400   .     A
C354   C381    1.414   .     A
C354   H390    1.080   .     S
C355   O411    1.377   .     S
C355   C1009   1.402   1_554 S
C356   O416    1.383   .     S
C356   C1010   1.405   .     S
C357   C362    1.397   .     A
C357   H391    1.084   .     S
C357   C569    1.371   .     S
C358   C361    1.397   .     A
C358   H392    1.084   .     S
C359   C361    1.397   .     A
C359   H393    1.084   .     S
C360   C362    1.397   .     A
C360   H394    1.084   .     S
C360   C568    1.370   .     S
C363   H395    1.082   .     S
C363   N400    1.370   .     A
C363   C225    1.425   1_655 S
C364   H396    1.082   .     S
C364   N399    1.369   .     A
C365   N399    1.370   .     A
C365   H397    1.082   .     S
C366   H398    1.082   .     S
C366   N400    1.370   .     A
C366   C224    1.425   1_655 S
C367   O405    1.305   .     A
C367   C369    1.460   .     S
C367   O407    1.300   .     A
C368   O406    1.300   .     A
C368   C370    1.454   .     S
C368   O408    1.301   .     A
C369   C373    1.400   .     A
C369   C375    1.396   .     A
C370   C374    1.395   .     A
C370   C376    1.384   .     A
C371   C379    1.405   .     A
C371   C373    1.395   .     A
C371   H387    1.077   .     S
C372   C374    1.399   .     A
C372   C380    1.397   .     A
C372   H388    1.078   .     S
C373   H386    1.083   .     S
C374   H385    1.078   .     S
C375   H384    1.079   .     S
C375   C377    1.389   .     A
C376   H383    1.083   .     S
C376   C378    1.393   .     A
C377   C379    1.416   .     A
C377   C381    1.410   .     A
C378   C380    1.409   .     A
C378   C382    1.394   .     A
C379   C985    1.402   .     S
C380   C986    1.405   1_554 S
C381   C1012   1.404   .     S
C382   C1011   1.404   1_554 S
N399   Zn409   2.034   .     S
N400   Zn410   2.034   .     S
O401   Zn409   1.997   .     S
O402   Zn410   1.997   .     S
O403   Zn410   1.997   .     S
O404   Zn409   1.997   .     S
O405   Zn409   1.963   .     S
O406   Zn410   1.963   .     S
O407   Zn410   1.927   .     S
O408   Zn409   1.927   .     S
O411   C412    1.420   .     S
C412   H413    1.111   .     S
C412   H414    1.115   .     S
H415   C272    1.108   1_655 S
O416   C417    1.409   .     S
C417   H420    1.109   .     S
C417   H419    1.114   .     S
C417   H418    1.112   .     S
C421   O471    1.292   .     A
C421   C432    1.419   .     S
C421   O473    1.293   .     A
C422   O472    1.292   .     A
C422   C431    1.419   .     S
C422   O474    1.293   .     A
C423   C452    1.402   .     A
C423   C425    1.389   .     A
C423   H459    1.082   .     S
C424   C426    1.400   .     A
C424   C451    1.414   .     A
C424   H460    1.080   .     S
C425   O481    1.377   .     S
C425   C1079   1.402   1_554 S
C426   O486    1.383   .     S
C426   C1080   1.405   .     S
C427   C432    1.397   .     A
C427   H461    1.084   .     S
C427   C9      1.371   1_565 S
C428   C431    1.397   .     A
C428   H462    1.084   .     S
C429   C431    1.397   .     A
C429   H463    1.084   .     S
C430   C432    1.397   .     A
C430   H464    1.084   .     S
C430   C8      1.370   1_565 S
C433   H465    1.082   .     S
C433   N470    1.370   .     A
C433   C505    1.425   .     S
C434   H466    1.082   .     S
C434   N469    1.369   .     A
C434   C576    1.425   1_455 S
C435   N469    1.370   .     A
C435   H467    1.082   .     S
C435   C573    1.425   1_455 S
C436   H468    1.082   .     S
C436   N470    1.370   .     A
C436   C504    1.425   .     S
C437   O475    1.305   .     A
C437   C439    1.460   .     S
C437   O477    1.300   .     A
C438   O476    1.300   .     A
C438   C440    1.454   .     S
C438   O478    1.301   .     A
C439   C443    1.400   .     A
C439   C445    1.396   .     A
C440   C444    1.395   .     A
C440   C446    1.384   .     A
C441   C449    1.405   .     A
C441   C443    1.395   .     A
C441   H457    1.077   .     S
C442   C444    1.399   .     A
C442   C450    1.397   .     A
C442   H458    1.078   .     S
C443   H456    1.083   .     S
C444   H455    1.078   .     S
C445   H454    1.079   .     S
C445   C447    1.389   .     A
C446   H453    1.083   .     S
C446   C448    1.393   .     A
C447   C449    1.416   .     A
C447   C451    1.410   .     A
C448   C450    1.409   .     A
C448   C452    1.394   .     A
C449   C1055   1.402   .     S
C450   C1056   1.405   1_554 S
C451   C1082   1.404   .     S
C452   C1081   1.404   1_554 S
N469   Zn479   2.034   .     S
N470   Zn480   2.034   .     S
O471   Zn479   1.997   .     S
O472   Zn480   1.997   .     S
O473   Zn480   1.997   .     S
O474   Zn479   1.997   .     S
O475   Zn479   1.963   .     S
O476   Zn480   1.963   .     S
O477   Zn480   1.927   .     S
O478   Zn479   1.927   .     S
O481   C482    1.420   .     S
C482   H483    1.111   .     S
C482   H484    1.115   .     S
C482   H625    1.108   1_455 S
H485   C552    1.108   .     S
O486   C487    1.409   .     S
C487   H490    1.109   .     S
C487   H489    1.114   .     S
C487   H488    1.112   .     S
C491   O541    1.292   .     A
C491   C502    1.419   .     S
C491   O543    1.293   .     A
C492   O542    1.292   .     A
C492   C501    1.419   .     S
C492   O544    1.293   .     A
C493   C522    1.402   .     A
C493   C495    1.389   .     A
C493   H529    1.082   .     S
C494   C496    1.400   .     A
C494   C521    1.414   .     A
C494   H530    1.080   .     S
C495   O551    1.377   .     S
C495   C1149   1.402   1_554 S
C496   O556    1.383   .     S
C496   C1150   1.405   .     S
C497   C502    1.397   .     A
C497   H531    1.084   .     S
C497   C79     1.371   1_565 S
C498   C501    1.397   .     A
C498   H532    1.084   .     S
C499   C501    1.397   .     A
C499   H533    1.084   .     S
C500   C502    1.397   .     A
C500   H534    1.084   .     S
C500   C78     1.370   1_565 S
C503   H535    1.082   .     S
C503   N540    1.370   .     A
C503   C575    1.425   .     S
C504   H536    1.082   .     S
C504   N539    1.369   .     A
C505   N539    1.370   .     A
C505   H537    1.082   .     S
C506   H538    1.082   .     S
C506   N540    1.370   .     A
C506   C574    1.425   .     S
C507   O545    1.305   .     A
C507   C509    1.460   .     S
C507   O547    1.300   .     A
C508   O546    1.300   .     A
C508   C510    1.454   .     S
C508   O548    1.301   .     A
C509   C513    1.400   .     A
C509   C515    1.396   .     A
C510   C514    1.395   .     A
C510   C516    1.384   .     A
C511   C519    1.405   .     A
C511   C513    1.395   .     A
C511   H527    1.077   .     S
C512   C514    1.399   .     A
C512   C520    1.397   .     A
C512   H528    1.078   .     S
C513   H526    1.083   .     S
C514   H525    1.078   .     S
C515   H524    1.079   .     S
C515   C517    1.389   .     A
C516   H523    1.083   .     S
C516   C518    1.393   .     A
C517   C519    1.416   .     A
C517   C521    1.410   .     A
C518   C520    1.409   .     A
C518   C522    1.394   .     A
C519   C1125   1.402   .     S
C520   C1126   1.405   1_554 S
C521   C1152   1.404   .     S
C522   C1151   1.404   1_554 S
N539   Zn549   2.034   .     S
N540   Zn550   2.034   .     S
O541   Zn549   1.997   .     S
O542   Zn550   1.997   .     S
O543   Zn550   1.997   .     S
O544   Zn549   1.997   .     S
O545   Zn549   1.963   .     S
O546   Zn550   1.963   .     S
O547   Zn550   1.927   .     S
O548   Zn549   1.927   .     S
O551   C552    1.420   .     S
C552   H553    1.111   .     S
C552   H554    1.115   .     S
H555   C622    1.108   .     S
O556   C557    1.409   .     S
C557   H560    1.109   .     S
C557   H559    1.114   .     S
C557   H558    1.112   .     S
C561   O611    1.292   .     A
C561   C572    1.419   .     S
C561   O613    1.293   .     A
C562   O612    1.292   .     A
C562   C571    1.419   .     S
C562   O614    1.293   .     A
C563   C592    1.402   .     A
C563   C565    1.389   .     A
C563   H599    1.082   .     S
C564   C566    1.400   .     A
C564   C591    1.414   .     A
C564   H600    1.080   .     S
C565   O621    1.377   .     S
C565   C1219   1.402   1_554 S
C566   O626    1.383   .     S
C566   C1220   1.405   .     S
C567   C572    1.397   .     A
C567   H601    1.084   .     S
C567   C149    1.371   1_565 S
C568   C571    1.397   .     A
C568   H602    1.084   .     S
C569   C571    1.397   .     A
C569   H603    1.084   .     S
C570   C572    1.397   .     A
C570   H604    1.084   .     S
C570   C148    1.370   1_565 S
C573   H605    1.082   .     S
C573   N610    1.370   .     A
C573   C435    1.425   1_655 S
C574   H606    1.082   .     S
C574   N609    1.369   .     A
C575   N609    1.370   .     A
C575   H607    1.082   .     S
C576   H608    1.082   .     S
C576   N610    1.370   .     A
C576   C434    1.425   1_655 S
C577   O615    1.305   .     A
C577   C579    1.460   .     S
C577   O617    1.300   .     A
C578   O616    1.300   .     A
C578   C580    1.454   .     S
C578   O618    1.301   .     A
C579   C583    1.400   .     A
C579   C585    1.396   .     A
C580   C584    1.395   .     A
C580   C586    1.384   .     A
C581   C589    1.405   .     A
C581   C583    1.395   .     A
C581   H597    1.077   .     S
C582   C584    1.399   .     A
C582   C590    1.397   .     A
C582   H598    1.078   .     S
C583   H596    1.083   .     S
C584   H595    1.078   .     S
C585   H594    1.079   .     S
C585   C587    1.389   .     A
C586   H593    1.083   .     S
C586   C588    1.393   .     A
C587   C589    1.416   .     A
C587   C591    1.410   .     A
C588   C590    1.409   .     A
C588   C592    1.394   .     A
C589   C1195   1.402   .     S
C590   C1196   1.405   1_554 S
C591   C1222   1.404   .     S
C592   C1221   1.404   1_554 S
N609   Zn619   2.034   .     S
N610   Zn620   2.034   .     S
O611   Zn619   1.997   .     S
O612   Zn620   1.997   .     S
O613   Zn620   1.997   .     S
O614   Zn619   1.997   .     S
O615   Zn619   1.963   .     S
O616   Zn620   1.963   .     S
O617   Zn620   1.927   .     S
O618   Zn619   1.927   .     S
O621   C622    1.420   .     S
C622   H623    1.111   .     S
C622   H624    1.115   .     S
H625   C482    1.108   1_655 S
O626   C627    1.409   .     S
C627   H630    1.109   .     S
C627   H629    1.114   .     S
C627   H628    1.112   .     S
C631   O681    1.292   .     A
C631   C642    1.419   .     S
C631   O683    1.293   .     A
C632   O682    1.292   .     A
C632   C641    1.419   .     S
C632   O684    1.293   .     A
C633   C662    1.402   .     A
C633   C635    1.389   .     A
C633   H669    1.082   .     S
C634   C636    1.400   .     A
C634   C661    1.414   .     A
C634   H670    1.080   .     S
C635   O691    1.377   .     S
C636   O696    1.383   .     S
C636   C30     1.405   1_556 S
C637   C642    1.397   .     A
C637   H671    1.084   .     S
C637   C849    1.371   .     S
C638   C641    1.397   .     A
C638   H672    1.084   .     S
C638   C1060   1.370   1_545 S
C639   C641    1.397   .     A
C639   H673    1.084   .     S
C639   C1057   1.371   1_545 S
C640   C642    1.397   .     A
C640   H674    1.084   .     S
C640   C848    1.370   .     S
C643   H675    1.082   .     S
C643   N680    1.370   .     A
C643   C715    1.425   .     S
C644   H676    1.082   .     S
C644   N679    1.369   .     A
C644   C786    1.425   1_455 S
C645   N679    1.370   .     A
C645   H677    1.082   .     S
C645   C783    1.425   1_455 S
C646   H678    1.082   .     S
C646   N680    1.370   .     A
C646   C714    1.425   .     S
C647   O685    1.305   .     A
C647   C649    1.460   .     S
C647   O687    1.300   .     A
C648   O686    1.300   .     A
C648   C650    1.454   .     S
C648   O688    1.301   .     A
C649   C653    1.400   .     A
C649   C655    1.396   .     A
C650   C654    1.395   .     A
C650   C656    1.384   .     A
C651   C659    1.405   .     A
C651   C653    1.395   .     A
C651   H667    1.077   .     S
C652   C654    1.399   .     A
C652   C660    1.397   .     A
C652   H668    1.078   .     S
C653   H666    1.083   .     S
C654   H665    1.078   .     S
C655   H664    1.079   .     S
C655   C657    1.389   .     A
C656   H663    1.083   .     S
C656   C658    1.393   .     A
C657   C659    1.416   .     A
C657   C661    1.410   .     A
C658   C660    1.409   .     A
C658   C662    1.394   .     A
C659   C5      1.402   1_556 S
C661   C32     1.404   1_556 S
N679   Zn689   2.034   .     S
N680   Zn690   2.034   .     S
O681   Zn689   1.997   .     S
O682   Zn690   1.997   .     S
O683   Zn690   1.997   .     S
O684   Zn689   1.997   .     S
O685   Zn689   1.963   .     S
O686   Zn690   1.963   .     S
O687   Zn690   1.927   .     S
O688   Zn689   1.927   .     S
O691   C692    1.420   .     S
C692   H693    1.111   .     S
C692   H694    1.115   .     S
C692   H835    1.108   1_455 S
H695   C762    1.108   .     S
O696   C697    1.409   .     S
C697   H700    1.109   .     S
C697   H699    1.114   .     S
C697   H698    1.112   .     S
C701   O751    1.292   .     A
C701   C712    1.419   .     S
C701   O753    1.293   .     A
C702   O752    1.292   .     A
C702   C711    1.419   .     S
C702   O754    1.293   .     A
C703   C732    1.402   .     A
C703   C705    1.389   .     A
C703   H739    1.082   .     S
C704   C706    1.400   .     A
C704   C731    1.414   .     A
C704   H740    1.080   .     S
C705   O761    1.377   .     S
C706   O766    1.383   .     S
C706   C100    1.405   1_556 S
C707   C712    1.397   .     A
C707   H741    1.084   .     S
C707   C919    1.371   .     S
C708   C711    1.397   .     A
C708   H742    1.084   .     S
C708   C1130   1.370   1_545 S
C709   C711    1.397   .     A
C709   H743    1.084   .     S
C709   C1127   1.371   1_545 S
C710   C712    1.397   .     A
C710   H744    1.084   .     S
C710   C918    1.370   .     S
C713   H745    1.082   .     S
C713   N750    1.370   .     A
C713   C785    1.425   .     S
C714   H746    1.082   .     S
C714   N749    1.369   .     A
C715   N749    1.370   .     A
C715   H747    1.082   .     S
C716   H748    1.082   .     S
C716   N750    1.370   .     A
C716   C784    1.425   .     S
C717   O755    1.305   .     A
C717   C719    1.460   .     S
C717   O757    1.300   .     A
C718   O756    1.300   .     A
C718   C720    1.454   .     S
C718   O758    1.301   .     A
C719   C723    1.400   .     A
C719   C725    1.396   .     A
C720   C724    1.395   .     A
C720   C726    1.384   .     A
C721   C729    1.405   .     A
C721   C723    1.395   .     A
C721   H737    1.077   .     S
C722   C724    1.399   .     A
C722   C730    1.397   .     A
C722   H738    1.078   .     S
C723   H736    1.083   .     S
C724   H735    1.078   .     S
C725   H734    1.079   .     S
C725   C727    1.389   .     A
C726   H733    1.083   .     S
C726   C728    1.393   .     A
C727   C729    1.416   .     A
C727   C731    1.410   .     A
C728   C730    1.409   .     A
C728   C732    1.394   .     A
C729   C75     1.402   1_556 S
C731   C102    1.404   1_556 S
N749   Zn759   2.034   .     S
N750   Zn760   2.034   .     S
O751   Zn759   1.997   .     S
O752   Zn760   1.997   .     S
O753   Zn760   1.997   .     S
O754   Zn759   1.997   .     S
O755   Zn759   1.963   .     S
O756   Zn760   1.963   .     S
O757   Zn760   1.927   .     S
O758   Zn759   1.927   .     S
O761   C762    1.420   .     S
C762   H763    1.111   .     S
C762   H764    1.115   .     S
H765   C832    1.108   .     S
O766   C767    1.409   .     S
C767   H770    1.109   .     S
C767   H769    1.114   .     S
C767   H768    1.112   .     S
C771   O821    1.292   .     A
C771   C782    1.419   .     S
C771   O823    1.293   .     A
C772   O822    1.292   .     A
C772   C781    1.419   .     S
C772   O824    1.293   .     A
C773   C802    1.402   .     A
C773   C775    1.389   .     A
C773   H809    1.082   .     S
C774   C776    1.400   .     A
C774   C801    1.414   .     A
C774   H810    1.080   .     S
C775   O831    1.377   .     S
C776   O836    1.383   .     S
C776   C170    1.405   1_556 S
C777   C782    1.397   .     A
C777   H811    1.084   .     S
C777   C989    1.371   .     S
C778   C781    1.397   .     A
C778   H812    1.084   .     S
C778   C1200   1.370   1_545 S
C779   C781    1.397   .     A
C779   H813    1.084   .     S
C779   C1197   1.371   1_545 S
C780   C782    1.397   .     A
C780   H814    1.084   .     S
C780   C988    1.370   .     S
C783   H815    1.082   .     S
C783   N820    1.370   .     A
C783   C645    1.425   1_655 S
C784   H816    1.082   .     S
C784   N819    1.369   .     A
C785   N819    1.370   .     A
C785   H817    1.082   .     S
C786   H818    1.082   .     S
C786   N820    1.370   .     A
C786   C644    1.425   1_655 S
C787   O825    1.305   .     A
C787   C789    1.460   .     S
C787   O827    1.300   .     A
C788   O826    1.300   .     A
C788   C790    1.454   .     S
C788   O828    1.301   .     A
C789   C793    1.400   .     A
C789   C795    1.396   .     A
C790   C794    1.395   .     A
C790   C796    1.384   .     A
C791   C799    1.405   .     A
C791   C793    1.395   .     A
C791   H807    1.077   .     S
C792   C794    1.399   .     A
C792   C800    1.397   .     A
C792   H808    1.078   .     S
C793   H806    1.083   .     S
C794   H805    1.078   .     S
C795   H804    1.079   .     S
C795   C797    1.389   .     A
C796   H803    1.083   .     S
C796   C798    1.393   .     A
C797   C799    1.416   .     A
C797   C801    1.410   .     A
C798   C800    1.409   .     A
C798   C802    1.394   .     A
C799   C145    1.402   1_556 S
C801   C172    1.404   1_556 S
N819   Zn829   2.034   .     S
N820   Zn830   2.034   .     S
O821   Zn829   1.997   .     S
O822   Zn830   1.997   .     S
O823   Zn830   1.997   .     S
O824   Zn829   1.997   .     S
O825   Zn829   1.963   .     S
O826   Zn830   1.963   .     S
O827   Zn830   1.927   .     S
O828   Zn829   1.927   .     S
O831   C832    1.420   .     S
C832   H833    1.111   .     S
C832   H834    1.115   .     S
H835   C692    1.108   1_655 S
O836   C837    1.409   .     S
C837   H840    1.109   .     S
C837   H839    1.114   .     S
C837   H838    1.112   .     S
C841   O891    1.292   .     A
C841   C852    1.419   .     S
C841   O893    1.293   .     A
C842   O892    1.292   .     A
C842   C851    1.419   .     S
C842   O894    1.293   .     A
C843   C872    1.402   .     A
C843   C845    1.389   .     A
C843   H879    1.082   .     S
C844   C846    1.400   .     A
C844   C871    1.414   .     A
C844   H880    1.080   .     S
C845   O901    1.377   .     S
C846   O906    1.383   .     S
C846   C240    1.405   1_556 S
C847   C852    1.397   .     A
C847   H881    1.084   .     S
C847   C1059   1.371   .     S
C848   C851    1.397   .     A
C848   H882    1.084   .     S
C849   C851    1.397   .     A
C849   H883    1.084   .     S
C850   C852    1.397   .     A
C850   H884    1.084   .     S
C850   C1058   1.370   .     S
C853   H885    1.082   .     S
C853   N890    1.370   .     A
C853   C925    1.425   .     S
C854   H886    1.082   .     S
C854   N889    1.369   .     A
C854   C996    1.425   1_455 S
C855   N889    1.370   .     A
C855   H887    1.082   .     S
C855   C993    1.425   1_455 S
C856   H888    1.082   .     S
C856   N890    1.370   .     A
C856   C924    1.425   .     S
C857   O895    1.305   .     A
C857   C859    1.460   .     S
C857   O897    1.300   .     A
C858   O896    1.300   .     A
C858   C860    1.454   .     S
C858   O898    1.301   .     A
C859   C863    1.400   .     A
C859   C865    1.396   .     A
C860   C864    1.395   .     A
C860   C866    1.384   .     A
C861   C869    1.405   .     A
C861   C863    1.395   .     A
C861   H877    1.077   .     S
C862   C864    1.399   .     A
C862   C870    1.397   .     A
C862   H878    1.078   .     S
C863   H876    1.083   .     S
C864   H875    1.078   .     S
C865   H874    1.079   .     S
C865   C867    1.389   .     A
C866   H873    1.083   .     S
C866   C868    1.393   .     A
C867   C869    1.416   .     A
C867   C871    1.410   .     A
C868   C870    1.409   .     A
C868   C872    1.394   .     A
C869   C215    1.402   1_556 S
C871   C242    1.404   1_556 S
N889   Zn899   2.034   .     S
N890   Zn900   2.034   .     S
O891   Zn899   1.997   .     S
O892   Zn900   1.997   .     S
O893   Zn900   1.997   .     S
O894   Zn899   1.997   .     S
O895   Zn899   1.963   .     S
O896   Zn900   1.963   .     S
O897   Zn900   1.927   .     S
O898   Zn899   1.927   .     S
O901   C902    1.420   .     S
C902   H903    1.111   .     S
C902   H904    1.115   .     S
C902   H1045   1.108   1_455 S
H905   C972    1.108   .     S
O906   C907    1.409   .     S
C907   H910    1.109   .     S
C907   H909    1.114   .     S
C907   H908    1.112   .     S
C911   O961    1.292   .     A
C911   C922    1.419   .     S
C911   O963    1.293   .     A
C912   O962    1.292   .     A
C912   C921    1.419   .     S
C912   O964    1.293   .     A
C913   C942    1.402   .     A
C913   C915    1.389   .     A
C913   H949    1.082   .     S
C914   C916    1.400   .     A
C914   C941    1.414   .     A
C914   H950    1.080   .     S
C915   O971    1.377   .     S
C916   O976    1.383   .     S
C916   C310    1.405   1_556 S
C917   C922    1.397   .     A
C917   H951    1.084   .     S
C917   C1129   1.371   .     S
C918   C921    1.397   .     A
C918   H952    1.084   .     S
C919   C921    1.397   .     A
C919   H953    1.084   .     S
C920   C922    1.397   .     A
C920   H954    1.084   .     S
C920   C1128   1.370   .     S
C923   H955    1.082   .     S
C923   N960    1.370   .     A
C923   C995    1.425   .     S
C924   H956    1.082   .     S
C924   N959    1.369   .     A
C925   N959    1.370   .     A
C925   H957    1.082   .     S
C926   H958    1.082   .     S
C926   N960    1.370   .     A
C926   C994    1.425   .     S
C927   O965    1.305   .     A
C927   C929    1.460   .     S
C927   O967    1.300   .     A
C928   O966    1.300   .     A
C928   C930    1.454   .     S
C928   O968    1.301   .     A
C929   C933    1.400   .     A
C929   C935    1.396   .     A
C930   C934    1.395   .     A
C930   C936    1.384   .     A
C931   C939    1.405   .     A
C931   C933    1.395   .     A
C931   H947    1.077   .     S
C932   C934    1.399   .     A
C932   C940    1.397   .     A
C932   H948    1.078   .     S
C933   H946    1.083   .     S
C934   H945    1.078   .     S
C935   H944    1.079   .     S
C935   C937    1.389   .     A
C936   H943    1.083   .     S
C936   C938    1.393   .     A
C937   C939    1.416   .     A
C937   C941    1.410   .     A
C938   C940    1.409   .     A
C938   C942    1.394   .     A
C939   C285    1.402   1_556 S
C941   C312    1.404   1_556 S
N959   Zn969   2.034   .     S
N960   Zn970   2.034   .     S
O961   Zn969   1.997   .     S
O962   Zn970   1.997   .     S
O963   Zn970   1.997   .     S
O964   Zn969   1.997   .     S
O965   Zn969   1.963   .     S
O966   Zn970   1.963   .     S
O967   Zn970   1.927   .     S
O968   Zn969   1.927   .     S
O971   C972    1.420   .     S
C972   H973    1.111   .     S
C972   H974    1.115   .     S
H975   C1042   1.108   .     S
O976   C977    1.409   .     S
C977   H980    1.109   .     S
C977   H979    1.114   .     S
C977   H978    1.112   .     S
C981   O1031   1.292   .     A
C981   C992    1.419   .     S
C981   O1033   1.293   .     A
C982   O1032   1.292   .     A
C982   C991    1.419   .     S
C982   O1034   1.293   .     A
C983   C1012   1.402   .     A
C983   C985    1.389   .     A
C983   H1019   1.082   .     S
C984   C986    1.400   .     A
C984   C1011   1.414   .     A
C984   H1020   1.080   .     S
C985   O1041   1.377   .     S
C986   O1046   1.383   .     S
C986   C380    1.405   1_556 S
C987   C992    1.397   .     A
C987   H1021   1.084   .     S
C987   C1199   1.371   .     S
C988   C991    1.397   .     A
C988   H1022   1.084   .     S
C989   C991    1.397   .     A
C989   H1023   1.084   .     S
C990   C992    1.397   .     A
C990   H1024   1.084   .     S
C990   C1198   1.370   .     S
C993   H1025   1.082   .     S
C993   N1030   1.370   .     A
C993   C855    1.425   1_655 S
C994   H1026   1.082   .     S
C994   N1029   1.369   .     A
C995   N1029   1.370   .     A
C995   H1027   1.082   .     S
C996   H1028   1.082   .     S
C996   N1030   1.370   .     A
C996   C854    1.425   1_655 S
C997   O1035   1.305   .     A
C997   C999    1.460   .     S
C997   O1037   1.300   .     A
C998   O1036   1.300   .     A
C998   C1000   1.454   .     S
C998   O1038   1.301   .     A
C999   C1003   1.400   .     A
C999   C1005   1.396   .     A
C1000  C1004   1.395   .     A
C1000  C1006   1.384   .     A
C1001  C1009   1.405   .     A
C1001  C1003   1.395   .     A
C1001  H1017   1.077   .     S
C1002  C1004   1.399   .     A
C1002  C1010   1.397   .     A
C1002  H1018   1.078   .     S
C1003  H1016   1.083   .     S
C1004  H1015   1.078   .     S
C1005  H1014   1.079   .     S
C1005  C1007   1.389   .     A
C1006  H1013   1.083   .     S
C1006  C1008   1.393   .     A
C1007  C1009   1.416   .     A
C1007  C1011   1.410   .     A
C1008  C1010   1.409   .     A
C1008  C1012   1.394   .     A
C1009  C355    1.402   1_556 S
C1011  C382    1.404   1_556 S
N1029  Zn1039  2.034   .     S
N1030  Zn1040  2.034   .     S
O1031  Zn1039  1.997   .     S
O1032  Zn1040  1.997   .     S
O1033  Zn1040  1.997   .     S
O1034  Zn1039  1.997   .     S
O1035  Zn1039  1.963   .     S
O1036  Zn1040  1.963   .     S
O1037  Zn1040  1.927   .     S
O1038  Zn1039  1.927   .     S
O1041  C1042   1.420   .     S
C1042  H1043   1.111   .     S
C1042  H1044   1.115   .     S
H1045  C902    1.108   1_655 S
O1046  C1047   1.409   .     S
C1047  H1050   1.109   .     S
C1047  H1049   1.114   .     S
C1047  H1048   1.112   .     S
C1051  O1101   1.292   .     A
C1051  C1062   1.419   .     S
C1051  O1103   1.293   .     A
C1052  O1102   1.292   .     A
C1052  C1061   1.419   .     S
C1052  O1104   1.293   .     A
C1053  C1082   1.402   .     A
C1053  C1055   1.389   .     A
C1053  H1089   1.082   .     S
C1054  C1056   1.400   .     A
C1054  C1081   1.414   .     A
C1054  H1090   1.080   .     S
C1055  O1111   1.377   .     S
C1056  O1116   1.383   .     S
C1056  C450    1.405   1_556 S
C1057  C1062   1.397   .     A
C1057  H1091   1.084   .     S
C1057  C639    1.371   1_565 S
C1058  C1061   1.397   .     A
C1058  H1092   1.084   .     S
C1059  C1061   1.397   .     A
C1059  H1093   1.084   .     S
C1060  C1062   1.397   .     A
C1060  H1094   1.084   .     S
C1060  C638    1.370   1_565 S
C1063  H1095   1.082   .     S
C1063  N1100   1.370   .     A
C1063  C1135   1.425   .     S
C1064  H1096   1.082   .     S
C1064  N1099   1.369   .     A
C1064  C1206   1.425   1_455 S
C1065  N1099   1.370   .     A
C1065  H1097   1.082   .     S
C1065  C1203   1.425   1_455 S
C1066  H1098   1.082   .     S
C1066  N1100   1.370   .     A
C1066  C1134   1.425   .     S
C1067  O1105   1.305   .     A
C1067  C1069   1.460   .     S
C1067  O1107   1.300   .     A
C1068  O1106   1.300   .     A
C1068  C1070   1.454   .     S
C1068  O1108   1.301   .     A
C1069  C1073   1.400   .     A
C1069  C1075   1.396   .     A
C1070  C1074   1.395   .     A
C1070  C1076   1.384   .     A
C1071  C1079   1.405   .     A
C1071  C1073   1.395   .     A
C1071  H1087   1.077   .     S
C1072  C1074   1.399   .     A
C1072  C1080   1.397   .     A
C1072  H1088   1.078   .     S
C1073  H1086   1.083   .     S
C1074  H1085   1.078   .     S
C1075  H1084   1.079   .     S
C1075  C1077   1.389   .     A
C1076  H1083   1.083   .     S
C1076  C1078   1.393   .     A
C1077  C1079   1.416   .     A
C1077  C1081   1.410   .     A
C1078  C1080   1.409   .     A
C1078  C1082   1.394   .     A
C1079  C425    1.402   1_556 S
C1081  C452    1.404   1_556 S
N1099  Zn1109  2.034   .     S
N1100  Zn1110  2.034   .     S
O1101  Zn1109  1.997   .     S
O1102  Zn1110  1.997   .     S
O1103  Zn1110  1.997   .     S
O1104  Zn1109  1.997   .     S
O1105  Zn1109  1.963   .     S
O1106  Zn1110  1.963   .     S
O1107  Zn1110  1.927   .     S
O1108  Zn1109  1.927   .     S
O1111  C1112   1.420   .     S
C1112  H1113   1.111   .     S
C1112  H1114   1.115   .     S
C1112  H1255   1.108   1_455 S
H1115  C1182   1.108   .     S
O1116  C1117   1.409   .     S
C1117  H1120   1.109   .     S
C1117  H1119   1.114   .     S
C1117  H1118   1.112   .     S
C1121  O1171   1.292   .     A
C1121  C1132   1.419   .     S
C1121  O1173   1.293   .     A
C1122  O1172   1.292   .     A
C1122  C1131   1.419   .     S
C1122  O1174   1.293   .     A
C1123  C1152   1.402   .     A
C1123  C1125   1.389   .     A
C1123  H1159   1.082   .     S
C1124  C1126   1.400   .     A
C1124  C1151   1.414   .     A
C1124  H1160   1.080   .     S
C1125  O1181   1.377   .     S
C1126  O1186   1.383   .     S
C1126  C520    1.405   1_556 S
C1127  C1132   1.397   .     A
C1127  H1161   1.084   .     S
C1127  C709    1.371   1_565 S
C1128  C1131   1.397   .     A
C1128  H1162   1.084   .     S
C1129  C1131   1.397   .     A
C1129  H1163   1.084   .     S
C1130  C1132   1.397   .     A
C1130  H1164   1.084   .     S
C1130  C708    1.370   1_565 S
C1133  H1165   1.082   .     S
C1133  N1170   1.370   .     A
C1133  C1205   1.425   .     S
C1134  H1166   1.082   .     S
C1134  N1169   1.369   .     A
C1135  N1169   1.370   .     A
C1135  H1167   1.082   .     S
C1136  H1168   1.082   .     S
C1136  N1170   1.370   .     A
C1136  C1204   1.425   .     S
C1137  O1175   1.305   .     A
C1137  C1139   1.460   .     S
C1137  O1177   1.300   .     A
C1138  O1176   1.300   .     A
C1138  C1140   1.454   .     S
C1138  O1178   1.301   .     A
C1139  C1143   1.400   .     A
C1139  C1145   1.396   .     A
C1140  C1144   1.395   .     A
C1140  C1146   1.384   .     A
C1141  C1149   1.405   .     A
C1141  C1143   1.395   .     A
C1141  H1157   1.077   .     S
C1142  C1144   1.399   .     A
C1142  C1150   1.397   .     A
C1142  H1158   1.078   .     S
C1143  H1156   1.083   .     S
C1144  H1155   1.078   .     S
C1145  H1154   1.079   .     S
C1145  C1147   1.389   .     A
C1146  H1153   1.083   .     S
C1146  C1148   1.393   .     A
C1147  C1149   1.416   .     A
C1147  C1151   1.410   .     A
C1148  C1150   1.409   .     A
C1148  C1152   1.394   .     A
C1149  C495    1.402   1_556 S
C1151  C522    1.404   1_556 S
N1169  Zn1179  2.034   .     S
N1170  Zn1180  2.034   .     S
O1171  Zn1179  1.997   .     S
O1172  Zn1180  1.997   .     S
O1173  Zn1180  1.997   .     S
O1174  Zn1179  1.997   .     S
O1175  Zn1179  1.963   .     S
O1176  Zn1180  1.963   .     S
O1177  Zn1180  1.927   .     S
O1178  Zn1179  1.927   .     S
O1181  C1182   1.420   .     S
C1182  H1183   1.111   .     S
C1182  H1184   1.115   .     S
H1185  C1252   1.108   .     S
O1186  C1187   1.409   .     S
C1187  H1190   1.109   .     S
C1187  H1189   1.114   .     S
C1187  H1188   1.112   .     S
C1191  O1241   1.292   .     A
C1191  C1202   1.419   .     S
C1191  O1243   1.293   .     A
C1192  O1242   1.292   .     A
C1192  C1201   1.419   .     S
C1192  O1244   1.293   .     A
C1193  C1222   1.402   .     A
C1193  C1195   1.389   .     A
C1193  H1229   1.082   .     S
C1194  C1196   1.400   .     A
C1194  C1221   1.414   .     A
C1194  H1230   1.080   .     S
C1195  O1251   1.377   .     S
C1196  O1256   1.383   .     S
C1196  C590    1.405   1_556 S
C1197  C1202   1.397   .     A
C1197  H1231   1.084   .     S
C1197  C779    1.371   1_565 S
C1198  C1201   1.397   .     A
C1198  H1232   1.084   .     S
C1199  C1201   1.397   .     A
C1199  H1233   1.084   .     S
C1200  C1202   1.397   .     A
C1200  H1234   1.084   .     S
C1200  C778    1.370   1_565 S
C1203  H1235   1.082   .     S
C1203  N1240   1.370   .     A
C1203  C1065   1.425   1_655 S
C1204  H1236   1.082   .     S
C1204  N1239   1.369   .     A
C1205  N1239   1.370   .     A
C1205  H1237   1.082   .     S
C1206  H1238   1.082   .     S
C1206  N1240   1.370   .     A
C1206  C1064   1.425   1_655 S
C1207  O1245   1.305   .     A
C1207  C1209   1.460   .     S
C1207  O1247   1.300   .     A
C1208  O1246   1.300   .     A
C1208  C1210   1.454   .     S
C1208  O1248   1.301   .     A
C1209  C1213   1.400   .     A
C1209  C1215   1.396   .     A
C1210  C1214   1.395   .     A
C1210  C1216   1.384   .     A
C1211  C1219   1.405   .     A
C1211  C1213   1.395   .     A
C1211  H1227   1.077   .     S
C1212  C1214   1.399   .     A
C1212  C1220   1.397   .     A
C1212  H1228   1.078   .     S
C1213  H1226   1.083   .     S
C1214  H1225   1.078   .     S
C1215  H1224   1.079   .     S
C1215  C1217   1.389   .     A
C1216  H1223   1.083   .     S
C1216  C1218   1.393   .     A
C1217  C1219   1.416   .     A
C1217  C1221   1.410   .     A
C1218  C1220   1.409   .     A
C1218  C1222   1.394   .     A
C1219  C565    1.402   1_556 S
C1221  C592    1.404   1_556 S
N1239  Zn1249  2.034   .     S
N1240  Zn1250  2.034   .     S
O1241  Zn1249  1.997   .     S
O1242  Zn1250  1.997   .     S
O1243  Zn1250  1.997   .     S
O1244  Zn1249  1.997   .     S
O1245  Zn1249  1.963   .     S
O1246  Zn1250  1.963   .     S
O1247  Zn1250  1.927   .     S
O1248  Zn1249  1.927   .     S
O1251  C1252   1.420   .     S
C1252  H1253   1.111   .     S
C1252  H1254   1.115   .     S
H1255  C1112   1.108   1_655 S
O1256  C1257   1.409   .     S
C1257  H1260   1.109   .     S
C1257  H1259   1.114   .     S
C1257  H1258   1.112   .     S
