data_str_m3_o2_o10_pcu_sym.158
_audit_creation_date              2020-01-03
_audit_creation_method            'Materials Studio'
_symmetry_space_group_name_H-M    'P1'
_symmetry_Int_Tables_number       1
_symmetry_cell_setting            triclinic
loop_
_symmetry_equiv_pos_as_xyz
  x,y,z
_cell_length_a                    25.9109
_cell_length_b                    29.8676
_cell_length_c                    28.4758
_cell_angle_alpha                 91.0122
_cell_angle_beta                  97.9286
_cell_angle_gamma                 90.7867
loop_
_atom_site_label
_atom_site_type_symbol
_atom_site_fract_x
_atom_site_fract_y
_atom_site_fract_z
_atom_site_U_iso_or_equiv
_atom_site_adp_type
_atom_site_occupancy
C1     C     0.16811   0.16375   0.24983   0.00000  Uiso   1.00
C2     C     0.16639   0.33581   0.25037   0.00000  Uiso   1.00
C3     C     0.12978   0.22752   0.04638   0.00000  Uiso   1.00
C4     C     0.18732   0.28394   0.45205   0.00000  Uiso   1.00
C5     C     0.12830   0.22810   0.09561   0.00000  Uiso   1.00
C6     C     0.18707   0.28524   0.40268   0.00000  Uiso   1.00
C7     C     0.20711   0.27002   0.10847   0.00000  Uiso   1.00
C8     C     0.14971   0.21237   0.39387   0.00000  Uiso   1.00
C9     C     0.21241   0.26672   0.05967   0.00000  Uiso   1.00
C10    C     0.15323   0.20846   0.44377   0.00000  Uiso   1.00
C11    C     0.17207   0.24594   0.02729   0.00000  Uiso   1.00
C12    C     0.17142   0.24552   0.47387   0.00000  Uiso   1.00
C13    C     0.06739   0.25029   0.23811   0.00000  Uiso   1.00
C14    C     0.26601   0.24949   0.26199   0.00000  Uiso   1.00
C15    C     0.01392   0.25912   0.23400   0.00000  Uiso   1.00
C16    C     0.31979   0.24136   0.26661   0.00000  Uiso   1.00
C17    C     0.16671   0.04717   0.29381   0.00000  Uiso   1.00
C18    C     0.22422   0.44973   0.25696   0.00000  Uiso   1.00
C19    C     0.16214   0.09316   0.29081   0.00000  Uiso   1.00
C20    C     0.21911   0.40337   0.25597   0.00000  Uiso   1.00
C21    C     0.17330   0.11552   0.25040   0.00000  Uiso   1.00
C22    C     0.16965   0.38337   0.25184   0.00000  Uiso   1.00
C23    C     0.19055   0.09156   0.21246   0.00000  Uiso   1.00
C24    C     0.12430   0.40870   0.24864   0.00000  Uiso   1.00
C25    C     0.19286   0.04525   0.21459   0.00000  Uiso   1.00
C26    C     0.12915   0.45490   0.24824   0.00000  Uiso   1.00
C27    C     0.18100   0.02334   0.25472   0.00000  Uiso   1.00
C28    C     0.17861   0.47517   0.25294   0.00000  Uiso   1.00
H29    H     0.14961   0.11145   0.32035   0.00000  Uiso   1.00
H30    H     0.25346   0.38270   0.25868   0.00000  Uiso   1.00
H31    H     0.20384   0.02618   0.18486   0.00000  Uiso   1.00
H32    H     0.09449   0.47519   0.24543   0.00000  Uiso   1.00
H33    H     0.09727   0.21292   0.02286   0.00000  Uiso   1.00
H34    H     0.20009   0.31336   0.47351   0.00000  Uiso   1.00
H35    H     0.23606   0.28797   0.13255   0.00000  Uiso   1.00
H36    H     0.13503   0.18431   0.37118   0.00000  Uiso   1.00
N37    N     0.16667   0.24999   0.12624   0.00000  Uiso   1.00
N38    N     0.16667   0.25001   0.37377   0.00000  Uiso   1.00
O39    O     0.16667   0.18454   0.28974   0.00000  Uiso   1.00
O40    O     0.16666   0.31547   0.21026   0.00000  Uiso   1.00
O41    O     0.16667   0.18453   0.21026   0.00000  Uiso   1.00
O42    O     0.16666   0.31547   0.28974   0.00000  Uiso   1.00
O43    O     0.09058   0.25000   0.28045   0.00000  Uiso   1.00
O44    O     0.24275   0.25000   0.21956   0.00000  Uiso   1.00
O45    O     0.09058   0.25000   0.20097   0.00000  Uiso   1.00
O46    O     0.24275   0.25001   0.29904   0.00000  Uiso   1.00
Zn47   Zn    0.16667   0.25001   0.30307   0.00000  Uiso   1.00
Zn48   Zn    0.16667   0.25000   0.19693   0.00000  Uiso   1.00
C49    C     0.32821   0.29431   0.19805   0.00000  Uiso   1.00
H50    H     0.02670   0.31855   0.19380   0.00000  Uiso   1.00
H51    H     0.31694   0.27745   0.16315   0.00000  Uiso   1.00
H52    H     0.29614   0.31469   0.20876   0.00000  Uiso   1.00
C53    C     0.00669   0.20597   0.30224   0.00000  Uiso   1.00
H54    H     0.30764   0.18740   0.31549   0.00000  Uiso   1.00
H55    H     0.02966   0.18058   0.28547   0.00000  Uiso   1.00
H56    H     0.03079   0.22193   0.33348   0.00000  Uiso   1.00
C57    C     0.15552   0.02514   0.33873   0.00000  Uiso   1.00
H58    H     0.11373   0.02898   0.34247   0.00000  Uiso   1.00
H59    H     0.16468   0.48899   0.33961   0.00000  Uiso   1.00
H60    H     0.17957   0.04152   0.36976   0.00000  Uiso   1.00
C61    C     0.27768   0.47140   0.26321   0.00000  Uiso   1.00
H62    H     0.28280   0.49134   0.23163   0.00000  Uiso   1.00
H63    H     0.28261   0.49369   0.29519   0.00000  Uiso   1.00
H64    H     0.30884   0.44612   0.26765   0.00000  Uiso   1.00
N65    N     0.20575   0.11352   0.17241   0.00000  Uiso   1.00
H66    H     0.19741   0.09531   0.14108   0.00000  Uiso   1.00
C67    C     0.25887   0.13057   0.17955   0.00000  Uiso   1.00
H68    H     0.28660   0.10241   0.18402   0.00000  Uiso   1.00
H69    H     0.26578   0.15306   0.21136   0.00000  Uiso   1.00
H70    H     0.26624   0.15009   0.14825   0.00000  Uiso   1.00
N71    N     0.07409   0.38796   0.24507   0.00000  Uiso   1.00
H72    H     0.04577   0.40480   0.22352   0.00000  Uiso   1.00
C73    C     0.05764   0.37762   0.29025   0.00000  Uiso   1.00
H74    H     0.05457   0.40886   0.31140   0.00000  Uiso   1.00
H75    H     0.08553   0.35495   0.31063   0.00000  Uiso   1.00
H76    H     0.01891   0.36050   0.28426   0.00000  Uiso   1.00
C77    C     0.08309   0.20475   0.11294   0.00000  Uiso   1.00
H78    H     0.09635   0.18393   0.14384   0.00000  Uiso   1.00
H79    H     0.05446   0.22980   0.12144   0.00000  Uiso   1.00
H80    H     0.06237   0.18172   0.08531   0.00000  Uiso   1.00
C81    C     0.21085   0.32584   0.38335   0.00000  Uiso   1.00
H82    H     0.23534   0.34552   0.41179   0.00000  Uiso   1.00
H83    H     0.23700   0.31588   0.35747   0.00000  Uiso   1.00
H84    H     0.17966   0.34831   0.36766   0.00000  Uiso   1.00
N85    N     0.25886   0.28341   0.04421   0.00000  Uiso   1.00
H86    H     0.27781   0.30819   0.06604   0.00000  Uiso   1.00
C87    C     0.29408   0.24900   0.03263   0.00000  Uiso   1.00
H88    H     0.32924   0.26480   0.02123   0.00000  Uiso   1.00
H89    H     0.27522   0.22707   0.00313   0.00000  Uiso   1.00
H90    H     0.30629   0.22832   0.06415   0.00000  Uiso   1.00
N91    N     0.13944   0.16695   0.46289   0.00000  Uiso   1.00
H92    H     0.11279   0.14797   0.44034   0.00000  Uiso   1.00
C93    C     0.18338   0.14091   0.48317   0.00000  Uiso   1.00
H94    H     0.16905   0.11010   0.49877   0.00000  Uiso   1.00
H95    H     0.20796   0.16022   0.01179   0.00000  Uiso   1.00
H96    H     0.20735   0.13112   0.45526   0.00000  Uiso   1.00
C97    C     0.50144   0.16375   0.24983   0.00000  Uiso   1.00
C98    C     0.49973   0.33581   0.25037   0.00000  Uiso   1.00
C99    C     0.46312   0.22752   0.04638   0.00000  Uiso   1.00
C100   C     0.52065   0.28394   0.45205   0.00000  Uiso   1.00
C101   C     0.46164   0.22810   0.09561   0.00000  Uiso   1.00
C102   C     0.52041   0.28524   0.40268   0.00000  Uiso   1.00
C103   C     0.54044   0.27002   0.10847   0.00000  Uiso   1.00
C104   C     0.48305   0.21237   0.39387   0.00000  Uiso   1.00
C105   C     0.54575   0.26672   0.05967   0.00000  Uiso   1.00
C106   C     0.48656   0.20846   0.44377   0.00000  Uiso   1.00
C107   C     0.50540   0.24594   0.02729   0.00000  Uiso   1.00
C108   C     0.50475   0.24552   0.47387   0.00000  Uiso   1.00
C109   C     0.40072   0.25029   0.23811   0.00000  Uiso   1.00
C110   C     0.59934   0.24949   0.26199   0.00000  Uiso   1.00
C111   C     0.34725   0.25912   0.23400   0.00000  Uiso   1.00
C112   C     0.65312   0.24136   0.26661   0.00000  Uiso   1.00
C113   C     0.50005   0.04717   0.29381   0.00000  Uiso   1.00
C114   C     0.55756   0.44973   0.25696   0.00000  Uiso   1.00
C115   C     0.49547   0.09316   0.29081   0.00000  Uiso   1.00
C116   C     0.55245   0.40337   0.25597   0.00000  Uiso   1.00
C117   C     0.50663   0.11552   0.25040   0.00000  Uiso   1.00
C118   C     0.50299   0.38337   0.25184   0.00000  Uiso   1.00
C119   C     0.52389   0.09156   0.21246   0.00000  Uiso   1.00
C120   C     0.45763   0.40870   0.24864   0.00000  Uiso   1.00
C121   C     0.52619   0.04525   0.21459   0.00000  Uiso   1.00
C122   C     0.46248   0.45490   0.24824   0.00000  Uiso   1.00
C123   C     0.51434   0.02334   0.25472   0.00000  Uiso   1.00
C124   C     0.51194   0.47517   0.25294   0.00000  Uiso   1.00
H125   H     0.48294   0.11145   0.32035   0.00000  Uiso   1.00
H126   H     0.58679   0.38270   0.25868   0.00000  Uiso   1.00
H127   H     0.53718   0.02618   0.18486   0.00000  Uiso   1.00
H128   H     0.42782   0.47519   0.24543   0.00000  Uiso   1.00
H129   H     0.43060   0.21292   0.02286   0.00000  Uiso   1.00
H130   H     0.53342   0.31336   0.47351   0.00000  Uiso   1.00
H131   H     0.56939   0.28797   0.13255   0.00000  Uiso   1.00
H132   H     0.46836   0.18431   0.37118   0.00000  Uiso   1.00
N133   N     0.50000   0.24999   0.12624   0.00000  Uiso   1.00
N134   N     0.50000   0.25001   0.37377   0.00000  Uiso   1.00
O135   O     0.50000   0.18454   0.28974   0.00000  Uiso   1.00
O136   O     0.50000   0.31547   0.21026   0.00000  Uiso   1.00
O137   O     0.50000   0.18453   0.21026   0.00000  Uiso   1.00
O138   O     0.50000   0.31547   0.28974   0.00000  Uiso   1.00
O139   O     0.42392   0.25000   0.28045   0.00000  Uiso   1.00
O140   O     0.57608   0.25000   0.21956   0.00000  Uiso   1.00
O141   O     0.42392   0.25000   0.20097   0.00000  Uiso   1.00
O142   O     0.57608   0.25001   0.29904   0.00000  Uiso   1.00
Zn143  Zn    0.50000   0.25001   0.30307   0.00000  Uiso   1.00
Zn144  Zn    0.50000   0.25000   0.19693   0.00000  Uiso   1.00
C145   C     0.66155   0.29431   0.19805   0.00000  Uiso   1.00
H146   H     0.36003   0.31855   0.19380   0.00000  Uiso   1.00
H147   H     0.65027   0.27745   0.16315   0.00000  Uiso   1.00
H148   H     0.62947   0.31469   0.20876   0.00000  Uiso   1.00
C149   C     0.34002   0.20597   0.30224   0.00000  Uiso   1.00
H150   H     0.64098   0.18740   0.31549   0.00000  Uiso   1.00
H151   H     0.36299   0.18058   0.28547   0.00000  Uiso   1.00
H152   H     0.36413   0.22193   0.33348   0.00000  Uiso   1.00
C153   C     0.48886   0.02514   0.33873   0.00000  Uiso   1.00
H154   H     0.44706   0.02898   0.34247   0.00000  Uiso   1.00
H155   H     0.49802   0.48899   0.33961   0.00000  Uiso   1.00
H156   H     0.51291   0.04152   0.36976   0.00000  Uiso   1.00
C157   C     0.61101   0.47140   0.26321   0.00000  Uiso   1.00
H158   H     0.61614   0.49134   0.23163   0.00000  Uiso   1.00
H159   H     0.61594   0.49369   0.29519   0.00000  Uiso   1.00
H160   H     0.64218   0.44612   0.26765   0.00000  Uiso   1.00
N161   N     0.53908   0.11352   0.17241   0.00000  Uiso   1.00
H162   H     0.53075   0.09531   0.14108   0.00000  Uiso   1.00
C163   C     0.59220   0.13057   0.17955   0.00000  Uiso   1.00
H164   H     0.61994   0.10241   0.18402   0.00000  Uiso   1.00
H165   H     0.59912   0.15306   0.21136   0.00000  Uiso   1.00
H166   H     0.59957   0.15009   0.14825   0.00000  Uiso   1.00
N167   N     0.40742   0.38796   0.24507   0.00000  Uiso   1.00
H168   H     0.37910   0.40480   0.22352   0.00000  Uiso   1.00
C169   C     0.39097   0.37762   0.29025   0.00000  Uiso   1.00
H170   H     0.38791   0.40886   0.31140   0.00000  Uiso   1.00
H171   H     0.41886   0.35495   0.31063   0.00000  Uiso   1.00
H172   H     0.35225   0.36050   0.28426   0.00000  Uiso   1.00
C173   C     0.41642   0.20475   0.11294   0.00000  Uiso   1.00
H174   H     0.42968   0.18393   0.14384   0.00000  Uiso   1.00
H175   H     0.38779   0.22980   0.12144   0.00000  Uiso   1.00
H176   H     0.39570   0.18172   0.08531   0.00000  Uiso   1.00
C177   C     0.54419   0.32584   0.38335   0.00000  Uiso   1.00
H178   H     0.56867   0.34552   0.41179   0.00000  Uiso   1.00
H179   H     0.57034   0.31588   0.35747   0.00000  Uiso   1.00
H180   H     0.51299   0.34831   0.36766   0.00000  Uiso   1.00
N181   N     0.59220   0.28341   0.04421   0.00000  Uiso   1.00
H182   H     0.61114   0.30819   0.06604   0.00000  Uiso   1.00
C183   C     0.62741   0.24900   0.03263   0.00000  Uiso   1.00
H184   H     0.66258   0.26480   0.02123   0.00000  Uiso   1.00
H185   H     0.60855   0.22707   0.00313   0.00000  Uiso   1.00
H186   H     0.63962   0.22832   0.06415   0.00000  Uiso   1.00
N187   N     0.47277   0.16695   0.46289   0.00000  Uiso   1.00
H188   H     0.44613   0.14797   0.44034   0.00000  Uiso   1.00
C189   C     0.51671   0.14091   0.48317   0.00000  Uiso   1.00
H190   H     0.50239   0.11010   0.49877   0.00000  Uiso   1.00
H191   H     0.54130   0.16022   0.01179   0.00000  Uiso   1.00
H192   H     0.54068   0.13112   0.45526   0.00000  Uiso   1.00
C193   C     0.83478   0.16375   0.24983   0.00000  Uiso   1.00
C194   C     0.83306   0.33581   0.25037   0.00000  Uiso   1.00
C195   C     0.79645   0.22752   0.04638   0.00000  Uiso   1.00
C196   C     0.85399   0.28394   0.45205   0.00000  Uiso   1.00
C197   C     0.79497   0.22810   0.09561   0.00000  Uiso   1.00
C198   C     0.85374   0.28524   0.40268   0.00000  Uiso   1.00
C199   C     0.87377   0.27002   0.10847   0.00000  Uiso   1.00
C200   C     0.81638   0.21237   0.39387   0.00000  Uiso   1.00
C201   C     0.87908   0.26672   0.05967   0.00000  Uiso   1.00
C202   C     0.81989   0.20846   0.44377   0.00000  Uiso   1.00
C203   C     0.83873   0.24594   0.02729   0.00000  Uiso   1.00
C204   C     0.83808   0.24552   0.47387   0.00000  Uiso   1.00
C205   C     0.73405   0.25029   0.23811   0.00000  Uiso   1.00
C206   C     0.93268   0.24949   0.26199   0.00000  Uiso   1.00
C207   C     0.68058   0.25912   0.23400   0.00000  Uiso   1.00
C208   C     0.98645   0.24136   0.26661   0.00000  Uiso   1.00
C209   C     0.83338   0.04717   0.29381   0.00000  Uiso   1.00
C210   C     0.89089   0.44973   0.25696   0.00000  Uiso   1.00
C211   C     0.82881   0.09316   0.29081   0.00000  Uiso   1.00
C212   C     0.88578   0.40337   0.25597   0.00000  Uiso   1.00
C213   C     0.83997   0.11552   0.25040   0.00000  Uiso   1.00
C214   C     0.83632   0.38337   0.25184   0.00000  Uiso   1.00
C215   C     0.85722   0.09156   0.21246   0.00000  Uiso   1.00
C216   C     0.79097   0.40870   0.24864   0.00000  Uiso   1.00
C217   C     0.85952   0.04525   0.21459   0.00000  Uiso   1.00
C218   C     0.79581   0.45490   0.24824   0.00000  Uiso   1.00
C219   C     0.84767   0.02334   0.25472   0.00000  Uiso   1.00
C220   C     0.84527   0.47517   0.25294   0.00000  Uiso   1.00
H221   H     0.81628   0.11145   0.32035   0.00000  Uiso   1.00
H222   H     0.92012   0.38270   0.25868   0.00000  Uiso   1.00
H223   H     0.87051   0.02618   0.18486   0.00000  Uiso   1.00
H224   H     0.76116   0.47519   0.24543   0.00000  Uiso   1.00
H225   H     0.76393   0.21292   0.02286   0.00000  Uiso   1.00
H226   H     0.86675   0.31336   0.47351   0.00000  Uiso   1.00
H227   H     0.90273   0.28797   0.13255   0.00000  Uiso   1.00
H228   H     0.80170   0.18431   0.37118   0.00000  Uiso   1.00
N229   N     0.83333   0.24999   0.12624   0.00000  Uiso   1.00
N230   N     0.83333   0.25001   0.37377   0.00000  Uiso   1.00
O231   O     0.83334   0.18454   0.28974   0.00000  Uiso   1.00
O232   O     0.83333   0.31547   0.21026   0.00000  Uiso   1.00
O233   O     0.83334   0.18453   0.21026   0.00000  Uiso   1.00
O234   O     0.83333   0.31547   0.28974   0.00000  Uiso   1.00
O235   O     0.75725   0.25000   0.28045   0.00000  Uiso   1.00
O236   O     0.90942   0.25000   0.21956   0.00000  Uiso   1.00
O237   O     0.75725   0.25000   0.20097   0.00000  Uiso   1.00
O238   O     0.90942   0.25001   0.29904   0.00000  Uiso   1.00
Zn239  Zn    0.83333   0.25001   0.30307   0.00000  Uiso   1.00
Zn240  Zn    0.83333   0.25000   0.19693   0.00000  Uiso   1.00
C241   C     0.99488   0.29431   0.19805   0.00000  Uiso   1.00
H242   H     0.69336   0.31855   0.19380   0.00000  Uiso   1.00
H243   H     0.98360   0.27745   0.16315   0.00000  Uiso   1.00
H244   H     0.96280   0.31469   0.20876   0.00000  Uiso   1.00
C245   C     0.67336   0.20597   0.30224   0.00000  Uiso   1.00
H246   H     0.97431   0.18740   0.31549   0.00000  Uiso   1.00
H247   H     0.69632   0.18058   0.28547   0.00000  Uiso   1.00
H248   H     0.69746   0.22193   0.33348   0.00000  Uiso   1.00
C249   C     0.82219   0.02514   0.33873   0.00000  Uiso   1.00
H250   H     0.78039   0.02898   0.34247   0.00000  Uiso   1.00
H251   H     0.83135   0.48899   0.33961   0.00000  Uiso   1.00
H252   H     0.84624   0.04152   0.36976   0.00000  Uiso   1.00
C253   C     0.94435   0.47140   0.26321   0.00000  Uiso   1.00
H254   H     0.94947   0.49134   0.23163   0.00000  Uiso   1.00
H255   H     0.94928   0.49369   0.29519   0.00000  Uiso   1.00
H256   H     0.97551   0.44612   0.26765   0.00000  Uiso   1.00
N257   N     0.87241   0.11352   0.17241   0.00000  Uiso   1.00
H258   H     0.86408   0.09531   0.14108   0.00000  Uiso   1.00
C259   C     0.92554   0.13057   0.17955   0.00000  Uiso   1.00
H260   H     0.95327   0.10241   0.18402   0.00000  Uiso   1.00
H261   H     0.93245   0.15306   0.21136   0.00000  Uiso   1.00
H262   H     0.93291   0.15009   0.14825   0.00000  Uiso   1.00
N263   N     0.74076   0.38796   0.24507   0.00000  Uiso   1.00
H264   H     0.71244   0.40480   0.22352   0.00000  Uiso   1.00
C265   C     0.72430   0.37762   0.29025   0.00000  Uiso   1.00
H266   H     0.72124   0.40886   0.31140   0.00000  Uiso   1.00
H267   H     0.75219   0.35495   0.31063   0.00000  Uiso   1.00
H268   H     0.68558   0.36050   0.28426   0.00000  Uiso   1.00
C269   C     0.74975   0.20475   0.11294   0.00000  Uiso   1.00
H270   H     0.76301   0.18393   0.14384   0.00000  Uiso   1.00
H271   H     0.72113   0.22980   0.12144   0.00000  Uiso   1.00
H272   H     0.72904   0.18172   0.08531   0.00000  Uiso   1.00
C273   C     0.87752   0.32584   0.38335   0.00000  Uiso   1.00
H274   H     0.90200   0.34552   0.41179   0.00000  Uiso   1.00
H275   H     0.90367   0.31588   0.35747   0.00000  Uiso   1.00
H276   H     0.84632   0.34831   0.36766   0.00000  Uiso   1.00
N277   N     0.92553   0.28341   0.04421   0.00000  Uiso   1.00
H278   H     0.94447   0.30819   0.06604   0.00000  Uiso   1.00
C279   C     0.96075   0.24900   0.03263   0.00000  Uiso   1.00
H280   H     0.99591   0.26480   0.02123   0.00000  Uiso   1.00
H281   H     0.94189   0.22707   0.00313   0.00000  Uiso   1.00
H282   H     0.97296   0.22832   0.06415   0.00000  Uiso   1.00
N283   N     0.80611   0.16695   0.46289   0.00000  Uiso   1.00
H284   H     0.77946   0.14797   0.44034   0.00000  Uiso   1.00
C285   C     0.85005   0.14091   0.48317   0.00000  Uiso   1.00
H286   H     0.83572   0.11010   0.49877   0.00000  Uiso   1.00
H287   H     0.87463   0.16022   0.01179   0.00000  Uiso   1.00
H288   H     0.87402   0.13112   0.45526   0.00000  Uiso   1.00
C289   C     0.16811   0.66375   0.24983   0.00000  Uiso   1.00
C290   C     0.16639   0.83581   0.25037   0.00000  Uiso   1.00
C291   C     0.12978   0.72752   0.04638   0.00000  Uiso   1.00
C292   C     0.18732   0.78394   0.45205   0.00000  Uiso   1.00
C293   C     0.12830   0.72810   0.09561   0.00000  Uiso   1.00
C294   C     0.18707   0.78524   0.40268   0.00000  Uiso   1.00
C295   C     0.20711   0.77002   0.10847   0.00000  Uiso   1.00
C296   C     0.14971   0.71237   0.39387   0.00000  Uiso   1.00
C297   C     0.21241   0.76672   0.05967   0.00000  Uiso   1.00
C298   C     0.15323   0.70846   0.44377   0.00000  Uiso   1.00
C299   C     0.17207   0.74594   0.02729   0.00000  Uiso   1.00
C300   C     0.17142   0.74552   0.47387   0.00000  Uiso   1.00
C301   C     0.06739   0.75029   0.23811   0.00000  Uiso   1.00
C302   C     0.26601   0.74949   0.26199   0.00000  Uiso   1.00
C303   C     0.01392   0.75912   0.23400   0.00000  Uiso   1.00
C304   C     0.31979   0.74136   0.26661   0.00000  Uiso   1.00
C305   C     0.16671   0.54717   0.29381   0.00000  Uiso   1.00
C306   C     0.22422   0.94973   0.25696   0.00000  Uiso   1.00
C307   C     0.16214   0.59316   0.29081   0.00000  Uiso   1.00
C308   C     0.21911   0.90337   0.25597   0.00000  Uiso   1.00
C309   C     0.17330   0.61552   0.25040   0.00000  Uiso   1.00
C310   C     0.16965   0.88337   0.25184   0.00000  Uiso   1.00
C311   C     0.19055   0.59156   0.21246   0.00000  Uiso   1.00
C312   C     0.12430   0.90870   0.24864   0.00000  Uiso   1.00
C313   C     0.19286   0.54525   0.21459   0.00000  Uiso   1.00
C314   C     0.12915   0.95490   0.24824   0.00000  Uiso   1.00
C315   C     0.18100   0.52334   0.25472   0.00000  Uiso   1.00
C316   C     0.17861   0.97517   0.25294   0.00000  Uiso   1.00
H317   H     0.14961   0.61145   0.32035   0.00000  Uiso   1.00
H318   H     0.25346   0.88270   0.25868   0.00000  Uiso   1.00
H319   H     0.20384   0.52618   0.18486   0.00000  Uiso   1.00
H320   H     0.09449   0.97519   0.24543   0.00000  Uiso   1.00
H321   H     0.09727   0.71292   0.02286   0.00000  Uiso   1.00
H322   H     0.20009   0.81336   0.47351   0.00000  Uiso   1.00
H323   H     0.23606   0.78797   0.13255   0.00000  Uiso   1.00
H324   H     0.13503   0.68431   0.37118   0.00000  Uiso   1.00
N325   N     0.16667   0.74999   0.12624   0.00000  Uiso   1.00
N326   N     0.16667   0.75001   0.37377   0.00000  Uiso   1.00
O327   O     0.16667   0.68454   0.28974   0.00000  Uiso   1.00
O328   O     0.16666   0.81547   0.21026   0.00000  Uiso   1.00
O329   O     0.16667   0.68453   0.21026   0.00000  Uiso   1.00
O330   O     0.16666   0.81547   0.28974   0.00000  Uiso   1.00
O331   O     0.09058   0.75000   0.28045   0.00000  Uiso   1.00
O332   O     0.24275   0.75000   0.21956   0.00000  Uiso   1.00
O333   O     0.09058   0.75000   0.20097   0.00000  Uiso   1.00
O334   O     0.24275   0.75001   0.29904   0.00000  Uiso   1.00
Zn335  Zn    0.16667   0.75001   0.30307   0.00000  Uiso   1.00
Zn336  Zn    0.16667   0.75000   0.19693   0.00000  Uiso   1.00
C337   C     0.32821   0.79431   0.19805   0.00000  Uiso   1.00
H338   H     0.02670   0.81855   0.19380   0.00000  Uiso   1.00
H339   H     0.31694   0.77745   0.16315   0.00000  Uiso   1.00
H340   H     0.29614   0.81469   0.20876   0.00000  Uiso   1.00
C341   C     0.00669   0.70597   0.30224   0.00000  Uiso   1.00
H342   H     0.30764   0.68740   0.31549   0.00000  Uiso   1.00
H343   H     0.02966   0.68058   0.28547   0.00000  Uiso   1.00
H344   H     0.03079   0.72193   0.33348   0.00000  Uiso   1.00
C345   C     0.15552   0.52514   0.33873   0.00000  Uiso   1.00
H346   H     0.11373   0.52898   0.34247   0.00000  Uiso   1.00
H347   H     0.16468   0.98899   0.33961   0.00000  Uiso   1.00
H348   H     0.17957   0.54152   0.36976   0.00000  Uiso   1.00
C349   C     0.27768   0.97140   0.26321   0.00000  Uiso   1.00
H350   H     0.28280   0.99134   0.23163   0.00000  Uiso   1.00
H351   H     0.28261   0.99369   0.29519   0.00000  Uiso   1.00
H352   H     0.30884   0.94612   0.26765   0.00000  Uiso   1.00
N353   N     0.20575   0.61352   0.17241   0.00000  Uiso   1.00
H354   H     0.19741   0.59531   0.14108   0.00000  Uiso   1.00
C355   C     0.25887   0.63057   0.17955   0.00000  Uiso   1.00
H356   H     0.28660   0.60241   0.18402   0.00000  Uiso   1.00
H357   H     0.26578   0.65306   0.21136   0.00000  Uiso   1.00
H358   H     0.26624   0.65009   0.14825   0.00000  Uiso   1.00
N359   N     0.07409   0.88796   0.24507   0.00000  Uiso   1.00
H360   H     0.04577   0.90480   0.22352   0.00000  Uiso   1.00
C361   C     0.05764   0.87762   0.29025   0.00000  Uiso   1.00
H362   H     0.05457   0.90886   0.31140   0.00000  Uiso   1.00
H363   H     0.08553   0.85495   0.31063   0.00000  Uiso   1.00
H364   H     0.01891   0.86050   0.28426   0.00000  Uiso   1.00
C365   C     0.08309   0.70475   0.11294   0.00000  Uiso   1.00
H366   H     0.09635   0.68393   0.14384   0.00000  Uiso   1.00
H367   H     0.05446   0.72980   0.12144   0.00000  Uiso   1.00
H368   H     0.06237   0.68172   0.08531   0.00000  Uiso   1.00
C369   C     0.21085   0.82584   0.38335   0.00000  Uiso   1.00
H370   H     0.23534   0.84552   0.41179   0.00000  Uiso   1.00
H371   H     0.23700   0.81588   0.35747   0.00000  Uiso   1.00
H372   H     0.17966   0.84831   0.36766   0.00000  Uiso   1.00
N373   N     0.25886   0.78341   0.04421   0.00000  Uiso   1.00
H374   H     0.27781   0.80819   0.06604   0.00000  Uiso   1.00
C375   C     0.29408   0.74900   0.03263   0.00000  Uiso   1.00
H376   H     0.32924   0.76480   0.02123   0.00000  Uiso   1.00
H377   H     0.27522   0.72707   0.00313   0.00000  Uiso   1.00
H378   H     0.30629   0.72832   0.06415   0.00000  Uiso   1.00
N379   N     0.13944   0.66695   0.46289   0.00000  Uiso   1.00
H380   H     0.11279   0.64797   0.44034   0.00000  Uiso   1.00
C381   C     0.18338   0.64091   0.48317   0.00000  Uiso   1.00
H382   H     0.16905   0.61010   0.49877   0.00000  Uiso   1.00
H383   H     0.20796   0.66022   0.01179   0.00000  Uiso   1.00
H384   H     0.20735   0.63112   0.45526   0.00000  Uiso   1.00
C385   C     0.50144   0.66375   0.24983   0.00000  Uiso   1.00
C386   C     0.49973   0.83581   0.25037   0.00000  Uiso   1.00
C387   C     0.46312   0.72752   0.04638   0.00000  Uiso   1.00
C388   C     0.52065   0.78394   0.45205   0.00000  Uiso   1.00
C389   C     0.46164   0.72810   0.09561   0.00000  Uiso   1.00
C390   C     0.52041   0.78524   0.40268   0.00000  Uiso   1.00
C391   C     0.54044   0.77002   0.10847   0.00000  Uiso   1.00
C392   C     0.48305   0.71237   0.39387   0.00000  Uiso   1.00
C393   C     0.54575   0.76672   0.05967   0.00000  Uiso   1.00
C394   C     0.48656   0.70846   0.44377   0.00000  Uiso   1.00
C395   C     0.50540   0.74594   0.02729   0.00000  Uiso   1.00
C396   C     0.50475   0.74552   0.47387   0.00000  Uiso   1.00
C397   C     0.40072   0.75029   0.23811   0.00000  Uiso   1.00
C398   C     0.59934   0.74949   0.26199   0.00000  Uiso   1.00
C399   C     0.34725   0.75912   0.23400   0.00000  Uiso   1.00
C400   C     0.65312   0.74136   0.26661   0.00000  Uiso   1.00
C401   C     0.50005   0.54717   0.29381   0.00000  Uiso   1.00
C402   C     0.55756   0.94973   0.25696   0.00000  Uiso   1.00
C403   C     0.49547   0.59316   0.29081   0.00000  Uiso   1.00
C404   C     0.55245   0.90337   0.25597   0.00000  Uiso   1.00
C405   C     0.50663   0.61552   0.25040   0.00000  Uiso   1.00
C406   C     0.50299   0.88337   0.25184   0.00000  Uiso   1.00
C407   C     0.52389   0.59156   0.21246   0.00000  Uiso   1.00
C408   C     0.45763   0.90870   0.24864   0.00000  Uiso   1.00
C409   C     0.52619   0.54525   0.21459   0.00000  Uiso   1.00
C410   C     0.46248   0.95490   0.24824   0.00000  Uiso   1.00
C411   C     0.51434   0.52334   0.25472   0.00000  Uiso   1.00
C412   C     0.51194   0.97517   0.25294   0.00000  Uiso   1.00
H413   H     0.48294   0.61145   0.32035   0.00000  Uiso   1.00
H414   H     0.58679   0.88270   0.25868   0.00000  Uiso   1.00
H415   H     0.53718   0.52618   0.18486   0.00000  Uiso   1.00
H416   H     0.42782   0.97519   0.24543   0.00000  Uiso   1.00
H417   H     0.43060   0.71292   0.02286   0.00000  Uiso   1.00
H418   H     0.53342   0.81336   0.47351   0.00000  Uiso   1.00
H419   H     0.56939   0.78797   0.13255   0.00000  Uiso   1.00
H420   H     0.46836   0.68431   0.37118   0.00000  Uiso   1.00
N421   N     0.50000   0.74999   0.12624   0.00000  Uiso   1.00
N422   N     0.50000   0.75001   0.37377   0.00000  Uiso   1.00
O423   O     0.50000   0.68454   0.28974   0.00000  Uiso   1.00
O424   O     0.50000   0.81547   0.21026   0.00000  Uiso   1.00
O425   O     0.50000   0.68453   0.21026   0.00000  Uiso   1.00
O426   O     0.50000   0.81547   0.28974   0.00000  Uiso   1.00
O427   O     0.42392   0.75000   0.28045   0.00000  Uiso   1.00
O428   O     0.57608   0.75000   0.21956   0.00000  Uiso   1.00
O429   O     0.42392   0.75000   0.20097   0.00000  Uiso   1.00
O430   O     0.57608   0.75001   0.29904   0.00000  Uiso   1.00
Zn431  Zn    0.50000   0.75001   0.30307   0.00000  Uiso   1.00
Zn432  Zn    0.50000   0.75000   0.19693   0.00000  Uiso   1.00
C433   C     0.66155   0.79431   0.19805   0.00000  Uiso   1.00
H434   H     0.36003   0.81855   0.19380   0.00000  Uiso   1.00
H435   H     0.65027   0.77745   0.16315   0.00000  Uiso   1.00
H436   H     0.62947   0.81469   0.20876   0.00000  Uiso   1.00
C437   C     0.34002   0.70597   0.30224   0.00000  Uiso   1.00
H438   H     0.64098   0.68740   0.31549   0.00000  Uiso   1.00
H439   H     0.36299   0.68058   0.28547   0.00000  Uiso   1.00
H440   H     0.36413   0.72193   0.33348   0.00000  Uiso   1.00
C441   C     0.48886   0.52514   0.33873   0.00000  Uiso   1.00
H442   H     0.44706   0.52898   0.34247   0.00000  Uiso   1.00
H443   H     0.49802   0.98899   0.33961   0.00000  Uiso   1.00
H444   H     0.51291   0.54152   0.36976   0.00000  Uiso   1.00
C445   C     0.61101   0.97140   0.26321   0.00000  Uiso   1.00
H446   H     0.61614   0.99134   0.23163   0.00000  Uiso   1.00
H447   H     0.61594   0.99369   0.29519   0.00000  Uiso   1.00
H448   H     0.64218   0.94612   0.26765   0.00000  Uiso   1.00
N449   N     0.53908   0.61352   0.17241   0.00000  Uiso   1.00
H450   H     0.53075   0.59531   0.14108   0.00000  Uiso   1.00
C451   C     0.59220   0.63057   0.17955   0.00000  Uiso   1.00
H452   H     0.61994   0.60241   0.18402   0.00000  Uiso   1.00
H453   H     0.59912   0.65306   0.21136   0.00000  Uiso   1.00
H454   H     0.59957   0.65009   0.14825   0.00000  Uiso   1.00
N455   N     0.40742   0.88796   0.24507   0.00000  Uiso   1.00
H456   H     0.37910   0.90480   0.22352   0.00000  Uiso   1.00
C457   C     0.39097   0.87762   0.29025   0.00000  Uiso   1.00
H458   H     0.38791   0.90886   0.31140   0.00000  Uiso   1.00
H459   H     0.41886   0.85495   0.31063   0.00000  Uiso   1.00
H460   H     0.35225   0.86050   0.28426   0.00000  Uiso   1.00
C461   C     0.41642   0.70475   0.11294   0.00000  Uiso   1.00
H462   H     0.42968   0.68393   0.14384   0.00000  Uiso   1.00
H463   H     0.38779   0.72980   0.12144   0.00000  Uiso   1.00
H464   H     0.39570   0.68172   0.08531   0.00000  Uiso   1.00
C465   C     0.54419   0.82584   0.38335   0.00000  Uiso   1.00
H466   H     0.56867   0.84552   0.41179   0.00000  Uiso   1.00
H467   H     0.57034   0.81588   0.35747   0.00000  Uiso   1.00
H468   H     0.51299   0.84831   0.36766   0.00000  Uiso   1.00
N469   N     0.59220   0.78341   0.04421   0.00000  Uiso   1.00
H470   H     0.61114   0.80819   0.06604   0.00000  Uiso   1.00
C471   C     0.62741   0.74900   0.03263   0.00000  Uiso   1.00
H472   H     0.66258   0.76480   0.02123   0.00000  Uiso   1.00
H473   H     0.60855   0.72707   0.00313   0.00000  Uiso   1.00
H474   H     0.63962   0.72832   0.06415   0.00000  Uiso   1.00
N475   N     0.47277   0.66695   0.46289   0.00000  Uiso   1.00
H476   H     0.44613   0.64797   0.44034   0.00000  Uiso   1.00
C477   C     0.51671   0.64091   0.48317   0.00000  Uiso   1.00
H478   H     0.50239   0.61010   0.49877   0.00000  Uiso   1.00
H479   H     0.54130   0.66022   0.01179   0.00000  Uiso   1.00
H480   H     0.54068   0.63112   0.45526   0.00000  Uiso   1.00
C481   C     0.83478   0.66375   0.24983   0.00000  Uiso   1.00
C482   C     0.83306   0.83581   0.25037   0.00000  Uiso   1.00
C483   C     0.79645   0.72752   0.04638   0.00000  Uiso   1.00
C484   C     0.85399   0.78394   0.45205   0.00000  Uiso   1.00
C485   C     0.79497   0.72810   0.09561   0.00000  Uiso   1.00
C486   C     0.85374   0.78524   0.40268   0.00000  Uiso   1.00
C487   C     0.87377   0.77002   0.10847   0.00000  Uiso   1.00
C488   C     0.81638   0.71237   0.39387   0.00000  Uiso   1.00
C489   C     0.87908   0.76672   0.05967   0.00000  Uiso   1.00
C490   C     0.81989   0.70846   0.44377   0.00000  Uiso   1.00
C491   C     0.83873   0.74594   0.02729   0.00000  Uiso   1.00
C492   C     0.83808   0.74552   0.47387   0.00000  Uiso   1.00
C493   C     0.73405   0.75029   0.23811   0.00000  Uiso   1.00
C494   C     0.93268   0.74949   0.26199   0.00000  Uiso   1.00
C495   C     0.68058   0.75912   0.23400   0.00000  Uiso   1.00
C496   C     0.98645   0.74136   0.26661   0.00000  Uiso   1.00
C497   C     0.83338   0.54717   0.29381   0.00000  Uiso   1.00
C498   C     0.89089   0.94973   0.25696   0.00000  Uiso   1.00
C499   C     0.82881   0.59316   0.29081   0.00000  Uiso   1.00
C500   C     0.88578   0.90337   0.25597   0.00000  Uiso   1.00
C501   C     0.83997   0.61552   0.25040   0.00000  Uiso   1.00
C502   C     0.83632   0.88337   0.25184   0.00000  Uiso   1.00
C503   C     0.85722   0.59156   0.21246   0.00000  Uiso   1.00
C504   C     0.79097   0.90870   0.24864   0.00000  Uiso   1.00
C505   C     0.85952   0.54525   0.21459   0.00000  Uiso   1.00
C506   C     0.79581   0.95490   0.24824   0.00000  Uiso   1.00
C507   C     0.84767   0.52334   0.25472   0.00000  Uiso   1.00
C508   C     0.84527   0.97517   0.25294   0.00000  Uiso   1.00
H509   H     0.81628   0.61145   0.32035   0.00000  Uiso   1.00
H510   H     0.92012   0.88270   0.25868   0.00000  Uiso   1.00
H511   H     0.87051   0.52618   0.18486   0.00000  Uiso   1.00
H512   H     0.76116   0.97519   0.24543   0.00000  Uiso   1.00
H513   H     0.76393   0.71292   0.02286   0.00000  Uiso   1.00
H514   H     0.86675   0.81336   0.47351   0.00000  Uiso   1.00
H515   H     0.90273   0.78797   0.13255   0.00000  Uiso   1.00
H516   H     0.80170   0.68431   0.37118   0.00000  Uiso   1.00
N517   N     0.83333   0.74999   0.12624   0.00000  Uiso   1.00
N518   N     0.83333   0.75001   0.37377   0.00000  Uiso   1.00
O519   O     0.83334   0.68454   0.28974   0.00000  Uiso   1.00
O520   O     0.83333   0.81547   0.21026   0.00000  Uiso   1.00
O521   O     0.83334   0.68453   0.21026   0.00000  Uiso   1.00
O522   O     0.83333   0.81547   0.28974   0.00000  Uiso   1.00
O523   O     0.75725   0.75000   0.28045   0.00000  Uiso   1.00
O524   O     0.90942   0.75000   0.21956   0.00000  Uiso   1.00
O525   O     0.75725   0.75000   0.20097   0.00000  Uiso   1.00
O526   O     0.90942   0.75001   0.29904   0.00000  Uiso   1.00
Zn527  Zn    0.83333   0.75001   0.30307   0.00000  Uiso   1.00
Zn528  Zn    0.83333   0.75000   0.19693   0.00000  Uiso   1.00
C529   C     0.99488   0.79431   0.19805   0.00000  Uiso   1.00
H530   H     0.69336   0.81855   0.19380   0.00000  Uiso   1.00
H531   H     0.98360   0.77745   0.16315   0.00000  Uiso   1.00
H532   H     0.96280   0.81469   0.20876   0.00000  Uiso   1.00
C533   C     0.67336   0.70597   0.30224   0.00000  Uiso   1.00
H534   H     0.97431   0.68740   0.31549   0.00000  Uiso   1.00
H535   H     0.69632   0.68058   0.28547   0.00000  Uiso   1.00
H536   H     0.69746   0.72193   0.33348   0.00000  Uiso   1.00
C537   C     0.82219   0.52514   0.33873   0.00000  Uiso   1.00
H538   H     0.78039   0.52898   0.34247   0.00000  Uiso   1.00
H539   H     0.83135   0.98899   0.33961   0.00000  Uiso   1.00
H540   H     0.84624   0.54152   0.36976   0.00000  Uiso   1.00
C541   C     0.94435   0.97140   0.26321   0.00000  Uiso   1.00
H542   H     0.94947   0.99134   0.23163   0.00000  Uiso   1.00
H543   H     0.94928   0.99369   0.29519   0.00000  Uiso   1.00
H544   H     0.97551   0.94612   0.26765   0.00000  Uiso   1.00
N545   N     0.87241   0.61352   0.17241   0.00000  Uiso   1.00
H546   H     0.86408   0.59531   0.14108   0.00000  Uiso   1.00
C547   C     0.92554   0.63057   0.17955   0.00000  Uiso   1.00
H548   H     0.95327   0.60241   0.18402   0.00000  Uiso   1.00
H549   H     0.93245   0.65306   0.21136   0.00000  Uiso   1.00
H550   H     0.93291   0.65009   0.14825   0.00000  Uiso   1.00
N551   N     0.74076   0.88796   0.24507   0.00000  Uiso   1.00
H552   H     0.71244   0.90480   0.22352   0.00000  Uiso   1.00
C553   C     0.72430   0.87762   0.29025   0.00000  Uiso   1.00
H554   H     0.72124   0.90886   0.31140   0.00000  Uiso   1.00
H555   H     0.75219   0.85495   0.31063   0.00000  Uiso   1.00
H556   H     0.68558   0.86050   0.28426   0.00000  Uiso   1.00
C557   C     0.74975   0.70475   0.11294   0.00000  Uiso   1.00
H558   H     0.76301   0.68393   0.14384   0.00000  Uiso   1.00
H559   H     0.72113   0.72980   0.12144   0.00000  Uiso   1.00
H560   H     0.72904   0.68172   0.08531   0.00000  Uiso   1.00
C561   C     0.87752   0.82584   0.38335   0.00000  Uiso   1.00
H562   H     0.90200   0.84552   0.41179   0.00000  Uiso   1.00
H563   H     0.90367   0.81588   0.35747   0.00000  Uiso   1.00
H564   H     0.84632   0.84831   0.36766   0.00000  Uiso   1.00
N565   N     0.92553   0.78341   0.04421   0.00000  Uiso   1.00
H566   H     0.94447   0.80819   0.06604   0.00000  Uiso   1.00
C567   C     0.96075   0.74900   0.03263   0.00000  Uiso   1.00
H568   H     0.99591   0.76480   0.02123   0.00000  Uiso   1.00
H569   H     0.94189   0.72707   0.00313   0.00000  Uiso   1.00
H570   H     0.97296   0.72832   0.06415   0.00000  Uiso   1.00
N571   N     0.80611   0.66695   0.46289   0.00000  Uiso   1.00
H572   H     0.77946   0.64797   0.44034   0.00000  Uiso   1.00
C573   C     0.85005   0.64091   0.48317   0.00000  Uiso   1.00
H574   H     0.83572   0.61010   0.49877   0.00000  Uiso   1.00
H575   H     0.87463   0.66022   0.01179   0.00000  Uiso   1.00
H576   H     0.87402   0.63112   0.45526   0.00000  Uiso   1.00
C577   C     0.16811   0.16375   0.74983   0.00000  Uiso   1.00
C578   C     0.16639   0.33581   0.75037   0.00000  Uiso   1.00
C579   C     0.12978   0.22752   0.54638   0.00000  Uiso   1.00
C580   C     0.18732   0.28394   0.95205   0.00000  Uiso   1.00
C581   C     0.12830   0.22810   0.59561   0.00000  Uiso   1.00
C582   C     0.18707   0.28524   0.90268   0.00000  Uiso   1.00
C583   C     0.20711   0.27002   0.60847   0.00000  Uiso   1.00
C584   C     0.14971   0.21237   0.89387   0.00000  Uiso   1.00
C585   C     0.21241   0.26672   0.55967   0.00000  Uiso   1.00
C586   C     0.15323   0.20846   0.94377   0.00000  Uiso   1.00
C587   C     0.17207   0.24594   0.52729   0.00000  Uiso   1.00
C588   C     0.17142   0.24552   0.97387   0.00000  Uiso   1.00
C589   C     0.06739   0.25029   0.73811   0.00000  Uiso   1.00
C590   C     0.26601   0.24949   0.76199   0.00000  Uiso   1.00
C591   C     0.01392   0.25912   0.73400   0.00000  Uiso   1.00
C592   C     0.31979   0.24136   0.76661   0.00000  Uiso   1.00
C593   C     0.16671   0.04717   0.79381   0.00000  Uiso   1.00
C594   C     0.22422   0.44973   0.75696   0.00000  Uiso   1.00
C595   C     0.16214   0.09316   0.79081   0.00000  Uiso   1.00
C596   C     0.21911   0.40337   0.75597   0.00000  Uiso   1.00
C597   C     0.17330   0.11552   0.75040   0.00000  Uiso   1.00
C598   C     0.16965   0.38337   0.75184   0.00000  Uiso   1.00
C599   C     0.19055   0.09156   0.71246   0.00000  Uiso   1.00
C600   C     0.12430   0.40870   0.74864   0.00000  Uiso   1.00
C601   C     0.19286   0.04525   0.71459   0.00000  Uiso   1.00
C602   C     0.12915   0.45490   0.74824   0.00000  Uiso   1.00
C603   C     0.18100   0.02334   0.75472   0.00000  Uiso   1.00
C604   C     0.17861   0.47517   0.75294   0.00000  Uiso   1.00
H605   H     0.14961   0.11145   0.82035   0.00000  Uiso   1.00
H606   H     0.25346   0.38270   0.75868   0.00000  Uiso   1.00
H607   H     0.20384   0.02618   0.68486   0.00000  Uiso   1.00
H608   H     0.09449   0.47519   0.74543   0.00000  Uiso   1.00
H609   H     0.09727   0.21292   0.52286   0.00000  Uiso   1.00
H610   H     0.20009   0.31336   0.97351   0.00000  Uiso   1.00
H611   H     0.23606   0.28797   0.63255   0.00000  Uiso   1.00
H612   H     0.13503   0.18431   0.87118   0.00000  Uiso   1.00
N613   N     0.16667   0.24999   0.62624   0.00000  Uiso   1.00
N614   N     0.16667   0.25001   0.87377   0.00000  Uiso   1.00
O615   O     0.16667   0.18454   0.78974   0.00000  Uiso   1.00
O616   O     0.16666   0.31547   0.71026   0.00000  Uiso   1.00
O617   O     0.16667   0.18453   0.71026   0.00000  Uiso   1.00
O618   O     0.16666   0.31547   0.78974   0.00000  Uiso   1.00
O619   O     0.09058   0.25000   0.78045   0.00000  Uiso   1.00
O620   O     0.24275   0.25000   0.71956   0.00000  Uiso   1.00
O621   O     0.09058   0.25000   0.70097   0.00000  Uiso   1.00
O622   O     0.24275   0.25001   0.79904   0.00000  Uiso   1.00
Zn623  Zn    0.16667   0.25001   0.80307   0.00000  Uiso   1.00
Zn624  Zn    0.16667   0.25000   0.69693   0.00000  Uiso   1.00
C625   C     0.32821   0.29431   0.69805   0.00000  Uiso   1.00
H626   H     0.02670   0.31855   0.69380   0.00000  Uiso   1.00
H627   H     0.31694   0.27745   0.66315   0.00000  Uiso   1.00
H628   H     0.29614   0.31469   0.70876   0.00000  Uiso   1.00
C629   C     0.00669   0.20597   0.80224   0.00000  Uiso   1.00
H630   H     0.30764   0.18740   0.81549   0.00000  Uiso   1.00
H631   H     0.02966   0.18058   0.78547   0.00000  Uiso   1.00
H632   H     0.03079   0.22193   0.83348   0.00000  Uiso   1.00
C633   C     0.15552   0.02514   0.83873   0.00000  Uiso   1.00
H634   H     0.11373   0.02898   0.84247   0.00000  Uiso   1.00
H635   H     0.16468   0.48899   0.83961   0.00000  Uiso   1.00
H636   H     0.17957   0.04152   0.86976   0.00000  Uiso   1.00
C637   C     0.27768   0.47140   0.76321   0.00000  Uiso   1.00
H638   H     0.28280   0.49134   0.73163   0.00000  Uiso   1.00
H639   H     0.28261   0.49369   0.79519   0.00000  Uiso   1.00
H640   H     0.30884   0.44612   0.76765   0.00000  Uiso   1.00
N641   N     0.20575   0.11352   0.67241   0.00000  Uiso   1.00
H642   H     0.19741   0.09531   0.64108   0.00000  Uiso   1.00
C643   C     0.25887   0.13057   0.67955   0.00000  Uiso   1.00
H644   H     0.28660   0.10241   0.68402   0.00000  Uiso   1.00
H645   H     0.26578   0.15306   0.71136   0.00000  Uiso   1.00
H646   H     0.26624   0.15009   0.64825   0.00000  Uiso   1.00
N647   N     0.07409   0.38796   0.74507   0.00000  Uiso   1.00
H648   H     0.04577   0.40480   0.72352   0.00000  Uiso   1.00
C649   C     0.05764   0.37762   0.79025   0.00000  Uiso   1.00
H650   H     0.05457   0.40886   0.81140   0.00000  Uiso   1.00
H651   H     0.08553   0.35495   0.81063   0.00000  Uiso   1.00
H652   H     0.01891   0.36050   0.78426   0.00000  Uiso   1.00
C653   C     0.08309   0.20475   0.61294   0.00000  Uiso   1.00
H654   H     0.09635   0.18393   0.64384   0.00000  Uiso   1.00
H655   H     0.05446   0.22980   0.62144   0.00000  Uiso   1.00
H656   H     0.06237   0.18172   0.58531   0.00000  Uiso   1.00
C657   C     0.21085   0.32584   0.88335   0.00000  Uiso   1.00
H658   H     0.23534   0.34552   0.91179   0.00000  Uiso   1.00
H659   H     0.23700   0.31588   0.85747   0.00000  Uiso   1.00
H660   H     0.17966   0.34831   0.86766   0.00000  Uiso   1.00
N661   N     0.25886   0.28341   0.54421   0.00000  Uiso   1.00
H662   H     0.27781   0.30819   0.56604   0.00000  Uiso   1.00
C663   C     0.29408   0.24900   0.53263   0.00000  Uiso   1.00
H664   H     0.32924   0.26480   0.52123   0.00000  Uiso   1.00
H665   H     0.27522   0.22707   0.50313   0.00000  Uiso   1.00
H666   H     0.30629   0.22832   0.56415   0.00000  Uiso   1.00
N667   N     0.13944   0.16695   0.96289   0.00000  Uiso   1.00
H668   H     0.11279   0.14797   0.94034   0.00000  Uiso   1.00
C669   C     0.18338   0.14091   0.98317   0.00000  Uiso   1.00
H670   H     0.16905   0.11010   0.99877   0.00000  Uiso   1.00
H671   H     0.20796   0.16022   0.51179   0.00000  Uiso   1.00
H672   H     0.20735   0.13112   0.95526   0.00000  Uiso   1.00
C673   C     0.50144   0.16375   0.74983   0.00000  Uiso   1.00
C674   C     0.49973   0.33581   0.75037   0.00000  Uiso   1.00
C675   C     0.46312   0.22752   0.54638   0.00000  Uiso   1.00
C676   C     0.52065   0.28394   0.95205   0.00000  Uiso   1.00
C677   C     0.46164   0.22810   0.59561   0.00000  Uiso   1.00
C678   C     0.52041   0.28524   0.90268   0.00000  Uiso   1.00
C679   C     0.54044   0.27002   0.60847   0.00000  Uiso   1.00
C680   C     0.48305   0.21237   0.89387   0.00000  Uiso   1.00
C681   C     0.54575   0.26672   0.55967   0.00000  Uiso   1.00
C682   C     0.48656   0.20846   0.94377   0.00000  Uiso   1.00
C683   C     0.50540   0.24594   0.52729   0.00000  Uiso   1.00
C684   C     0.50475   0.24552   0.97387   0.00000  Uiso   1.00
C685   C     0.40072   0.25029   0.73811   0.00000  Uiso   1.00
C686   C     0.59934   0.24949   0.76199   0.00000  Uiso   1.00
C687   C     0.34725   0.25912   0.73400   0.00000  Uiso   1.00
C688   C     0.65312   0.24136   0.76661   0.00000  Uiso   1.00
C689   C     0.50005   0.04717   0.79381   0.00000  Uiso   1.00
C690   C     0.55756   0.44973   0.75696   0.00000  Uiso   1.00
C691   C     0.49547   0.09316   0.79081   0.00000  Uiso   1.00
C692   C     0.55245   0.40337   0.75597   0.00000  Uiso   1.00
C693   C     0.50663   0.11552   0.75040   0.00000  Uiso   1.00
C694   C     0.50299   0.38337   0.75184   0.00000  Uiso   1.00
C695   C     0.52389   0.09156   0.71246   0.00000  Uiso   1.00
C696   C     0.45763   0.40870   0.74864   0.00000  Uiso   1.00
C697   C     0.52619   0.04525   0.71459   0.00000  Uiso   1.00
C698   C     0.46248   0.45490   0.74824   0.00000  Uiso   1.00
C699   C     0.51434   0.02334   0.75472   0.00000  Uiso   1.00
C700   C     0.51194   0.47517   0.75294   0.00000  Uiso   1.00
H701   H     0.48294   0.11145   0.82035   0.00000  Uiso   1.00
H702   H     0.58679   0.38270   0.75868   0.00000  Uiso   1.00
H703   H     0.53718   0.02618   0.68486   0.00000  Uiso   1.00
H704   H     0.42782   0.47519   0.74543   0.00000  Uiso   1.00
H705   H     0.43060   0.21292   0.52286   0.00000  Uiso   1.00
H706   H     0.53342   0.31336   0.97351   0.00000  Uiso   1.00
H707   H     0.56939   0.28797   0.63255   0.00000  Uiso   1.00
H708   H     0.46836   0.18431   0.87118   0.00000  Uiso   1.00
N709   N     0.50000   0.24999   0.62624   0.00000  Uiso   1.00
N710   N     0.50000   0.25001   0.87377   0.00000  Uiso   1.00
O711   O     0.50000   0.18454   0.78974   0.00000  Uiso   1.00
O712   O     0.50000   0.31547   0.71026   0.00000  Uiso   1.00
O713   O     0.50000   0.18453   0.71026   0.00000  Uiso   1.00
O714   O     0.50000   0.31547   0.78974   0.00000  Uiso   1.00
O715   O     0.42392   0.25000   0.78045   0.00000  Uiso   1.00
O716   O     0.57608   0.25000   0.71956   0.00000  Uiso   1.00
O717   O     0.42392   0.25000   0.70097   0.00000  Uiso   1.00
O718   O     0.57608   0.25001   0.79904   0.00000  Uiso   1.00
Zn719  Zn    0.50000   0.25001   0.80307   0.00000  Uiso   1.00
Zn720  Zn    0.50000   0.25000   0.69693   0.00000  Uiso   1.00
C721   C     0.66155   0.29431   0.69805   0.00000  Uiso   1.00
H722   H     0.36003   0.31855   0.69380   0.00000  Uiso   1.00
H723   H     0.65027   0.27745   0.66315   0.00000  Uiso   1.00
H724   H     0.62947   0.31469   0.70876   0.00000  Uiso   1.00
C725   C     0.34002   0.20597   0.80224   0.00000  Uiso   1.00
H726   H     0.64098   0.18740   0.81549   0.00000  Uiso   1.00
H727   H     0.36299   0.18058   0.78547   0.00000  Uiso   1.00
H728   H     0.36413   0.22193   0.83348   0.00000  Uiso   1.00
C729   C     0.48886   0.02514   0.83873   0.00000  Uiso   1.00
H730   H     0.44706   0.02898   0.84247   0.00000  Uiso   1.00
H731   H     0.49802   0.48899   0.83961   0.00000  Uiso   1.00
H732   H     0.51291   0.04152   0.86976   0.00000  Uiso   1.00
C733   C     0.61101   0.47140   0.76321   0.00000  Uiso   1.00
H734   H     0.61614   0.49134   0.73163   0.00000  Uiso   1.00
H735   H     0.61594   0.49369   0.79519   0.00000  Uiso   1.00
H736   H     0.64218   0.44612   0.76765   0.00000  Uiso   1.00
N737   N     0.53908   0.11352   0.67241   0.00000  Uiso   1.00
H738   H     0.53075   0.09531   0.64108   0.00000  Uiso   1.00
C739   C     0.59220   0.13057   0.67955   0.00000  Uiso   1.00
H740   H     0.61994   0.10241   0.68402   0.00000  Uiso   1.00
H741   H     0.59912   0.15306   0.71136   0.00000  Uiso   1.00
H742   H     0.59957   0.15009   0.64825   0.00000  Uiso   1.00
N743   N     0.40742   0.38796   0.74507   0.00000  Uiso   1.00
H744   H     0.37910   0.40480   0.72352   0.00000  Uiso   1.00
C745   C     0.39097   0.37762   0.79025   0.00000  Uiso   1.00
H746   H     0.38791   0.40886   0.81140   0.00000  Uiso   1.00
H747   H     0.41886   0.35495   0.81063   0.00000  Uiso   1.00
H748   H     0.35225   0.36050   0.78426   0.00000  Uiso   1.00
C749   C     0.41642   0.20475   0.61294   0.00000  Uiso   1.00
H750   H     0.42968   0.18393   0.64384   0.00000  Uiso   1.00
H751   H     0.38779   0.22980   0.62144   0.00000  Uiso   1.00
H752   H     0.39570   0.18172   0.58531   0.00000  Uiso   1.00
C753   C     0.54419   0.32584   0.88335   0.00000  Uiso   1.00
H754   H     0.56867   0.34552   0.91179   0.00000  Uiso   1.00
H755   H     0.57034   0.31588   0.85747   0.00000  Uiso   1.00
H756   H     0.51299   0.34831   0.86766   0.00000  Uiso   1.00
N757   N     0.59220   0.28341   0.54421   0.00000  Uiso   1.00
H758   H     0.61114   0.30819   0.56604   0.00000  Uiso   1.00
C759   C     0.62741   0.24900   0.53263   0.00000  Uiso   1.00
H760   H     0.66258   0.26480   0.52123   0.00000  Uiso   1.00
H761   H     0.60855   0.22707   0.50313   0.00000  Uiso   1.00
H762   H     0.63962   0.22832   0.56415   0.00000  Uiso   1.00
N763   N     0.47277   0.16695   0.96289   0.00000  Uiso   1.00
H764   H     0.44613   0.14797   0.94034   0.00000  Uiso   1.00
C765   C     0.51671   0.14091   0.98317   0.00000  Uiso   1.00
H766   H     0.50239   0.11010   0.99877   0.00000  Uiso   1.00
H767   H     0.54130   0.16022   0.51179   0.00000  Uiso   1.00
H768   H     0.54068   0.13112   0.95526   0.00000  Uiso   1.00
C769   C     0.83478   0.16375   0.74983   0.00000  Uiso   1.00
C770   C     0.83306   0.33581   0.75037   0.00000  Uiso   1.00
C771   C     0.79645   0.22752   0.54638   0.00000  Uiso   1.00
C772   C     0.85399   0.28394   0.95205   0.00000  Uiso   1.00
C773   C     0.79497   0.22810   0.59561   0.00000  Uiso   1.00
C774   C     0.85374   0.28524   0.90268   0.00000  Uiso   1.00
C775   C     0.87377   0.27002   0.60847   0.00000  Uiso   1.00
C776   C     0.81638   0.21237   0.89387   0.00000  Uiso   1.00
C777   C     0.87908   0.26672   0.55967   0.00000  Uiso   1.00
C778   C     0.81989   0.20846   0.94377   0.00000  Uiso   1.00
C779   C     0.83873   0.24594   0.52729   0.00000  Uiso   1.00
C780   C     0.83808   0.24552   0.97387   0.00000  Uiso   1.00
C781   C     0.73405   0.25029   0.73811   0.00000  Uiso   1.00
C782   C     0.93268   0.24949   0.76199   0.00000  Uiso   1.00
C783   C     0.68058   0.25912   0.73400   0.00000  Uiso   1.00
C784   C     0.98645   0.24136   0.76661   0.00000  Uiso   1.00
C785   C     0.83338   0.04717   0.79381   0.00000  Uiso   1.00
C786   C     0.89089   0.44973   0.75696   0.00000  Uiso   1.00
C787   C     0.82881   0.09316   0.79081   0.00000  Uiso   1.00
C788   C     0.88578   0.40337   0.75597   0.00000  Uiso   1.00
C789   C     0.83997   0.11552   0.75040   0.00000  Uiso   1.00
C790   C     0.83632   0.38337   0.75184   0.00000  Uiso   1.00
C791   C     0.85722   0.09156   0.71246   0.00000  Uiso   1.00
C792   C     0.79097   0.40870   0.74864   0.00000  Uiso   1.00
C793   C     0.85952   0.04525   0.71459   0.00000  Uiso   1.00
C794   C     0.79581   0.45490   0.74824   0.00000  Uiso   1.00
C795   C     0.84767   0.02334   0.75472   0.00000  Uiso   1.00
C796   C     0.84527   0.47517   0.75294   0.00000  Uiso   1.00
H797   H     0.81628   0.11145   0.82035   0.00000  Uiso   1.00
H798   H     0.92012   0.38270   0.75868   0.00000  Uiso   1.00
H799   H     0.87051   0.02618   0.68486   0.00000  Uiso   1.00
H800   H     0.76116   0.47519   0.74543   0.00000  Uiso   1.00
H801   H     0.76393   0.21292   0.52286   0.00000  Uiso   1.00
H802   H     0.86675   0.31336   0.97351   0.00000  Uiso   1.00
H803   H     0.90273   0.28797   0.63255   0.00000  Uiso   1.00
H804   H     0.80170   0.18431   0.87118   0.00000  Uiso   1.00
N805   N     0.83333   0.24999   0.62624   0.00000  Uiso   1.00
N806   N     0.83333   0.25001   0.87377   0.00000  Uiso   1.00
O807   O     0.83334   0.18454   0.78974   0.00000  Uiso   1.00
O808   O     0.83333   0.31547   0.71026   0.00000  Uiso   1.00
O809   O     0.83334   0.18453   0.71026   0.00000  Uiso   1.00
O810   O     0.83333   0.31547   0.78974   0.00000  Uiso   1.00
O811   O     0.75725   0.25000   0.78045   0.00000  Uiso   1.00
O812   O     0.90942   0.25000   0.71956   0.00000  Uiso   1.00
O813   O     0.75725   0.25000   0.70097   0.00000  Uiso   1.00
O814   O     0.90942   0.25001   0.79904   0.00000  Uiso   1.00
Zn815  Zn    0.83333   0.25001   0.80307   0.00000  Uiso   1.00
Zn816  Zn    0.83333   0.25000   0.69693   0.00000  Uiso   1.00
C817   C     0.99488   0.29431   0.69805   0.00000  Uiso   1.00
H818   H     0.69336   0.31855   0.69380   0.00000  Uiso   1.00
H819   H     0.98360   0.27745   0.66315   0.00000  Uiso   1.00
H820   H     0.96280   0.31469   0.70876   0.00000  Uiso   1.00
C821   C     0.67336   0.20597   0.80224   0.00000  Uiso   1.00
H822   H     0.97431   0.18740   0.81549   0.00000  Uiso   1.00
H823   H     0.69632   0.18058   0.78547   0.00000  Uiso   1.00
H824   H     0.69746   0.22193   0.83348   0.00000  Uiso   1.00
C825   C     0.82219   0.02514   0.83873   0.00000  Uiso   1.00
H826   H     0.78039   0.02898   0.84247   0.00000  Uiso   1.00
H827   H     0.83135   0.48899   0.83961   0.00000  Uiso   1.00
H828   H     0.84624   0.04152   0.86976   0.00000  Uiso   1.00
C829   C     0.94435   0.47140   0.76321   0.00000  Uiso   1.00
H830   H     0.94947   0.49134   0.73163   0.00000  Uiso   1.00
H831   H     0.94928   0.49369   0.79519   0.00000  Uiso   1.00
H832   H     0.97551   0.44612   0.76765   0.00000  Uiso   1.00
N833   N     0.87241   0.11352   0.67241   0.00000  Uiso   1.00
H834   H     0.86408   0.09531   0.64108   0.00000  Uiso   1.00
C835   C     0.92554   0.13057   0.67955   0.00000  Uiso   1.00
H836   H     0.95327   0.10241   0.68402   0.00000  Uiso   1.00
H837   H     0.93245   0.15306   0.71136   0.00000  Uiso   1.00
H838   H     0.93291   0.15009   0.64825   0.00000  Uiso   1.00
N839   N     0.74076   0.38796   0.74507   0.00000  Uiso   1.00
H840   H     0.71244   0.40480   0.72352   0.00000  Uiso   1.00
C841   C     0.72430   0.37762   0.79025   0.00000  Uiso   1.00
H842   H     0.72124   0.40886   0.81140   0.00000  Uiso   1.00
H843   H     0.75219   0.35495   0.81063   0.00000  Uiso   1.00
H844   H     0.68558   0.36050   0.78426   0.00000  Uiso   1.00
C845   C     0.74975   0.20475   0.61294   0.00000  Uiso   1.00
H846   H     0.76301   0.18393   0.64384   0.00000  Uiso   1.00
H847   H     0.72113   0.22980   0.62144   0.00000  Uiso   1.00
H848   H     0.72904   0.18172   0.58531   0.00000  Uiso   1.00
C849   C     0.87752   0.32584   0.88335   0.00000  Uiso   1.00
H850   H     0.90200   0.34552   0.91179   0.00000  Uiso   1.00
H851   H     0.90367   0.31588   0.85747   0.00000  Uiso   1.00
H852   H     0.84632   0.34831   0.86766   0.00000  Uiso   1.00
N853   N     0.92553   0.28341   0.54421   0.00000  Uiso   1.00
H854   H     0.94447   0.30819   0.56604   0.00000  Uiso   1.00
C855   C     0.96075   0.24900   0.53263   0.00000  Uiso   1.00
H856   H     0.99591   0.26480   0.52123   0.00000  Uiso   1.00
H857   H     0.94189   0.22707   0.50313   0.00000  Uiso   1.00
H858   H     0.97296   0.22832   0.56415   0.00000  Uiso   1.00
N859   N     0.80611   0.16695   0.96289   0.00000  Uiso   1.00
H860   H     0.77946   0.14797   0.94034   0.00000  Uiso   1.00
C861   C     0.85005   0.14091   0.98317   0.00000  Uiso   1.00
H862   H     0.83572   0.11010   0.99877   0.00000  Uiso   1.00
H863   H     0.87463   0.16022   0.51179   0.00000  Uiso   1.00
H864   H     0.87402   0.13112   0.95526   0.00000  Uiso   1.00
C865   C     0.16811   0.66375   0.74983   0.00000  Uiso   1.00
C866   C     0.16639   0.83581   0.75037   0.00000  Uiso   1.00
C867   C     0.12978   0.72752   0.54638   0.00000  Uiso   1.00
C868   C     0.18732   0.78394   0.95205   0.00000  Uiso   1.00
C869   C     0.12830   0.72810   0.59561   0.00000  Uiso   1.00
C870   C     0.18707   0.78524   0.90268   0.00000  Uiso   1.00
C871   C     0.20711   0.77002   0.60847   0.00000  Uiso   1.00
C872   C     0.14971   0.71237   0.89387   0.00000  Uiso   1.00
C873   C     0.21241   0.76672   0.55967   0.00000  Uiso   1.00
C874   C     0.15323   0.70846   0.94377   0.00000  Uiso   1.00
C875   C     0.17207   0.74594   0.52729   0.00000  Uiso   1.00
C876   C     0.17142   0.74552   0.97387   0.00000  Uiso   1.00
C877   C     0.06739   0.75029   0.73811   0.00000  Uiso   1.00
C878   C     0.26601   0.74949   0.76199   0.00000  Uiso   1.00
C879   C     0.01392   0.75912   0.73400   0.00000  Uiso   1.00
C880   C     0.31979   0.74136   0.76661   0.00000  Uiso   1.00
C881   C     0.16671   0.54717   0.79381   0.00000  Uiso   1.00
C882   C     0.22422   0.94973   0.75696   0.00000  Uiso   1.00
C883   C     0.16214   0.59316   0.79081   0.00000  Uiso   1.00
C884   C     0.21911   0.90337   0.75597   0.00000  Uiso   1.00
C885   C     0.17330   0.61552   0.75040   0.00000  Uiso   1.00
C886   C     0.16965   0.88337   0.75184   0.00000  Uiso   1.00
C887   C     0.19055   0.59156   0.71246   0.00000  Uiso   1.00
C888   C     0.12430   0.90870   0.74864   0.00000  Uiso   1.00
C889   C     0.19286   0.54525   0.71459   0.00000  Uiso   1.00
C890   C     0.12915   0.95490   0.74824   0.00000  Uiso   1.00
C891   C     0.18100   0.52334   0.75472   0.00000  Uiso   1.00
C892   C     0.17861   0.97517   0.75294   0.00000  Uiso   1.00
H893   H     0.14961   0.61145   0.82035   0.00000  Uiso   1.00
H894   H     0.25346   0.88270   0.75868   0.00000  Uiso   1.00
H895   H     0.20384   0.52618   0.68486   0.00000  Uiso   1.00
H896   H     0.09449   0.97519   0.74543   0.00000  Uiso   1.00
H897   H     0.09727   0.71292   0.52286   0.00000  Uiso   1.00
H898   H     0.20009   0.81336   0.97351   0.00000  Uiso   1.00
H899   H     0.23606   0.78797   0.63255   0.00000  Uiso   1.00
H900   H     0.13503   0.68431   0.87118   0.00000  Uiso   1.00
N901   N     0.16667   0.74999   0.62624   0.00000  Uiso   1.00
N902   N     0.16667   0.75001   0.87377   0.00000  Uiso   1.00
O903   O     0.16667   0.68454   0.78974   0.00000  Uiso   1.00
O904   O     0.16666   0.81547   0.71026   0.00000  Uiso   1.00
O905   O     0.16667   0.68453   0.71026   0.00000  Uiso   1.00
O906   O     0.16666   0.81547   0.78974   0.00000  Uiso   1.00
O907   O     0.09058   0.75000   0.78045   0.00000  Uiso   1.00
O908   O     0.24275   0.75000   0.71956   0.00000  Uiso   1.00
O909   O     0.09058   0.75000   0.70097   0.00000  Uiso   1.00
O910   O     0.24275   0.75001   0.79904   0.00000  Uiso   1.00
Zn911  Zn    0.16667   0.75001   0.80307   0.00000  Uiso   1.00
Zn912  Zn    0.16667   0.75000   0.69693   0.00000  Uiso   1.00
C913   C     0.32821   0.79431   0.69805   0.00000  Uiso   1.00
H914   H     0.02670   0.81855   0.69380   0.00000  Uiso   1.00
H915   H     0.31694   0.77745   0.66315   0.00000  Uiso   1.00
H916   H     0.29614   0.81469   0.70876   0.00000  Uiso   1.00
C917   C     0.00669   0.70597   0.80224   0.00000  Uiso   1.00
H918   H     0.30764   0.68740   0.81549   0.00000  Uiso   1.00
H919   H     0.02966   0.68058   0.78547   0.00000  Uiso   1.00
H920   H     0.03079   0.72193   0.83348   0.00000  Uiso   1.00
C921   C     0.15552   0.52514   0.83873   0.00000  Uiso   1.00
H922   H     0.11373   0.52898   0.84247   0.00000  Uiso   1.00
H923   H     0.16468   0.98899   0.83961   0.00000  Uiso   1.00
H924   H     0.17957   0.54152   0.86976   0.00000  Uiso   1.00
C925   C     0.27768   0.97140   0.76321   0.00000  Uiso   1.00
H926   H     0.28280   0.99134   0.73163   0.00000  Uiso   1.00
H927   H     0.28261   0.99369   0.79519   0.00000  Uiso   1.00
H928   H     0.30884   0.94612   0.76765   0.00000  Uiso   1.00
N929   N     0.20575   0.61352   0.67241   0.00000  Uiso   1.00
H930   H     0.19741   0.59531   0.64108   0.00000  Uiso   1.00
C931   C     0.25887   0.63057   0.67955   0.00000  Uiso   1.00
H932   H     0.28660   0.60241   0.68402   0.00000  Uiso   1.00
H933   H     0.26578   0.65306   0.71136   0.00000  Uiso   1.00
H934   H     0.26624   0.65009   0.64825   0.00000  Uiso   1.00
N935   N     0.07409   0.88796   0.74507   0.00000  Uiso   1.00
H936   H     0.04577   0.90480   0.72352   0.00000  Uiso   1.00
C937   C     0.05764   0.87762   0.79025   0.00000  Uiso   1.00
H938   H     0.05457   0.90886   0.81140   0.00000  Uiso   1.00
H939   H     0.08553   0.85495   0.81063   0.00000  Uiso   1.00
H940   H     0.01891   0.86050   0.78426   0.00000  Uiso   1.00
C941   C     0.08309   0.70475   0.61294   0.00000  Uiso   1.00
H942   H     0.09635   0.68393   0.64384   0.00000  Uiso   1.00
H943   H     0.05446   0.72980   0.62144   0.00000  Uiso   1.00
H944   H     0.06237   0.68172   0.58531   0.00000  Uiso   1.00
C945   C     0.21085   0.82584   0.88335   0.00000  Uiso   1.00
H946   H     0.23534   0.84552   0.91179   0.00000  Uiso   1.00
H947   H     0.23700   0.81588   0.85747   0.00000  Uiso   1.00
H948   H     0.17966   0.84831   0.86766   0.00000  Uiso   1.00
N949   N     0.25886   0.78341   0.54421   0.00000  Uiso   1.00
H950   H     0.27781   0.80819   0.56604   0.00000  Uiso   1.00
C951   C     0.29408   0.74900   0.53263   0.00000  Uiso   1.00
H952   H     0.32924   0.76480   0.52123   0.00000  Uiso   1.00
H953   H     0.27522   0.72707   0.50313   0.00000  Uiso   1.00
H954   H     0.30629   0.72832   0.56415   0.00000  Uiso   1.00
N955   N     0.13944   0.66695   0.96289   0.00000  Uiso   1.00
H956   H     0.11279   0.64797   0.94034   0.00000  Uiso   1.00
C957   C     0.18338   0.64091   0.98317   0.00000  Uiso   1.00
H958   H     0.16905   0.61010   0.99877   0.00000  Uiso   1.00
H959   H     0.20796   0.66022   0.51179   0.00000  Uiso   1.00
H960   H     0.20735   0.63112   0.95526   0.00000  Uiso   1.00
C961   C     0.50144   0.66375   0.74983   0.00000  Uiso   1.00
C962   C     0.49973   0.83581   0.75037   0.00000  Uiso   1.00
C963   C     0.46312   0.72752   0.54638   0.00000  Uiso   1.00
C964   C     0.52065   0.78394   0.95205   0.00000  Uiso   1.00
C965   C     0.46164   0.72810   0.59561   0.00000  Uiso   1.00
C966   C     0.52041   0.78524   0.90268   0.00000  Uiso   1.00
C967   C     0.54044   0.77002   0.60847   0.00000  Uiso   1.00
C968   C     0.48305   0.71237   0.89387   0.00000  Uiso   1.00
C969   C     0.54575   0.76672   0.55967   0.00000  Uiso   1.00
C970   C     0.48656   0.70846   0.94377   0.00000  Uiso   1.00
C971   C     0.50540   0.74594   0.52729   0.00000  Uiso   1.00
C972   C     0.50475   0.74552   0.97387   0.00000  Uiso   1.00
C973   C     0.40072   0.75029   0.73811   0.00000  Uiso   1.00
C974   C     0.59934   0.74949   0.76199   0.00000  Uiso   1.00
C975   C     0.34725   0.75912   0.73400   0.00000  Uiso   1.00
C976   C     0.65312   0.74136   0.76661   0.00000  Uiso   1.00
C977   C     0.50005   0.54717   0.79381   0.00000  Uiso   1.00
C978   C     0.55756   0.94973   0.75696   0.00000  Uiso   1.00
C979   C     0.49547   0.59316   0.79081   0.00000  Uiso   1.00
C980   C     0.55245   0.90337   0.75597   0.00000  Uiso   1.00
C981   C     0.50663   0.61552   0.75040   0.00000  Uiso   1.00
C982   C     0.50299   0.88337   0.75184   0.00000  Uiso   1.00
C983   C     0.52389   0.59156   0.71246   0.00000  Uiso   1.00
C984   C     0.45763   0.90870   0.74864   0.00000  Uiso   1.00
C985   C     0.52619   0.54525   0.71459   0.00000  Uiso   1.00
C986   C     0.46248   0.95490   0.74824   0.00000  Uiso   1.00
C987   C     0.51434   0.52334   0.75472   0.00000  Uiso   1.00
C988   C     0.51194   0.97517   0.75294   0.00000  Uiso   1.00
H989   H     0.48294   0.61145   0.82035   0.00000  Uiso   1.00
H990   H     0.58679   0.88270   0.75868   0.00000  Uiso   1.00
H991   H     0.53718   0.52618   0.68486   0.00000  Uiso   1.00
H992   H     0.42782   0.97519   0.74543   0.00000  Uiso   1.00
H993   H     0.43060   0.71292   0.52286   0.00000  Uiso   1.00
H994   H     0.53342   0.81336   0.97351   0.00000  Uiso   1.00
H995   H     0.56939   0.78797   0.63255   0.00000  Uiso   1.00
H996   H     0.46836   0.68431   0.87118   0.00000  Uiso   1.00
N997   N     0.50000   0.74999   0.62624   0.00000  Uiso   1.00
N998   N     0.50000   0.75001   0.87377   0.00000  Uiso   1.00
O999   O     0.50000   0.68454   0.78974   0.00000  Uiso   1.00
O1000  O     0.50000   0.81547   0.71026   0.00000  Uiso   1.00
O1001  O     0.50000   0.68453   0.71026   0.00000  Uiso   1.00
O1002  O     0.50000   0.81547   0.78974   0.00000  Uiso   1.00
O1003  O     0.42392   0.75000   0.78045   0.00000  Uiso   1.00
O1004  O     0.57608   0.75000   0.71956   0.00000  Uiso   1.00
O1005  O     0.42392   0.75000   0.70097   0.00000  Uiso   1.00
O1006  O     0.57608   0.75001   0.79904   0.00000  Uiso   1.00
Zn1007 Zn    0.50000   0.75001   0.80307   0.00000  Uiso   1.00
Zn1008 Zn    0.50000   0.75000   0.69693   0.00000  Uiso   1.00
C1009  C     0.66155   0.79431   0.69805   0.00000  Uiso   1.00
H1010  H     0.36003   0.81855   0.69380   0.00000  Uiso   1.00
H1011  H     0.65027   0.77745   0.66315   0.00000  Uiso   1.00
H1012  H     0.62947   0.81469   0.70876   0.00000  Uiso   1.00
C1013  C     0.34002   0.70597   0.80224   0.00000  Uiso   1.00
H1014  H     0.64098   0.68740   0.81549   0.00000  Uiso   1.00
H1015  H     0.36299   0.68058   0.78547   0.00000  Uiso   1.00
H1016  H     0.36413   0.72193   0.83348   0.00000  Uiso   1.00
C1017  C     0.48886   0.52514   0.83873   0.00000  Uiso   1.00
H1018  H     0.44706   0.52898   0.84247   0.00000  Uiso   1.00
H1019  H     0.49802   0.98899   0.83961   0.00000  Uiso   1.00
H1020  H     0.51291   0.54152   0.86976   0.00000  Uiso   1.00
C1021  C     0.61101   0.97140   0.76321   0.00000  Uiso   1.00
H1022  H     0.61614   0.99134   0.73163   0.00000  Uiso   1.00
H1023  H     0.61594   0.99369   0.79519   0.00000  Uiso   1.00
H1024  H     0.64218   0.94612   0.76765   0.00000  Uiso   1.00
N1025  N     0.53908   0.61352   0.67241   0.00000  Uiso   1.00
H1026  H     0.53075   0.59531   0.64108   0.00000  Uiso   1.00
C1027  C     0.59220   0.63057   0.67955   0.00000  Uiso   1.00
H1028  H     0.61994   0.60241   0.68402   0.00000  Uiso   1.00
H1029  H     0.59912   0.65306   0.71136   0.00000  Uiso   1.00
H1030  H     0.59957   0.65009   0.64825   0.00000  Uiso   1.00
N1031  N     0.40742   0.88796   0.74507   0.00000  Uiso   1.00
H1032  H     0.37910   0.90480   0.72352   0.00000  Uiso   1.00
C1033  C     0.39097   0.87762   0.79025   0.00000  Uiso   1.00
H1034  H     0.38791   0.90886   0.81140   0.00000  Uiso   1.00
H1035  H     0.41886   0.85495   0.81063   0.00000  Uiso   1.00
H1036  H     0.35225   0.86050   0.78426   0.00000  Uiso   1.00
C1037  C     0.41642   0.70475   0.61294   0.00000  Uiso   1.00
H1038  H     0.42968   0.68393   0.64384   0.00000  Uiso   1.00
H1039  H     0.38779   0.72980   0.62144   0.00000  Uiso   1.00
H1040  H     0.39570   0.68172   0.58531   0.00000  Uiso   1.00
C1041  C     0.54419   0.82584   0.88335   0.00000  Uiso   1.00
H1042  H     0.56867   0.84552   0.91179   0.00000  Uiso   1.00
H1043  H     0.57034   0.81588   0.85747   0.00000  Uiso   1.00
H1044  H     0.51299   0.84831   0.86766   0.00000  Uiso   1.00
N1045  N     0.59220   0.78341   0.54421   0.00000  Uiso   1.00
H1046  H     0.61114   0.80819   0.56604   0.00000  Uiso   1.00
C1047  C     0.62741   0.74900   0.53263   0.00000  Uiso   1.00
H1048  H     0.66258   0.76480   0.52123   0.00000  Uiso   1.00
H1049  H     0.60855   0.72707   0.50313   0.00000  Uiso   1.00
H1050  H     0.63962   0.72832   0.56415   0.00000  Uiso   1.00
N1051  N     0.47277   0.66695   0.96289   0.00000  Uiso   1.00
H1052  H     0.44613   0.64797   0.94034   0.00000  Uiso   1.00
C1053  C     0.51671   0.64091   0.98317   0.00000  Uiso   1.00
H1054  H     0.50239   0.61010   0.99877   0.00000  Uiso   1.00
H1055  H     0.54130   0.66022   0.51179   0.00000  Uiso   1.00
H1056  H     0.54068   0.63112   0.95526   0.00000  Uiso   1.00
C1057  C     0.83478   0.66375   0.74983   0.00000  Uiso   1.00
C1058  C     0.83306   0.83581   0.75037   0.00000  Uiso   1.00
C1059  C     0.79645   0.72752   0.54638   0.00000  Uiso   1.00
C1060  C     0.85399   0.78394   0.95205   0.00000  Uiso   1.00
C1061  C     0.79497   0.72810   0.59561   0.00000  Uiso   1.00
C1062  C     0.85374   0.78524   0.90268   0.00000  Uiso   1.00
C1063  C     0.87377   0.77002   0.60847   0.00000  Uiso   1.00
C1064  C     0.81638   0.71237   0.89387   0.00000  Uiso   1.00
C1065  C     0.87908   0.76672   0.55967   0.00000  Uiso   1.00
C1066  C     0.81989   0.70846   0.94377   0.00000  Uiso   1.00
C1067  C     0.83873   0.74594   0.52729   0.00000  Uiso   1.00
C1068  C     0.83808   0.74552   0.97387   0.00000  Uiso   1.00
C1069  C     0.73405   0.75029   0.73811   0.00000  Uiso   1.00
C1070  C     0.93268   0.74949   0.76199   0.00000  Uiso   1.00
C1071  C     0.68058   0.75912   0.73400   0.00000  Uiso   1.00
C1072  C     0.98645   0.74136   0.76661   0.00000  Uiso   1.00
C1073  C     0.83338   0.54717   0.79381   0.00000  Uiso   1.00
C1074  C     0.89089   0.94973   0.75696   0.00000  Uiso   1.00
C1075  C     0.82881   0.59316   0.79081   0.00000  Uiso   1.00
C1076  C     0.88578   0.90337   0.75597   0.00000  Uiso   1.00
C1077  C     0.83997   0.61552   0.75040   0.00000  Uiso   1.00
C1078  C     0.83632   0.88337   0.75184   0.00000  Uiso   1.00
C1079  C     0.85722   0.59156   0.71246   0.00000  Uiso   1.00
C1080  C     0.79097   0.90870   0.74864   0.00000  Uiso   1.00
C1081  C     0.85952   0.54525   0.71459   0.00000  Uiso   1.00
C1082  C     0.79581   0.95490   0.74824   0.00000  Uiso   1.00
C1083  C     0.84767   0.52334   0.75472   0.00000  Uiso   1.00
C1084  C     0.84527   0.97517   0.75294   0.00000  Uiso   1.00
H1085  H     0.81628   0.61145   0.82035   0.00000  Uiso   1.00
H1086  H     0.92012   0.88270   0.75868   0.00000  Uiso   1.00
H1087  H     0.87051   0.52618   0.68486   0.00000  Uiso   1.00
H1088  H     0.76116   0.97519   0.74543   0.00000  Uiso   1.00
H1089  H     0.76393   0.71292   0.52286   0.00000  Uiso   1.00
H1090  H     0.86675   0.81336   0.97351   0.00000  Uiso   1.00
H1091  H     0.90273   0.78797   0.63255   0.00000  Uiso   1.00
H1092  H     0.80170   0.68431   0.87118   0.00000  Uiso   1.00
N1093  N     0.83333   0.74999   0.62624   0.00000  Uiso   1.00
N1094  N     0.83333   0.75001   0.87377   0.00000  Uiso   1.00
O1095  O     0.83334   0.68454   0.78974   0.00000  Uiso   1.00
O1096  O     0.83333   0.81547   0.71026   0.00000  Uiso   1.00
O1097  O     0.83334   0.68453   0.71026   0.00000  Uiso   1.00
O1098  O     0.83333   0.81547   0.78974   0.00000  Uiso   1.00
O1099  O     0.75725   0.75000   0.78045   0.00000  Uiso   1.00
O1100  O     0.90942   0.75000   0.71956   0.00000  Uiso   1.00
O1101  O     0.75725   0.75000   0.70097   0.00000  Uiso   1.00
O1102  O     0.90942   0.75001   0.79904   0.00000  Uiso   1.00
Zn1103 Zn    0.83333   0.75001   0.80307   0.00000  Uiso   1.00
Zn1104 Zn    0.83333   0.75000   0.69693   0.00000  Uiso   1.00
C1105  C     0.99488   0.79431   0.69805   0.00000  Uiso   1.00
H1106  H     0.69336   0.81855   0.69380   0.00000  Uiso   1.00
H1107  H     0.98360   0.77745   0.66315   0.00000  Uiso   1.00
H1108  H     0.96280   0.81469   0.70876   0.00000  Uiso   1.00
C1109  C     0.67336   0.70597   0.80224   0.00000  Uiso   1.00
H1110  H     0.97431   0.68740   0.81549   0.00000  Uiso   1.00
H1111  H     0.69632   0.68058   0.78547   0.00000  Uiso   1.00
H1112  H     0.69746   0.72193   0.83348   0.00000  Uiso   1.00
C1113  C     0.82219   0.52514   0.83873   0.00000  Uiso   1.00
H1114  H     0.78039   0.52898   0.84247   0.00000  Uiso   1.00
H1115  H     0.83135   0.98899   0.83961   0.00000  Uiso   1.00
H1116  H     0.84624   0.54152   0.86976   0.00000  Uiso   1.00
C1117  C     0.94435   0.97140   0.76321   0.00000  Uiso   1.00
H1118  H     0.94947   0.99134   0.73163   0.00000  Uiso   1.00
H1119  H     0.94928   0.99369   0.79519   0.00000  Uiso   1.00
H1120  H     0.97551   0.94612   0.76765   0.00000  Uiso   1.00
N1121  N     0.87241   0.61352   0.67241   0.00000  Uiso   1.00
H1122  H     0.86408   0.59531   0.64108   0.00000  Uiso   1.00
C1123  C     0.92554   0.63057   0.67955   0.00000  Uiso   1.00
H1124  H     0.95327   0.60241   0.68402   0.00000  Uiso   1.00
H1125  H     0.93245   0.65306   0.71136   0.00000  Uiso   1.00
H1126  H     0.93291   0.65009   0.64825   0.00000  Uiso   1.00
N1127  N     0.74076   0.88796   0.74507   0.00000  Uiso   1.00
H1128  H     0.71244   0.90480   0.72352   0.00000  Uiso   1.00
C1129  C     0.72430   0.87762   0.79025   0.00000  Uiso   1.00
H1130  H     0.72124   0.90886   0.81140   0.00000  Uiso   1.00
H1131  H     0.75219   0.85495   0.81063   0.00000  Uiso   1.00
H1132  H     0.68558   0.86050   0.78426   0.00000  Uiso   1.00
C1133  C     0.74975   0.70475   0.61294   0.00000  Uiso   1.00
H1134  H     0.76301   0.68393   0.64384   0.00000  Uiso   1.00
H1135  H     0.72113   0.72980   0.62144   0.00000  Uiso   1.00
H1136  H     0.72904   0.68172   0.58531   0.00000  Uiso   1.00
C1137  C     0.87752   0.82584   0.88335   0.00000  Uiso   1.00
H1138  H     0.90200   0.84552   0.91179   0.00000  Uiso   1.00
H1139  H     0.90367   0.81588   0.85747   0.00000  Uiso   1.00
H1140  H     0.84632   0.84831   0.86766   0.00000  Uiso   1.00
N1141  N     0.92553   0.78341   0.54421   0.00000  Uiso   1.00
H1142  H     0.94447   0.80819   0.56604   0.00000  Uiso   1.00
C1143  C     0.96075   0.74900   0.53263   0.00000  Uiso   1.00
H1144  H     0.99591   0.76480   0.52123   0.00000  Uiso   1.00
H1145  H     0.94189   0.72707   0.50313   0.00000  Uiso   1.00
H1146  H     0.97296   0.72832   0.56415   0.00000  Uiso   1.00
N1147  N     0.80611   0.66695   0.96289   0.00000  Uiso   1.00
H1148  H     0.77946   0.64797   0.94034   0.00000  Uiso   1.00
C1149  C     0.85005   0.64091   0.98317   0.00000  Uiso   1.00
H1150  H     0.83572   0.61010   0.99877   0.00000  Uiso   1.00
H1151  H     0.87463   0.66022   0.51179   0.00000  Uiso   1.00
H1152  H     0.87402   0.63112   0.95526   0.00000  Uiso   1.00
loop_
_geom_bond_atom_site_label_1
_geom_bond_atom_site_label_2
_geom_bond_distance
_geom_bond_site_symmetry_2
_ccdc_geom_bond_type
C1     C21     1.449   .     S
C1     O41     1.292   .     A
C1     O39     1.290   .     A
C2     C22     1.421   .     S
C2     O42     1.284   .     A
C2     O40     1.285   .     A
C3     H33     1.083   .     S
C3     C5      1.407   .     A
C3     C11     1.399   .     A
C4     C12     1.398   .     A
C4     H34     1.083   .     S
C4     C6      1.406   .     A
C5     N37     1.378   .     A
C5     C77     1.501   .     S
C6     N38     1.378   .     A
C6     C81     1.500   .     S
C7     N37     1.361   .     A
C7     C9      1.417   .     A
C7     H35     1.074   .     S
C8     H36     1.081   .     S
C8     N38     1.365   .     A
C8     C10     1.418   .     A
C9     N85     1.424   .     S
C9     C11     1.423   .     A
C10    C12     1.422   .     A
C10    N91     1.424   .     S
C11    C588    1.519   1_554 S
C12    C587    1.519   .     S
C13    C15     1.403   .     S
C13    O43     1.271   .     A
C13    O45     1.286   .     A
C14    O46     1.285   .     A
C14    C16     1.406   .     S
C14    O44     1.274   .     A
C15    C208    1.356   1_455 S
C15    C241    1.520   1_455 S
C16    C111    1.356   .     S
C16    C149    1.526   .     S
C17    C27     1.406   .     A
C17    C19     1.384   .     A
C17    C57     1.510   .     S
C18    C28     1.406   .     A
C18    C61     1.507   .     S
C18    C20     1.389   .     A
C19    C21     1.403   .     A
C19    H29     1.084   .     S
C20    H30     1.085   .     S
C20    C22     1.396   .     A
C21    C23     1.412   .     A
C22    C24     1.400   .     A
C23    N65     1.424   .     S
C23    C25     1.387   .     A
C24    C26     1.384   .     A
C24    N71     1.423   .     S
C25    H31     1.084   .     S
C25    C27     1.395   .     A
C26    H32     1.085   .     S
C26    C28     1.398   .     A
C27    C316    1.439   1_545 S
C28    C315    1.439   .     S
N37    Zn48    2.013   .     S
N38    Zn47    2.013   .     S
O39    Zn47    1.985   .     S
O40    Zn48    1.985   .     S
O41    Zn48    1.998   .     S
O42    Zn47    1.998   .     S
O43    Zn47    1.988   .     S
O44    Zn48    1.988   .     S
O45    Zn48    1.990   .     S
O46    Zn47    1.990   .     S
C49    H51     1.107   .     S
C49    H52     1.110   .     S
C49    C111    1.520   .     S
C49    H146    1.110   .     S
H50    C241    1.110   1_455 S
C53    H56     1.110   .     S
C53    H55     1.111   .     S
C53    C208    1.526   1_455 S
C53    H246    1.111   1_455 S
H54    C149    1.111   .     S
C57    H60     1.110   .     S
C57    H58     1.110   .     S
C57    H347    1.109   1_545 S
H59    C345    1.109   .     S
C61    H63     1.110   .     S
C61    H64     1.109   .     S
C61    H62     1.109   .     S
N65    C67     1.447   .     S
N65    H66     1.032   .     S
C67    H68     1.112   .     S
C67    H69     1.111   .     S
C67    H70     1.110   .     S
N71    C73     1.447   .     S
N71    H72     1.032   .     S
C73    H74     1.112   .     S
C73    H75     1.109   .     S
C73    H76     1.110   .     S
C77    H78     1.105   .     S
C77    H79     1.108   .     S
C77    H80     1.111   .     S
C81    H82     1.111   .     S
C81    H83     1.108   .     S
C81    H84     1.109   .     S
N85    C87     1.447   .     S
N85    H86     1.032   .     S
C87    H88     1.111   .     S
C87    H90     1.111   .     S
C87    H89     1.110   .     S
N91    H92     1.032   .     S
N91    C93     1.447   .     S
C93    H94     1.110   .     S
C93    H96     1.112   .     S
C93    H671    1.110   .     S
H95    C669    1.110   1_554 S
C97    C117    1.449   .     S
C97    O137    1.292   .     A
C97    O135    1.290   .     A
C98    C118    1.421   .     S
C98    O138    1.284   .     A
C98    O136    1.285   .     A
C99    H129    1.083   .     S
C99    C101    1.407   .     A
C99    C107    1.399   .     A
C100   C108    1.398   .     A
C100   H130    1.083   .     S
C100   C102    1.406   .     A
C101   N133    1.378   .     A
C101   C173    1.501   .     S
C102   N134    1.378   .     A
C102   C177    1.500   .     S
C103   N133    1.361   .     A
C103   C105    1.417   .     A
C103   H131    1.074   .     S
C104   H132    1.081   .     S
C104   N134    1.365   .     A
C104   C106    1.418   .     A
C105   N181    1.424   .     S
C105   C107    1.423   .     A
C106   C108    1.422   .     A
C106   N187    1.424   .     S
C107   C684    1.519   1_554 S
C108   C683    1.519   .     S
C109   C111    1.403   .     S
C109   O139    1.271   .     A
C109   O141    1.286   .     A
C110   O142    1.285   .     A
C110   C112    1.406   .     S
C110   O140    1.274   .     A
C112   C207    1.356   .     S
C112   C245    1.526   .     S
C113   C123    1.406   .     A
C113   C115    1.384   .     A
C113   C153    1.510   .     S
C114   C124    1.406   .     A
C114   C157    1.507   .     S
C114   C116    1.389   .     A
C115   C117    1.403   .     A
C115   H125    1.084   .     S
C116   H126    1.085   .     S
C116   C118    1.396   .     A
C117   C119    1.412   .     A
C118   C120    1.400   .     A
C119   N161    1.424   .     S
C119   C121    1.387   .     A
C120   C122    1.384   .     A
C120   N167    1.423   .     S
C121   H127    1.084   .     S
C121   C123    1.395   .     A
C122   H128    1.085   .     S
C122   C124    1.398   .     A
C123   C412    1.439   1_545 S
C124   C411    1.439   .     S
N133   Zn144   2.013   .     S
N134   Zn143   2.013   .     S
O135   Zn143   1.985   .     S
O136   Zn144   1.985   .     S
O137   Zn144   1.998   .     S
O138   Zn143   1.998   .     S
O139   Zn143   1.988   .     S
O140   Zn144   1.988   .     S
O141   Zn144   1.990   .     S
O142   Zn143   1.990   .     S
C145   H147    1.107   .     S
C145   H148    1.110   .     S
C145   C207    1.520   .     S
C145   H242    1.110   .     S
C149   H152    1.110   .     S
C149   H151    1.111   .     S
H150   C245    1.111   .     S
C153   H156    1.110   .     S
C153   H154    1.110   .     S
C153   H443    1.109   1_545 S
H155   C441    1.109   .     S
C157   H159    1.110   .     S
C157   H160    1.109   .     S
C157   H158    1.109   .     S
N161   C163    1.447   .     S
N161   H162    1.032   .     S
C163   H164    1.112   .     S
C163   H165    1.111   .     S
C163   H166    1.110   .     S
N167   C169    1.447   .     S
N167   H168    1.032   .     S
C169   H170    1.112   .     S
C169   H171    1.109   .     S
C169   H172    1.110   .     S
C173   H174    1.105   .     S
C173   H175    1.108   .     S
C173   H176    1.111   .     S
C177   H178    1.111   .     S
C177   H179    1.108   .     S
C177   H180    1.109   .     S
N181   C183    1.447   .     S
N181   H182    1.032   .     S
C183   H184    1.111   .     S
C183   H186    1.111   .     S
C183   H185    1.110   .     S
N187   H188    1.032   .     S
N187   C189    1.447   .     S
C189   H190    1.110   .     S
C189   H192    1.112   .     S
C189   H767    1.110   .     S
H191   C765    1.110   1_554 S
C193   C213    1.449   .     S
C193   O233    1.292   .     A
C193   O231    1.290   .     A
C194   C214    1.421   .     S
C194   O234    1.284   .     A
C194   O232    1.285   .     A
C195   H225    1.083   .     S
C195   C197    1.407   .     A
C195   C203    1.399   .     A
C196   C204    1.398   .     A
C196   H226    1.083   .     S
C196   C198    1.406   .     A
C197   N229    1.378   .     A
C197   C269    1.501   .     S
C198   N230    1.378   .     A
C198   C273    1.500   .     S
C199   N229    1.361   .     A
C199   C201    1.417   .     A
C199   H227    1.074   .     S
C200   H228    1.081   .     S
C200   N230    1.365   .     A
C200   C202    1.418   .     A
C201   N277    1.424   .     S
C201   C203    1.423   .     A
C202   C204    1.422   .     A
C202   N283    1.424   .     S
C203   C780    1.519   1_554 S
C204   C779    1.519   .     S
C205   C207    1.403   .     S
C205   O235    1.271   .     A
C205   O237    1.286   .     A
C206   O238    1.285   .     A
C206   C208    1.406   .     S
C206   O236    1.274   .     A
C208   C15     1.356   1_655 S
C208   C53     1.526   1_655 S
C209   C219    1.406   .     A
C209   C211    1.384   .     A
C209   C249    1.510   .     S
C210   C220    1.406   .     A
C210   C253    1.507   .     S
C210   C212    1.389   .     A
C211   C213    1.403   .     A
C211   H221    1.084   .     S
C212   H222    1.085   .     S
C212   C214    1.396   .     A
C213   C215    1.412   .     A
C214   C216    1.400   .     A
C215   N257    1.424   .     S
C215   C217    1.387   .     A
C216   C218    1.384   .     A
C216   N263    1.423   .     S
C217   H223    1.084   .     S
C217   C219    1.395   .     A
C218   H224    1.085   .     S
C218   C220    1.398   .     A
C219   C508    1.439   1_545 S
C220   C507    1.439   .     S
N229   Zn240   2.013   .     S
N230   Zn239   2.013   .     S
O231   Zn239   1.985   .     S
O232   Zn240   1.985   .     S
O233   Zn240   1.998   .     S
O234   Zn239   1.998   .     S
O235   Zn239   1.988   .     S
O236   Zn240   1.988   .     S
O237   Zn240   1.990   .     S
O238   Zn239   1.990   .     S
C241   H243    1.107   .     S
C241   H244    1.110   .     S
C241   C15     1.520   1_655 S
C241   H50     1.110   1_655 S
C245   H248    1.110   .     S
C245   H247    1.111   .     S
H246   C53     1.111   1_655 S
C249   H252    1.110   .     S
C249   H250    1.110   .     S
C249   H539    1.109   1_545 S
H251   C537    1.109   .     S
C253   H255    1.110   .     S
C253   H256    1.109   .     S
C253   H254    1.109   .     S
N257   C259    1.447   .     S
N257   H258    1.032   .     S
C259   H260    1.112   .     S
C259   H261    1.111   .     S
C259   H262    1.110   .     S
N263   C265    1.447   .     S
N263   H264    1.032   .     S
C265   H266    1.112   .     S
C265   H267    1.109   .     S
C265   H268    1.110   .     S
C269   H270    1.105   .     S
C269   H271    1.108   .     S
C269   H272    1.111   .     S
C273   H274    1.111   .     S
C273   H275    1.108   .     S
C273   H276    1.109   .     S
N277   C279    1.447   .     S
N277   H278    1.032   .     S
C279   H280    1.111   .     S
C279   H282    1.111   .     S
C279   H281    1.110   .     S
N283   H284    1.032   .     S
N283   C285    1.447   .     S
C285   H286    1.110   .     S
C285   H288    1.112   .     S
C285   H863    1.110   .     S
H287   C861    1.110   1_554 S
C289   C309    1.449   .     S
C289   O329    1.292   .     A
C289   O327    1.290   .     A
C290   C310    1.421   .     S
C290   O330    1.284   .     A
C290   O328    1.285   .     A
C291   H321    1.083   .     S
C291   C293    1.407   .     A
C291   C299    1.399   .     A
C292   C300    1.398   .     A
C292   H322    1.083   .     S
C292   C294    1.406   .     A
C293   N325    1.378   .     A
C293   C365    1.501   .     S
C294   N326    1.378   .     A
C294   C369    1.500   .     S
C295   N325    1.361   .     A
C295   C297    1.417   .     A
C295   H323    1.074   .     S
C296   H324    1.081   .     S
C296   N326    1.365   .     A
C296   C298    1.418   .     A
C297   N373    1.424   .     S
C297   C299    1.423   .     A
C298   C300    1.422   .     A
C298   N379    1.424   .     S
C299   C876    1.519   1_554 S
C300   C875    1.519   .     S
C301   C303    1.403   .     S
C301   O331    1.271   .     A
C301   O333    1.286   .     A
C302   O334    1.285   .     A
C302   C304    1.406   .     S
C302   O332    1.274   .     A
C303   C496    1.356   1_455 S
C303   C529    1.520   1_455 S
C304   C399    1.356   .     S
C304   C437    1.526   .     S
C305   C315    1.406   .     A
C305   C307    1.384   .     A
C305   C345    1.510   .     S
C306   C316    1.406   .     A
C306   C349    1.507   .     S
C306   C308    1.389   .     A
C307   C309    1.403   .     A
C307   H317    1.084   .     S
C308   H318    1.085   .     S
C308   C310    1.396   .     A
C309   C311    1.412   .     A
C310   C312    1.400   .     A
C311   N353    1.424   .     S
C311   C313    1.387   .     A
C312   C314    1.384   .     A
C312   N359    1.423   .     S
C313   H319    1.084   .     S
C313   C315    1.395   .     A
C314   H320    1.085   .     S
C314   C316    1.398   .     A
C316   C27     1.439   1_565 S
N325   Zn336   2.013   .     S
N326   Zn335   2.013   .     S
O327   Zn335   1.985   .     S
O328   Zn336   1.985   .     S
O329   Zn336   1.998   .     S
O330   Zn335   1.998   .     S
O331   Zn335   1.988   .     S
O332   Zn336   1.988   .     S
O333   Zn336   1.990   .     S
O334   Zn335   1.990   .     S
C337   H339    1.107   .     S
C337   H340    1.110   .     S
C337   C399    1.520   .     S
C337   H434    1.110   .     S
H338   C529    1.110   1_455 S
C341   H344    1.110   .     S
C341   H343    1.111   .     S
C341   C496    1.526   1_455 S
C341   H534    1.111   1_455 S
H342   C437    1.111   .     S
C345   H348    1.110   .     S
C345   H346    1.110   .     S
H347   C57     1.109   1_565 S
C349   H351    1.110   .     S
C349   H352    1.109   .     S
C349   H350    1.109   .     S
N353   C355    1.447   .     S
N353   H354    1.032   .     S
C355   H356    1.112   .     S
C355   H357    1.111   .     S
C355   H358    1.110   .     S
N359   C361    1.447   .     S
N359   H360    1.032   .     S
C361   H362    1.112   .     S
C361   H363    1.109   .     S
C361   H364    1.110   .     S
C365   H366    1.105   .     S
C365   H367    1.108   .     S
C365   H368    1.111   .     S
C369   H370    1.111   .     S
C369   H371    1.108   .     S
C369   H372    1.109   .     S
N373   C375    1.447   .     S
N373   H374    1.032   .     S
C375   H376    1.111   .     S
C375   H378    1.111   .     S
C375   H377    1.110   .     S
N379   H380    1.032   .     S
N379   C381    1.447   .     S
C381   H382    1.110   .     S
C381   H384    1.112   .     S
C381   H959    1.110   .     S
H383   C957    1.110   1_554 S
C385   C405    1.449   .     S
C385   O425    1.292   .     A
C385   O423    1.290   .     A
C386   C406    1.421   .     S
C386   O426    1.284   .     A
C386   O424    1.285   .     A
C387   H417    1.083   .     S
C387   C389    1.407   .     A
C387   C395    1.399   .     A
C388   C396    1.398   .     A
C388   H418    1.083   .     S
C388   C390    1.406   .     A
C389   N421    1.378   .     A
C389   C461    1.501   .     S
C390   N422    1.378   .     A
C390   C465    1.500   .     S
C391   N421    1.361   .     A
C391   C393    1.417   .     A
C391   H419    1.074   .     S
C392   H420    1.081   .     S
C392   N422    1.365   .     A
C392   C394    1.418   .     A
C393   N469    1.424   .     S
C393   C395    1.423   .     A
C394   C396    1.422   .     A
C394   N475    1.424   .     S
C395   C972    1.519   1_554 S
C396   C971    1.519   .     S
C397   C399    1.403   .     S
C397   O427    1.271   .     A
C397   O429    1.286   .     A
C398   O430    1.285   .     A
C398   C400    1.406   .     S
C398   O428    1.274   .     A
C400   C495    1.356   .     S
C400   C533    1.526   .     S
C401   C411    1.406   .     A
C401   C403    1.384   .     A
C401   C441    1.510   .     S
C402   C412    1.406   .     A
C402   C445    1.507   .     S
C402   C404    1.389   .     A
C403   C405    1.403   .     A
C403   H413    1.084   .     S
C404   H414    1.085   .     S
C404   C406    1.396   .     A
C405   C407    1.412   .     A
C406   C408    1.400   .     A
C407   N449    1.424   .     S
C407   C409    1.387   .     A
C408   C410    1.384   .     A
C408   N455    1.423   .     S
C409   H415    1.084   .     S
C409   C411    1.395   .     A
C410   H416    1.085   .     S
C410   C412    1.398   .     A
C412   C123    1.439   1_565 S
N421   Zn432   2.013   .     S
N422   Zn431   2.013   .     S
O423   Zn431   1.985   .     S
O424   Zn432   1.985   .     S
O425   Zn432   1.998   .     S
O426   Zn431   1.998   .     S
O427   Zn431   1.988   .     S
O428   Zn432   1.988   .     S
O429   Zn432   1.990   .     S
O430   Zn431   1.990   .     S
C433   H435    1.107   .     S
C433   H436    1.110   .     S
C433   C495    1.520   .     S
C433   H530    1.110   .     S
C437   H440    1.110   .     S
C437   H439    1.111   .     S
H438   C533    1.111   .     S
C441   H444    1.110   .     S
C441   H442    1.110   .     S
H443   C153    1.109   1_565 S
C445   H447    1.110   .     S
C445   H448    1.109   .     S
C445   H446    1.109   .     S
N449   C451    1.447   .     S
N449   H450    1.032   .     S
C451   H452    1.112   .     S
C451   H453    1.111   .     S
C451   H454    1.110   .     S
N455   C457    1.447   .     S
N455   H456    1.032   .     S
C457   H458    1.112   .     S
C457   H459    1.109   .     S
C457   H460    1.110   .     S
C461   H462    1.105   .     S
C461   H463    1.108   .     S
C461   H464    1.111   .     S
C465   H466    1.111   .     S
C465   H467    1.108   .     S
C465   H468    1.109   .     S
N469   C471    1.447   .     S
N469   H470    1.032   .     S
C471   H472    1.111   .     S
C471   H474    1.111   .     S
C471   H473    1.110   .     S
N475   H476    1.032   .     S
N475   C477    1.447   .     S
C477   H478    1.110   .     S
C477   H480    1.112   .     S
C477   H1055   1.110   .     S
H479   C1053   1.110   1_554 S
C481   C501    1.449   .     S
C481   O521    1.292   .     A
C481   O519    1.290   .     A
C482   C502    1.421   .     S
C482   O522    1.284   .     A
C482   O520    1.285   .     A
C483   H513    1.083   .     S
C483   C485    1.407   .     A
C483   C491    1.399   .     A
C484   C492    1.398   .     A
C484   H514    1.083   .     S
C484   C486    1.406   .     A
C485   N517    1.378   .     A
C485   C557    1.501   .     S
C486   N518    1.378   .     A
C486   C561    1.500   .     S
C487   N517    1.361   .     A
C487   C489    1.417   .     A
C487   H515    1.074   .     S
C488   H516    1.081   .     S
C488   N518    1.365   .     A
C488   C490    1.418   .     A
C489   N565    1.424   .     S
C489   C491    1.423   .     A
C490   C492    1.422   .     A
C490   N571    1.424   .     S
C491   C1068   1.519   1_554 S
C492   C1067   1.519   .     S
C493   C495    1.403   .     S
C493   O523    1.271   .     A
C493   O525    1.286   .     A
C494   O526    1.285   .     A
C494   C496    1.406   .     S
C494   O524    1.274   .     A
C496   C303    1.356   1_655 S
C496   C341    1.526   1_655 S
C497   C507    1.406   .     A
C497   C499    1.384   .     A
C497   C537    1.510   .     S
C498   C508    1.406   .     A
C498   C541    1.507   .     S
C498   C500    1.389   .     A
C499   C501    1.403   .     A
C499   H509    1.084   .     S
C500   H510    1.085   .     S
C500   C502    1.396   .     A
C501   C503    1.412   .     A
C502   C504    1.400   .     A
C503   N545    1.424   .     S
C503   C505    1.387   .     A
C504   C506    1.384   .     A
C504   N551    1.423   .     S
C505   H511    1.084   .     S
C505   C507    1.395   .     A
C506   H512    1.085   .     S
C506   C508    1.398   .     A
C508   C219    1.439   1_565 S
N517   Zn528   2.013   .     S
N518   Zn527   2.013   .     S
O519   Zn527   1.985   .     S
O520   Zn528   1.985   .     S
O521   Zn528   1.998   .     S
O522   Zn527   1.998   .     S
O523   Zn527   1.988   .     S
O524   Zn528   1.988   .     S
O525   Zn528   1.990   .     S
O526   Zn527   1.990   .     S
C529   H531    1.107   .     S
C529   H532    1.110   .     S
C529   C303    1.520   1_655 S
C529   H338    1.110   1_655 S
C533   H536    1.110   .     S
C533   H535    1.111   .     S
H534   C341    1.111   1_655 S
C537   H540    1.110   .     S
C537   H538    1.110   .     S
H539   C249    1.109   1_565 S
C541   H543    1.110   .     S
C541   H544    1.109   .     S
C541   H542    1.109   .     S
N545   C547    1.447   .     S
N545   H546    1.032   .     S
C547   H548    1.112   .     S
C547   H549    1.111   .     S
C547   H550    1.110   .     S
N551   C553    1.447   .     S
N551   H552    1.032   .     S
C553   H554    1.112   .     S
C553   H555    1.109   .     S
C553   H556    1.110   .     S
C557   H558    1.105   .     S
C557   H559    1.108   .     S
C557   H560    1.111   .     S
C561   H562    1.111   .     S
C561   H563    1.108   .     S
C561   H564    1.109   .     S
N565   C567    1.447   .     S
N565   H566    1.032   .     S
C567   H568    1.111   .     S
C567   H570    1.111   .     S
C567   H569    1.110   .     S
N571   H572    1.032   .     S
N571   C573    1.447   .     S
C573   H574    1.110   .     S
C573   H576    1.112   .     S
C573   H1151   1.110   .     S
H575   C1149   1.110   1_554 S
C577   C597    1.449   .     S
C577   O617    1.292   .     A
C577   O615    1.290   .     A
C578   C598    1.421   .     S
C578   O618    1.284   .     A
C578   O616    1.285   .     A
C579   H609    1.083   .     S
C579   C581    1.407   .     A
C579   C587    1.399   .     A
C580   C588    1.398   .     A
C580   H610    1.083   .     S
C580   C582    1.406   .     A
C581   N613    1.378   .     A
C581   C653    1.501   .     S
C582   N614    1.378   .     A
C582   C657    1.500   .     S
C583   N613    1.361   .     A
C583   C585    1.417   .     A
C583   H611    1.074   .     S
C584   H612    1.081   .     S
C584   N614    1.365   .     A
C584   C586    1.418   .     A
C585   N661    1.424   .     S
C585   C587    1.423   .     A
C586   C588    1.422   .     A
C586   N667    1.424   .     S
C588   C11     1.519   1_556 S
C589   C591    1.403   .     S
C589   O619    1.271   .     A
C589   O621    1.286   .     A
C590   O622    1.285   .     A
C590   C592    1.406   .     S
C590   O620    1.274   .     A
C591   C784    1.356   1_455 S
C591   C817    1.520   1_455 S
C592   C687    1.356   .     S
C592   C725    1.526   .     S
C593   C603    1.406   .     A
C593   C595    1.384   .     A
C593   C633    1.510   .     S
C594   C604    1.406   .     A
C594   C637    1.507   .     S
C594   C596    1.389   .     A
C595   C597    1.403   .     A
C595   H605    1.084   .     S
C596   H606    1.085   .     S
C596   C598    1.396   .     A
C597   C599    1.412   .     A
C598   C600    1.400   .     A
C599   N641    1.424   .     S
C599   C601    1.387   .     A
C600   C602    1.384   .     A
C600   N647    1.423   .     S
C601   H607    1.084   .     S
C601   C603    1.395   .     A
C602   H608    1.085   .     S
C602   C604    1.398   .     A
C603   C892    1.439   1_545 S
C604   C891    1.439   .     S
N613   Zn624   2.013   .     S
N614   Zn623   2.013   .     S
O615   Zn623   1.985   .     S
O616   Zn624   1.985   .     S
O617   Zn624   1.998   .     S
O618   Zn623   1.998   .     S
O619   Zn623   1.988   .     S
O620   Zn624   1.988   .     S
O621   Zn624   1.990   .     S
O622   Zn623   1.990   .     S
C625   H627    1.107   .     S
C625   H628    1.110   .     S
C625   C687    1.520   .     S
C625   H722    1.110   .     S
H626   C817    1.110   1_455 S
C629   H632    1.110   .     S
C629   H631    1.111   .     S
C629   C784    1.526   1_455 S
C629   H822    1.111   1_455 S
H630   C725    1.111   .     S
C633   H636    1.110   .     S
C633   H634    1.110   .     S
C633   H923    1.109   1_545 S
H635   C921    1.109   .     S
C637   H639    1.110   .     S
C637   H640    1.109   .     S
C637   H638    1.109   .     S
N641   C643    1.447   .     S
N641   H642    1.032   .     S
C643   H644    1.112   .     S
C643   H645    1.111   .     S
C643   H646    1.110   .     S
N647   C649    1.447   .     S
N647   H648    1.032   .     S
C649   H650    1.112   .     S
C649   H651    1.109   .     S
C649   H652    1.110   .     S
C653   H654    1.105   .     S
C653   H655    1.108   .     S
C653   H656    1.111   .     S
C657   H658    1.111   .     S
C657   H659    1.108   .     S
C657   H660    1.109   .     S
N661   C663    1.447   .     S
N661   H662    1.032   .     S
C663   H664    1.111   .     S
C663   H666    1.111   .     S
C663   H665    1.110   .     S
N667   H668    1.032   .     S
N667   C669    1.447   .     S
C669   H670    1.110   .     S
C669   H672    1.112   .     S
C669   H95     1.110   1_556 S
C673   C693    1.449   .     S
C673   O713    1.292   .     A
C673   O711    1.290   .     A
C674   C694    1.421   .     S
C674   O714    1.284   .     A
C674   O712    1.285   .     A
C675   H705    1.083   .     S
C675   C677    1.407   .     A
C675   C683    1.399   .     A
C676   C684    1.398   .     A
C676   H706    1.083   .     S
C676   C678    1.406   .     A
C677   N709    1.378   .     A
C677   C749    1.501   .     S
C678   N710    1.378   .     A
C678   C753    1.500   .     S
C679   N709    1.361   .     A
C679   C681    1.417   .     A
C679   H707    1.074   .     S
C680   H708    1.081   .     S
C680   N710    1.365   .     A
C680   C682    1.418   .     A
C681   N757    1.424   .     S
C681   C683    1.423   .     A
C682   C684    1.422   .     A
C682   N763    1.424   .     S
C684   C107    1.519   1_556 S
C685   C687    1.403   .     S
C685   O715    1.271   .     A
C685   O717    1.286   .     A
C686   O718    1.285   .     A
C686   C688    1.406   .     S
C686   O716    1.274   .     A
C688   C783    1.356   .     S
C688   C821    1.526   .     S
C689   C699    1.406   .     A
C689   C691    1.384   .     A
C689   C729    1.510   .     S
C690   C700    1.406   .     A
C690   C733    1.507   .     S
C690   C692    1.389   .     A
C691   C693    1.403   .     A
C691   H701    1.084   .     S
C692   H702    1.085   .     S
C692   C694    1.396   .     A
C693   C695    1.412   .     A
C694   C696    1.400   .     A
C695   N737    1.424   .     S
C695   C697    1.387   .     A
C696   C698    1.384   .     A
C696   N743    1.423   .     S
C697   H703    1.084   .     S
C697   C699    1.395   .     A
C698   H704    1.085   .     S
C698   C700    1.398   .     A
C699   C988    1.439   1_545 S
C700   C987    1.439   .     S
N709   Zn720   2.013   .     S
N710   Zn719   2.013   .     S
O711   Zn719   1.985   .     S
O712   Zn720   1.985   .     S
O713   Zn720   1.998   .     S
O714   Zn719   1.998   .     S
O715   Zn719   1.988   .     S
O716   Zn720   1.988   .     S
O717   Zn720   1.990   .     S
O718   Zn719   1.990   .     S
C721   H723    1.107   .     S
C721   H724    1.110   .     S
C721   C783    1.520   .     S
C721   H818    1.110   .     S
C725   H728    1.110   .     S
C725   H727    1.111   .     S
H726   C821    1.111   .     S
C729   H732    1.110   .     S
C729   H730    1.110   .     S
C729   H1019   1.109   1_545 S
H731   C1017   1.109   .     S
C733   H735    1.110   .     S
C733   H736    1.109   .     S
C733   H734    1.109   .     S
N737   C739    1.447   .     S
N737   H738    1.032   .     S
C739   H740    1.112   .     S
C739   H741    1.111   .     S
C739   H742    1.110   .     S
N743   C745    1.447   .     S
N743   H744    1.032   .     S
C745   H746    1.112   .     S
C745   H747    1.109   .     S
C745   H748    1.110   .     S
C749   H750    1.105   .     S
C749   H751    1.108   .     S
C749   H752    1.111   .     S
C753   H754    1.111   .     S
C753   H755    1.108   .     S
C753   H756    1.109   .     S
N757   C759    1.447   .     S
N757   H758    1.032   .     S
C759   H760    1.111   .     S
C759   H762    1.111   .     S
C759   H761    1.110   .     S
N763   H764    1.032   .     S
N763   C765    1.447   .     S
C765   H766    1.110   .     S
C765   H768    1.112   .     S
C765   H191    1.110   1_556 S
C769   C789    1.449   .     S
C769   O809    1.292   .     A
C769   O807    1.290   .     A
C770   C790    1.421   .     S
C770   O810    1.284   .     A
C770   O808    1.285   .     A
C771   H801    1.083   .     S
C771   C773    1.407   .     A
C771   C779    1.399   .     A
C772   C780    1.398   .     A
C772   H802    1.083   .     S
C772   C774    1.406   .     A
C773   N805    1.378   .     A
C773   C845    1.501   .     S
C774   N806    1.378   .     A
C774   C849    1.500   .     S
C775   N805    1.361   .     A
C775   C777    1.417   .     A
C775   H803    1.074   .     S
C776   H804    1.081   .     S
C776   N806    1.365   .     A
C776   C778    1.418   .     A
C777   N853    1.424   .     S
C777   C779    1.423   .     A
C778   C780    1.422   .     A
C778   N859    1.424   .     S
C780   C203    1.519   1_556 S
C781   C783    1.403   .     S
C781   O811    1.271   .     A
C781   O813    1.286   .     A
C782   O814    1.285   .     A
C782   C784    1.406   .     S
C782   O812    1.274   .     A
C784   C591    1.356   1_655 S
C784   C629    1.526   1_655 S
C785   C795    1.406   .     A
C785   C787    1.384   .     A
C785   C825    1.510   .     S
C786   C796    1.406   .     A
C786   C829    1.507   .     S
C786   C788    1.389   .     A
C787   C789    1.403   .     A
C787   H797    1.084   .     S
C788   H798    1.085   .     S
C788   C790    1.396   .     A
C789   C791    1.412   .     A
C790   C792    1.400   .     A
C791   N833    1.424   .     S
C791   C793    1.387   .     A
C792   C794    1.384   .     A
C792   N839    1.423   .     S
C793   H799    1.084   .     S
C793   C795    1.395   .     A
C794   H800    1.085   .     S
C794   C796    1.398   .     A
C795   C1084   1.439   1_545 S
C796   C1083   1.439   .     S
N805   Zn816   2.013   .     S
N806   Zn815   2.013   .     S
O807   Zn815   1.985   .     S
O808   Zn816   1.985   .     S
O809   Zn816   1.998   .     S
O810   Zn815   1.998   .     S
O811   Zn815   1.988   .     S
O812   Zn816   1.988   .     S
O813   Zn816   1.990   .     S
O814   Zn815   1.990   .     S
C817   H819    1.107   .     S
C817   H820    1.110   .     S
C817   C591    1.520   1_655 S
C817   H626    1.110   1_655 S
C821   H824    1.110   .     S
C821   H823    1.111   .     S
H822   C629    1.111   1_655 S
C825   H828    1.110   .     S
C825   H826    1.110   .     S
C825   H1115   1.109   1_545 S
H827   C1113   1.109   .     S
C829   H831    1.110   .     S
C829   H832    1.109   .     S
C829   H830    1.109   .     S
N833   C835    1.447   .     S
N833   H834    1.032   .     S
C835   H836    1.112   .     S
C835   H837    1.111   .     S
C835   H838    1.110   .     S
N839   C841    1.447   .     S
N839   H840    1.032   .     S
C841   H842    1.112   .     S
C841   H843    1.109   .     S
C841   H844    1.110   .     S
C845   H846    1.105   .     S
C845   H847    1.108   .     S
C845   H848    1.111   .     S
C849   H850    1.111   .     S
C849   H851    1.108   .     S
C849   H852    1.109   .     S
N853   C855    1.447   .     S
N853   H854    1.032   .     S
C855   H856    1.111   .     S
C855   H858    1.111   .     S
C855   H857    1.110   .     S
N859   H860    1.032   .     S
N859   C861    1.447   .     S
C861   H862    1.110   .     S
C861   H864    1.112   .     S
C861   H287    1.110   1_556 S
C865   C885    1.449   .     S
C865   O905    1.292   .     A
C865   O903    1.290   .     A
C866   C886    1.421   .     S
C866   O906    1.284   .     A
C866   O904    1.285   .     A
C867   H897    1.083   .     S
C867   C869    1.407   .     A
C867   C875    1.399   .     A
C868   C876    1.398   .     A
C868   H898    1.083   .     S
C868   C870    1.406   .     A
C869   N901    1.378   .     A
C869   C941    1.501   .     S
C870   N902    1.378   .     A
C870   C945    1.500   .     S
C871   N901    1.361   .     A
C871   C873    1.417   .     A
C871   H899    1.074   .     S
C872   H900    1.081   .     S
C872   N902    1.365   .     A
C872   C874    1.418   .     A
C873   N949    1.424   .     S
C873   C875    1.423   .     A
C874   C876    1.422   .     A
C874   N955    1.424   .     S
C876   C299    1.519   1_556 S
C877   C879    1.403   .     S
C877   O907    1.271   .     A
C877   O909    1.286   .     A
C878   O910    1.285   .     A
C878   C880    1.406   .     S
C878   O908    1.274   .     A
C879   C1072   1.356   1_455 S
C879   C1105   1.520   1_455 S
C880   C975    1.356   .     S
C880   C1013   1.526   .     S
C881   C891    1.406   .     A
C881   C883    1.384   .     A
C881   C921    1.510   .     S
C882   C892    1.406   .     A
C882   C925    1.507   .     S
C882   C884    1.389   .     A
C883   C885    1.403   .     A
C883   H893    1.084   .     S
C884   H894    1.085   .     S
C884   C886    1.396   .     A
C885   C887    1.412   .     A
C886   C888    1.400   .     A
C887   N929    1.424   .     S
C887   C889    1.387   .     A
C888   C890    1.384   .     A
C888   N935    1.423   .     S
C889   H895    1.084   .     S
C889   C891    1.395   .     A
C890   H896    1.085   .     S
C890   C892    1.398   .     A
C892   C603    1.439   1_565 S
N901   Zn912   2.013   .     S
N902   Zn911   2.013   .     S
O903   Zn911   1.985   .     S
O904   Zn912   1.985   .     S
O905   Zn912   1.998   .     S
O906   Zn911   1.998   .     S
O907   Zn911   1.988   .     S
O908   Zn912   1.988   .     S
O909   Zn912   1.990   .     S
O910   Zn911   1.990   .     S
C913   H915    1.107   .     S
C913   H916    1.110   .     S
C913   C975    1.520   .     S
C913   H1010   1.110   .     S
H914   C1105   1.110   1_455 S
C917   H920    1.110   .     S
C917   H919    1.111   .     S
C917   C1072   1.526   1_455 S
C917   H1110   1.111   1_455 S
H918   C1013   1.111   .     S
C921   H924    1.110   .     S
C921   H922    1.110   .     S
H923   C633    1.109   1_565 S
C925   H927    1.110   .     S
C925   H928    1.109   .     S
C925   H926    1.109   .     S
N929   C931    1.447   .     S
N929   H930    1.032   .     S
C931   H932    1.112   .     S
C931   H933    1.111   .     S
C931   H934    1.110   .     S
N935   C937    1.447   .     S
N935   H936    1.032   .     S
C937   H938    1.112   .     S
C937   H939    1.109   .     S
C937   H940    1.110   .     S
C941   H942    1.105   .     S
C941   H943    1.108   .     S
C941   H944    1.111   .     S
C945   H946    1.111   .     S
C945   H947    1.108   .     S
C945   H948    1.109   .     S
N949   C951    1.447   .     S
N949   H950    1.032   .     S
C951   H952    1.111   .     S
C951   H954    1.111   .     S
C951   H953    1.110   .     S
N955   H956    1.032   .     S
N955   C957    1.447   .     S
C957   H958    1.110   .     S
C957   H960    1.112   .     S
C957   H383    1.110   1_556 S
C961   C981    1.449   .     S
C961   O1001   1.292   .     A
C961   O999    1.290   .     A
C962   C982    1.421   .     S
C962   O1002   1.284   .     A
C962   O1000   1.285   .     A
C963   H993    1.083   .     S
C963   C965    1.407   .     A
C963   C971    1.399   .     A
C964   C972    1.398   .     A
C964   H994    1.083   .     S
C964   C966    1.406   .     A
C965   N997    1.378   .     A
C965   C1037   1.501   .     S
C966   N998    1.378   .     A
C966   C1041   1.500   .     S
C967   N997    1.361   .     A
C967   C969    1.417   .     A
C967   H995    1.074   .     S
C968   H996    1.081   .     S
C968   N998    1.365   .     A
C968   C970    1.418   .     A
C969   N1045   1.424   .     S
C969   C971    1.423   .     A
C970   C972    1.422   .     A
C970   N1051   1.424   .     S
C972   C395    1.519   1_556 S
C973   C975    1.403   .     S
C973   O1003   1.271   .     A
C973   O1005   1.286   .     A
C974   O1006   1.285   .     A
C974   C976    1.406   .     S
C974   O1004   1.274   .     A
C976   C1071   1.356   .     S
C976   C1109   1.526   .     S
C977   C987    1.406   .     A
C977   C979    1.384   .     A
C977   C1017   1.510   .     S
C978   C988    1.406   .     A
C978   C1021   1.507   .     S
C978   C980    1.389   .     A
C979   C981    1.403   .     A
C979   H989    1.084   .     S
C980   H990    1.085   .     S
C980   C982    1.396   .     A
C981   C983    1.412   .     A
C982   C984    1.400   .     A
C983   N1025   1.424   .     S
C983   C985    1.387   .     A
C984   C986    1.384   .     A
C984   N1031   1.423   .     S
C985   H991    1.084   .     S
C985   C987    1.395   .     A
C986   H992    1.085   .     S
C986   C988    1.398   .     A
C988   C699    1.439   1_565 S
N997   Zn1008  2.013   .     S
N998   Zn1007  2.013   .     S
O999   Zn1007  1.985   .     S
O1000  Zn1008  1.985   .     S
O1001  Zn1008  1.998   .     S
O1002  Zn1007  1.998   .     S
O1003  Zn1007  1.988   .     S
O1004  Zn1008  1.988   .     S
O1005  Zn1008  1.990   .     S
O1006  Zn1007  1.990   .     S
C1009  H1011   1.107   .     S
C1009  H1012   1.110   .     S
C1009  C1071   1.520   .     S
C1009  H1106   1.110   .     S
C1013  H1016   1.110   .     S
C1013  H1015   1.111   .     S
H1014  C1109   1.111   .     S
C1017  H1020   1.110   .     S
C1017  H1018   1.110   .     S
H1019  C729    1.109   1_565 S
C1021  H1023   1.110   .     S
C1021  H1024   1.109   .     S
C1021  H1022   1.109   .     S
N1025  C1027   1.447   .     S
N1025  H1026   1.032   .     S
C1027  H1028   1.112   .     S
C1027  H1029   1.111   .     S
C1027  H1030   1.110   .     S
N1031  C1033   1.447   .     S
N1031  H1032   1.032   .     S
C1033  H1034   1.112   .     S
C1033  H1035   1.109   .     S
C1033  H1036   1.110   .     S
C1037  H1038   1.105   .     S
C1037  H1039   1.108   .     S
C1037  H1040   1.111   .     S
C1041  H1042   1.111   .     S
C1041  H1043   1.108   .     S
C1041  H1044   1.109   .     S
N1045  C1047   1.447   .     S
N1045  H1046   1.032   .     S
C1047  H1048   1.111   .     S
C1047  H1050   1.111   .     S
C1047  H1049   1.110   .     S
N1051  H1052   1.032   .     S
N1051  C1053   1.447   .     S
C1053  H1054   1.110   .     S
C1053  H1056   1.112   .     S
C1053  H479    1.110   1_556 S
C1057  C1077   1.449   .     S
C1057  O1097   1.292   .     A
C1057  O1095   1.290   .     A
C1058  C1078   1.421   .     S
C1058  O1098   1.284   .     A
C1058  O1096   1.285   .     A
C1059  H1089   1.083   .     S
C1059  C1061   1.407   .     A
C1059  C1067   1.399   .     A
C1060  C1068   1.398   .     A
C1060  H1090   1.083   .     S
C1060  C1062   1.406   .     A
C1061  N1093   1.378   .     A
C1061  C1133   1.501   .     S
C1062  N1094   1.378   .     A
C1062  C1137   1.500   .     S
C1063  N1093   1.361   .     A
C1063  C1065   1.417   .     A
C1063  H1091   1.074   .     S
C1064  H1092   1.081   .     S
C1064  N1094   1.365   .     A
C1064  C1066   1.418   .     A
C1065  N1141   1.424   .     S
C1065  C1067   1.423   .     A
C1066  C1068   1.422   .     A
C1066  N1147   1.424   .     S
C1068  C491    1.519   1_556 S
C1069  C1071   1.403   .     S
C1069  O1099   1.271   .     A
C1069  O1101   1.286   .     A
C1070  O1102   1.285   .     A
C1070  C1072   1.406   .     S
C1070  O1100   1.274   .     A
C1072  C879    1.356   1_655 S
C1072  C917    1.526   1_655 S
C1073  C1083   1.406   .     A
C1073  C1075   1.384   .     A
C1073  C1113   1.510   .     S
C1074  C1084   1.406   .     A
C1074  C1117   1.507   .     S
C1074  C1076   1.389   .     A
C1075  C1077   1.403   .     A
C1075  H1085   1.084   .     S
C1076  H1086   1.085   .     S
C1076  C1078   1.396   .     A
C1077  C1079   1.412   .     A
C1078  C1080   1.400   .     A
C1079  N1121   1.424   .     S
C1079  C1081   1.387   .     A
C1080  C1082   1.384   .     A
C1080  N1127   1.423   .     S
C1081  H1087   1.084   .     S
C1081  C1083   1.395   .     A
C1082  H1088   1.085   .     S
C1082  C1084   1.398   .     A
C1084  C795    1.439   1_565 S
N1093  Zn1104  2.013   .     S
N1094  Zn1103  2.013   .     S
O1095  Zn1103  1.985   .     S
O1096  Zn1104  1.985   .     S
O1097  Zn1104  1.998   .     S
O1098  Zn1103  1.998   .     S
O1099  Zn1103  1.988   .     S
O1100  Zn1104  1.988   .     S
O1101  Zn1104  1.990   .     S
O1102  Zn1103  1.990   .     S
C1105  H1107   1.107   .     S
C1105  H1108   1.110   .     S
C1105  C879    1.520   1_655 S
C1105  H914    1.110   1_655 S
C1109  H1112   1.110   .     S
C1109  H1111   1.111   .     S
H1110  C917    1.111   1_655 S
C1113  H1116   1.110   .     S
C1113  H1114   1.110   .     S
H1115  C825    1.109   1_565 S
C1117  H1119   1.110   .     S
C1117  H1120   1.109   .     S
C1117  H1118   1.109   .     S
N1121  C1123   1.447   .     S
N1121  H1122   1.032   .     S
C1123  H1124   1.112   .     S
C1123  H1125   1.111   .     S
C1123  H1126   1.110   .     S
N1127  C1129   1.447   .     S
N1127  H1128   1.032   .     S
C1129  H1130   1.112   .     S
C1129  H1131   1.109   .     S
C1129  H1132   1.110   .     S
C1133  H1134   1.105   .     S
C1133  H1135   1.108   .     S
C1133  H1136   1.111   .     S
C1137  H1138   1.111   .     S
C1137  H1139   1.108   .     S
C1137  H1140   1.109   .     S
N1141  C1143   1.447   .     S
N1141  H1142   1.032   .     S
C1143  H1144   1.111   .     S
C1143  H1146   1.111   .     S
C1143  H1145   1.110   .     S
N1147  H1148   1.032   .     S
N1147  C1149   1.447   .     S
C1149  H1150   1.110   .     S
C1149  H1152   1.112   .     S
C1149  H575    1.110   1_556 S
