data_str_m3_o10_o16_pcu_sym.70
_audit_creation_date              2020-01-03
_audit_creation_method            'Materials Studio'
_symmetry_space_group_name_H-M    'P1'
_symmetry_Int_Tables_number       1
_symmetry_cell_setting            triclinic
loop_
_symmetry_equiv_pos_as_xyz
  x,y,z
_cell_length_a                    23.4929
_cell_length_b                    25.7102
_cell_length_c                    24.1523
_cell_angle_alpha                 92.2821
_cell_angle_beta                  101.4780
_cell_angle_gamma                 94.1328
loop_
_atom_site_label
_atom_site_type_symbol
_atom_site_fract_x
_atom_site_fract_y
_atom_site_fract_z
_atom_site_U_iso_or_equiv
_atom_site_adp_type
_atom_site_occupancy
C1     C     0.01490   0.26491   0.24874   0.00000  Uiso   1.00
C2     C     0.05308   0.16766   0.41642   0.00000  Uiso   1.00
C3     C     0.02271   0.31950   0.24823   0.00000  Uiso   1.00
C4     C     0.03549   0.16814   0.35527   0.00000  Uiso   1.00
C5     C     0.31089   0.01389   0.25260   0.00000  Uiso   1.00
C6     C     0.31853   0.06844   0.25154   0.00000  Uiso   1.00
C7     C     0.29734   0.16255   0.14473   0.00000  Uiso   1.00
C8     C     0.26729   0.08994   0.00401   0.00000  Uiso   1.00
C9     C     0.27624   0.15029   0.08493   0.00000  Uiso   1.00
C10    C     0.02486   0.19807   0.45031   0.00000  Uiso   1.00
C11    C     0.04617   0.20446   0.00812   0.00000  Uiso   1.00
C12    C     0.12971   0.15655   0.49696   0.00000  Uiso   1.00
C13    C     0.09838   0.18386   0.03243   0.00000  Uiso   1.00
C14    C     0.10193   0.14198   0.44089   0.00000  Uiso   1.00
C15    C     0.18763   0.14336   0.01457   0.00000  Uiso   1.00
C16    C     0.21100   0.10526   0.48305   0.00000  Uiso   1.00
C17    C     0.17764   0.08365   0.43160   0.00000  Uiso   1.00
C18    C     0.12398   0.10272   0.41042   0.00000  Uiso   1.00
C19    C     0.22412   0.16953   0.06115   0.00000  Uiso   1.00
C20    C     0.29892   0.11106   0.05605   0.00000  Uiso   1.00
H21    H     0.00632   0.09556   0.07451   0.00000  Uiso   1.00
H22    H     0.28592   0.06032   0.48164   0.00000  Uiso   1.00
H23    H     0.10890   0.14848   0.10628   0.00000  Uiso   1.00
H24    H     0.09072   0.21040   0.11194   0.00000  Uiso   1.00
H25    H     0.09936   0.08587   0.37021   0.00000  Uiso   1.00
H26    H     0.06526   0.00333   0.24413   0.00000  Uiso   1.00
H27    H     0.15653   0.12479   0.20842   0.00000  Uiso   1.00
H28    H     0.21179   0.20400   0.08139   0.00000  Uiso   1.00
H29    H     0.31980   0.21722   0.43203   0.00000  Uiso   1.00
H30    H     0.02213   0.22601   0.03396   0.00000  Uiso   1.00
H31    H     0.26836   0.33007   0.25679   0.00000  Uiso   1.00
H32    H     0.17684   0.20844   0.29172   0.00000  Uiso   1.00
H33    H     0.16864   0.01150   0.39306   0.00000  Uiso   1.00
H34    H     0.20135   0.05814   0.35993   0.00000  Uiso   1.00
N35    N     0.14493   0.15223   0.23543   0.00000  Uiso   1.00
N36    N     0.18840   0.18110   0.26458   0.00000  Uiso   1.00
N37    N     0.19903   0.04405   0.39952   0.00000  Uiso   1.00
N38    N     0.11612   0.18615   0.09302   0.00000  Uiso   1.00
O39    O     0.29769   0.24629   0.25358   0.00000  Uiso   1.00
O40    O     0.05742   0.23704   0.24424   0.00000  Uiso   1.00
O41    O     0.31490   0.17358   0.33380   0.00000  Uiso   1.00
O42    O     0.07463   0.16433   0.32446   0.00000  Uiso   1.00
O43    O     0.27592   0.09629   0.25577   0.00000  Uiso   1.00
O44    O     0.03565   0.08704   0.24643   0.00000  Uiso   1.00
O45    O     0.25870   0.16901   0.17554   0.00000  Uiso   1.00
O46    O     0.01843   0.15976   0.16620   0.00000  Uiso   1.00
Zn47   Zn    0.27119   0.17284   0.25624   0.00000  Uiso   1.00
Zn48   Zn    0.06214   0.16049   0.24377   0.00000  Uiso   1.00
C49    C     0.34823   0.26491   0.24874   0.00000  Uiso   1.00
C50    C     0.38641   0.16766   0.41642   0.00000  Uiso   1.00
C51    C     0.35604   0.31950   0.24823   0.00000  Uiso   1.00
C52    C     0.36883   0.16814   0.35527   0.00000  Uiso   1.00
C53    C     0.64422   0.01389   0.25260   0.00000  Uiso   1.00
C54    C     0.65186   0.06844   0.25154   0.00000  Uiso   1.00
C55    C     0.63067   0.16255   0.14473   0.00000  Uiso   1.00
C56    C     0.60063   0.08994   0.00401   0.00000  Uiso   1.00
C57    C     0.60957   0.15029   0.08493   0.00000  Uiso   1.00
C58    C     0.35820   0.19807   0.45031   0.00000  Uiso   1.00
C59    C     0.37950   0.20446   0.00812   0.00000  Uiso   1.00
C60    C     0.46304   0.15655   0.49696   0.00000  Uiso   1.00
C61    C     0.43171   0.18386   0.03243   0.00000  Uiso   1.00
C62    C     0.43526   0.14198   0.44089   0.00000  Uiso   1.00
C63    C     0.52096   0.14336   0.01457   0.00000  Uiso   1.00
C64    C     0.54433   0.10526   0.48305   0.00000  Uiso   1.00
C65    C     0.51097   0.08365   0.43160   0.00000  Uiso   1.00
C66    C     0.45731   0.10272   0.41042   0.00000  Uiso   1.00
C67    C     0.55745   0.16953   0.06115   0.00000  Uiso   1.00
C68    C     0.63225   0.11106   0.05605   0.00000  Uiso   1.00
H69    H     0.33966   0.09556   0.07451   0.00000  Uiso   1.00
H70    H     0.61925   0.06032   0.48164   0.00000  Uiso   1.00
H71    H     0.44223   0.14848   0.10628   0.00000  Uiso   1.00
H72    H     0.42405   0.21040   0.11194   0.00000  Uiso   1.00
H73    H     0.43270   0.08587   0.37021   0.00000  Uiso   1.00
H74    H     0.39860   0.00333   0.24413   0.00000  Uiso   1.00
H75    H     0.48986   0.12479   0.20842   0.00000  Uiso   1.00
H76    H     0.54512   0.20400   0.08139   0.00000  Uiso   1.00
H77    H     0.65313   0.21722   0.43203   0.00000  Uiso   1.00
H78    H     0.35547   0.22601   0.03396   0.00000  Uiso   1.00
H79    H     0.60170   0.33007   0.25679   0.00000  Uiso   1.00
H80    H     0.51017   0.20844   0.29172   0.00000  Uiso   1.00
H81    H     0.50197   0.01150   0.39306   0.00000  Uiso   1.00
H82    H     0.53468   0.05814   0.35993   0.00000  Uiso   1.00
N83    N     0.47827   0.15223   0.23543   0.00000  Uiso   1.00
N84    N     0.52173   0.18110   0.26458   0.00000  Uiso   1.00
N85    N     0.53236   0.04405   0.39952   0.00000  Uiso   1.00
N86    N     0.44945   0.18615   0.09302   0.00000  Uiso   1.00
O87    O     0.63102   0.24629   0.25358   0.00000  Uiso   1.00
O88    O     0.39075   0.23704   0.24424   0.00000  Uiso   1.00
O89    O     0.64823   0.17358   0.33380   0.00000  Uiso   1.00
O90    O     0.40796   0.16433   0.32446   0.00000  Uiso   1.00
O91    O     0.60925   0.09629   0.25577   0.00000  Uiso   1.00
O92    O     0.36898   0.08704   0.24643   0.00000  Uiso   1.00
O93    O     0.59204   0.16901   0.17554   0.00000  Uiso   1.00
O94    O     0.35177   0.15976   0.16620   0.00000  Uiso   1.00
Zn95   Zn    0.60453   0.17284   0.25624   0.00000  Uiso   1.00
Zn96   Zn    0.39547   0.16049   0.24377   0.00000  Uiso   1.00
C97    C     0.68156   0.26491   0.24874   0.00000  Uiso   1.00
C98    C     0.71974   0.16766   0.41642   0.00000  Uiso   1.00
C99    C     0.68937   0.31950   0.24823   0.00000  Uiso   1.00
C100   C     0.70216   0.16814   0.35527   0.00000  Uiso   1.00
C101   C     0.97756   0.01389   0.25260   0.00000  Uiso   1.00
C102   C     0.98519   0.06844   0.25154   0.00000  Uiso   1.00
C103   C     0.96401   0.16255   0.14473   0.00000  Uiso   1.00
C104   C     0.93396   0.08994   0.00401   0.00000  Uiso   1.00
C105   C     0.94290   0.15029   0.08493   0.00000  Uiso   1.00
C106   C     0.69153   0.19807   0.45031   0.00000  Uiso   1.00
C107   C     0.71283   0.20446   0.00812   0.00000  Uiso   1.00
C108   C     0.79638   0.15655   0.49696   0.00000  Uiso   1.00
C109   C     0.76505   0.18386   0.03243   0.00000  Uiso   1.00
C110   C     0.76859   0.14198   0.44089   0.00000  Uiso   1.00
C111   C     0.85430   0.14336   0.01457   0.00000  Uiso   1.00
C112   C     0.87767   0.10526   0.48305   0.00000  Uiso   1.00
C113   C     0.84430   0.08365   0.43160   0.00000  Uiso   1.00
C114   C     0.79064   0.10272   0.41042   0.00000  Uiso   1.00
C115   C     0.89078   0.16953   0.06115   0.00000  Uiso   1.00
C116   C     0.96559   0.11106   0.05605   0.00000  Uiso   1.00
H117   H     0.67299   0.09556   0.07451   0.00000  Uiso   1.00
H118   H     0.95259   0.06032   0.48164   0.00000  Uiso   1.00
H119   H     0.77557   0.14848   0.10628   0.00000  Uiso   1.00
H120   H     0.75738   0.21040   0.11194   0.00000  Uiso   1.00
H121   H     0.76603   0.08587   0.37021   0.00000  Uiso   1.00
H122   H     0.73193   0.00333   0.24413   0.00000  Uiso   1.00
H123   H     0.82320   0.12479   0.20842   0.00000  Uiso   1.00
H124   H     0.87846   0.20400   0.08139   0.00000  Uiso   1.00
H125   H     0.98647   0.21722   0.43203   0.00000  Uiso   1.00
H126   H     0.68880   0.22601   0.03396   0.00000  Uiso   1.00
H127   H     0.93503   0.33007   0.25679   0.00000  Uiso   1.00
H128   H     0.84350   0.20844   0.29172   0.00000  Uiso   1.00
H129   H     0.83531   0.01150   0.39306   0.00000  Uiso   1.00
H130   H     0.86802   0.05814   0.35993   0.00000  Uiso   1.00
N131   N     0.81160   0.15223   0.23543   0.00000  Uiso   1.00
N132   N     0.85507   0.18110   0.26458   0.00000  Uiso   1.00
N133   N     0.86569   0.04405   0.39952   0.00000  Uiso   1.00
N134   N     0.78278   0.18615   0.09302   0.00000  Uiso   1.00
O135   O     0.96435   0.24629   0.25358   0.00000  Uiso   1.00
O136   O     0.72408   0.23704   0.24424   0.00000  Uiso   1.00
O137   O     0.98157   0.17358   0.33380   0.00000  Uiso   1.00
O138   O     0.74130   0.16433   0.32446   0.00000  Uiso   1.00
O139   O     0.94258   0.09629   0.25577   0.00000  Uiso   1.00
O140   O     0.70231   0.08704   0.24643   0.00000  Uiso   1.00
O141   O     0.92537   0.16901   0.17554   0.00000  Uiso   1.00
O142   O     0.68510   0.15976   0.16620   0.00000  Uiso   1.00
Zn143  Zn    0.93786   0.17284   0.25624   0.00000  Uiso   1.00
Zn144  Zn    0.72881   0.16049   0.24377   0.00000  Uiso   1.00
C145   C     0.01490   0.59824   0.24874   0.00000  Uiso   1.00
C146   C     0.05308   0.50100   0.41642   0.00000  Uiso   1.00
C147   C     0.02271   0.65283   0.24823   0.00000  Uiso   1.00
C148   C     0.03549   0.50148   0.35527   0.00000  Uiso   1.00
C149   C     0.31089   0.34723   0.25260   0.00000  Uiso   1.00
C150   C     0.31853   0.40178   0.25154   0.00000  Uiso   1.00
C151   C     0.29734   0.49588   0.14473   0.00000  Uiso   1.00
C152   C     0.26729   0.42327   0.00401   0.00000  Uiso   1.00
C153   C     0.27624   0.48363   0.08493   0.00000  Uiso   1.00
C154   C     0.02486   0.53140   0.45031   0.00000  Uiso   1.00
C155   C     0.04617   0.53780   0.00812   0.00000  Uiso   1.00
C156   C     0.12971   0.48988   0.49696   0.00000  Uiso   1.00
C157   C     0.09838   0.51719   0.03243   0.00000  Uiso   1.00
C158   C     0.10193   0.47532   0.44089   0.00000  Uiso   1.00
C159   C     0.18763   0.47669   0.01457   0.00000  Uiso   1.00
C160   C     0.21100   0.43859   0.48305   0.00000  Uiso   1.00
C161   C     0.17764   0.41698   0.43160   0.00000  Uiso   1.00
C162   C     0.12398   0.43605   0.41042   0.00000  Uiso   1.00
C163   C     0.22412   0.50287   0.06115   0.00000  Uiso   1.00
C164   C     0.29892   0.44439   0.05605   0.00000  Uiso   1.00
H165   H     0.00632   0.42889   0.07451   0.00000  Uiso   1.00
H166   H     0.28592   0.39365   0.48164   0.00000  Uiso   1.00
H167   H     0.10890   0.48181   0.10628   0.00000  Uiso   1.00
H168   H     0.09072   0.54373   0.11194   0.00000  Uiso   1.00
H169   H     0.09936   0.41921   0.37021   0.00000  Uiso   1.00
H170   H     0.06526   0.33666   0.24413   0.00000  Uiso   1.00
H171   H     0.15653   0.45812   0.20842   0.00000  Uiso   1.00
H172   H     0.21179   0.53733   0.08139   0.00000  Uiso   1.00
H173   H     0.31980   0.55055   0.43203   0.00000  Uiso   1.00
H174   H     0.02213   0.55934   0.03396   0.00000  Uiso   1.00
H175   H     0.26836   0.66341   0.25679   0.00000  Uiso   1.00
H176   H     0.17684   0.54178   0.29172   0.00000  Uiso   1.00
H177   H     0.16864   0.34483   0.39306   0.00000  Uiso   1.00
H178   H     0.20135   0.39147   0.35993   0.00000  Uiso   1.00
N179   N     0.14493   0.48556   0.23543   0.00000  Uiso   1.00
N180   N     0.18840   0.51444   0.26458   0.00000  Uiso   1.00
N181   N     0.19903   0.37738   0.39952   0.00000  Uiso   1.00
N182   N     0.11612   0.51949   0.09302   0.00000  Uiso   1.00
O183   O     0.29769   0.57963   0.25358   0.00000  Uiso   1.00
O184   O     0.05742   0.57038   0.24424   0.00000  Uiso   1.00
O185   O     0.31490   0.50691   0.33380   0.00000  Uiso   1.00
O186   O     0.07463   0.49766   0.32446   0.00000  Uiso   1.00
O187   O     0.27592   0.42962   0.25577   0.00000  Uiso   1.00
O188   O     0.03565   0.42037   0.24643   0.00000  Uiso   1.00
O189   O     0.25870   0.50234   0.17554   0.00000  Uiso   1.00
O190   O     0.01843   0.49309   0.16620   0.00000  Uiso   1.00
Zn191  Zn    0.27119   0.50618   0.25624   0.00000  Uiso   1.00
Zn192  Zn    0.06214   0.49382   0.24377   0.00000  Uiso   1.00
C193   C     0.34823   0.59824   0.24874   0.00000  Uiso   1.00
C194   C     0.38641   0.50100   0.41642   0.00000  Uiso   1.00
C195   C     0.35604   0.65283   0.24823   0.00000  Uiso   1.00
C196   C     0.36883   0.50148   0.35527   0.00000  Uiso   1.00
C197   C     0.64422   0.34723   0.25260   0.00000  Uiso   1.00
C198   C     0.65186   0.40178   0.25154   0.00000  Uiso   1.00
C199   C     0.63067   0.49588   0.14473   0.00000  Uiso   1.00
C200   C     0.60063   0.42327   0.00401   0.00000  Uiso   1.00
C201   C     0.60957   0.48363   0.08493   0.00000  Uiso   1.00
C202   C     0.35820   0.53140   0.45031   0.00000  Uiso   1.00
C203   C     0.37950   0.53780   0.00812   0.00000  Uiso   1.00
C204   C     0.46304   0.48988   0.49696   0.00000  Uiso   1.00
C205   C     0.43171   0.51719   0.03243   0.00000  Uiso   1.00
C206   C     0.43526   0.47532   0.44089   0.00000  Uiso   1.00
C207   C     0.52096   0.47669   0.01457   0.00000  Uiso   1.00
C208   C     0.54433   0.43859   0.48305   0.00000  Uiso   1.00
C209   C     0.51097   0.41698   0.43160   0.00000  Uiso   1.00
C210   C     0.45731   0.43605   0.41042   0.00000  Uiso   1.00
C211   C     0.55745   0.50287   0.06115   0.00000  Uiso   1.00
C212   C     0.63225   0.44439   0.05605   0.00000  Uiso   1.00
H213   H     0.33966   0.42889   0.07451   0.00000  Uiso   1.00
H214   H     0.61925   0.39365   0.48164   0.00000  Uiso   1.00
H215   H     0.44223   0.48181   0.10628   0.00000  Uiso   1.00
H216   H     0.42405   0.54373   0.11194   0.00000  Uiso   1.00
H217   H     0.43270   0.41921   0.37021   0.00000  Uiso   1.00
H218   H     0.39860   0.33666   0.24413   0.00000  Uiso   1.00
H219   H     0.48986   0.45812   0.20842   0.00000  Uiso   1.00
H220   H     0.54512   0.53733   0.08139   0.00000  Uiso   1.00
H221   H     0.65313   0.55055   0.43203   0.00000  Uiso   1.00
H222   H     0.35547   0.55934   0.03396   0.00000  Uiso   1.00
H223   H     0.60170   0.66341   0.25679   0.00000  Uiso   1.00
H224   H     0.51017   0.54178   0.29172   0.00000  Uiso   1.00
H225   H     0.50197   0.34483   0.39306   0.00000  Uiso   1.00
H226   H     0.53468   0.39147   0.35993   0.00000  Uiso   1.00
N227   N     0.47827   0.48556   0.23543   0.00000  Uiso   1.00
N228   N     0.52173   0.51444   0.26458   0.00000  Uiso   1.00
N229   N     0.53236   0.37738   0.39952   0.00000  Uiso   1.00
N230   N     0.44945   0.51949   0.09302   0.00000  Uiso   1.00
O231   O     0.63102   0.57963   0.25358   0.00000  Uiso   1.00
O232   O     0.39075   0.57038   0.24424   0.00000  Uiso   1.00
O233   O     0.64823   0.50691   0.33380   0.00000  Uiso   1.00
O234   O     0.40796   0.49766   0.32446   0.00000  Uiso   1.00
O235   O     0.60925   0.42962   0.25577   0.00000  Uiso   1.00
O236   O     0.36898   0.42037   0.24643   0.00000  Uiso   1.00
O237   O     0.59204   0.50234   0.17554   0.00000  Uiso   1.00
O238   O     0.35177   0.49309   0.16620   0.00000  Uiso   1.00
Zn239  Zn    0.60453   0.50618   0.25624   0.00000  Uiso   1.00
Zn240  Zn    0.39547   0.49382   0.24377   0.00000  Uiso   1.00
C241   C     0.68156   0.59824   0.24874   0.00000  Uiso   1.00
C242   C     0.71974   0.50100   0.41642   0.00000  Uiso   1.00
C243   C     0.68937   0.65283   0.24823   0.00000  Uiso   1.00
C244   C     0.70216   0.50148   0.35527   0.00000  Uiso   1.00
C245   C     0.97756   0.34723   0.25260   0.00000  Uiso   1.00
C246   C     0.98519   0.40178   0.25154   0.00000  Uiso   1.00
C247   C     0.96401   0.49588   0.14473   0.00000  Uiso   1.00
C248   C     0.93396   0.42327   0.00401   0.00000  Uiso   1.00
C249   C     0.94290   0.48363   0.08493   0.00000  Uiso   1.00
C250   C     0.69153   0.53140   0.45031   0.00000  Uiso   1.00
C251   C     0.71283   0.53780   0.00812   0.00000  Uiso   1.00
C252   C     0.79638   0.48988   0.49696   0.00000  Uiso   1.00
C253   C     0.76505   0.51719   0.03243   0.00000  Uiso   1.00
C254   C     0.76859   0.47532   0.44089   0.00000  Uiso   1.00
C255   C     0.85430   0.47669   0.01457   0.00000  Uiso   1.00
C256   C     0.87767   0.43859   0.48305   0.00000  Uiso   1.00
C257   C     0.84430   0.41698   0.43160   0.00000  Uiso   1.00
C258   C     0.79064   0.43605   0.41042   0.00000  Uiso   1.00
C259   C     0.89078   0.50287   0.06115   0.00000  Uiso   1.00
C260   C     0.96559   0.44439   0.05605   0.00000  Uiso   1.00
H261   H     0.67299   0.42889   0.07451   0.00000  Uiso   1.00
H262   H     0.95259   0.39365   0.48164   0.00000  Uiso   1.00
H263   H     0.77557   0.48181   0.10628   0.00000  Uiso   1.00
H264   H     0.75738   0.54373   0.11194   0.00000  Uiso   1.00
H265   H     0.76603   0.41921   0.37021   0.00000  Uiso   1.00
H266   H     0.73193   0.33666   0.24413   0.00000  Uiso   1.00
H267   H     0.82320   0.45812   0.20842   0.00000  Uiso   1.00
H268   H     0.87846   0.53733   0.08139   0.00000  Uiso   1.00
H269   H     0.98647   0.55055   0.43203   0.00000  Uiso   1.00
H270   H     0.68880   0.55934   0.03396   0.00000  Uiso   1.00
H271   H     0.93503   0.66341   0.25679   0.00000  Uiso   1.00
H272   H     0.84350   0.54178   0.29172   0.00000  Uiso   1.00
H273   H     0.83531   0.34483   0.39306   0.00000  Uiso   1.00
H274   H     0.86802   0.39147   0.35993   0.00000  Uiso   1.00
N275   N     0.81160   0.48556   0.23543   0.00000  Uiso   1.00
N276   N     0.85507   0.51444   0.26458   0.00000  Uiso   1.00
N277   N     0.86569   0.37738   0.39952   0.00000  Uiso   1.00
N278   N     0.78278   0.51949   0.09302   0.00000  Uiso   1.00
O279   O     0.96435   0.57963   0.25358   0.00000  Uiso   1.00
O280   O     0.72408   0.57038   0.24424   0.00000  Uiso   1.00
O281   O     0.98157   0.50691   0.33380   0.00000  Uiso   1.00
O282   O     0.74130   0.49766   0.32446   0.00000  Uiso   1.00
O283   O     0.94258   0.42962   0.25577   0.00000  Uiso   1.00
O284   O     0.70231   0.42037   0.24643   0.00000  Uiso   1.00
O285   O     0.92537   0.50234   0.17554   0.00000  Uiso   1.00
O286   O     0.68510   0.49309   0.16620   0.00000  Uiso   1.00
Zn287  Zn    0.93786   0.50618   0.25624   0.00000  Uiso   1.00
Zn288  Zn    0.72881   0.49382   0.24377   0.00000  Uiso   1.00
C289   C     0.01490   0.93157   0.24874   0.00000  Uiso   1.00
C290   C     0.05308   0.83433   0.41642   0.00000  Uiso   1.00
C291   C     0.02271   0.98616   0.24823   0.00000  Uiso   1.00
C292   C     0.03549   0.83481   0.35527   0.00000  Uiso   1.00
C293   C     0.31089   0.68056   0.25260   0.00000  Uiso   1.00
C294   C     0.31853   0.73511   0.25154   0.00000  Uiso   1.00
C295   C     0.29734   0.82922   0.14473   0.00000  Uiso   1.00
C296   C     0.26729   0.75661   0.00401   0.00000  Uiso   1.00
C297   C     0.27624   0.81696   0.08493   0.00000  Uiso   1.00
C298   C     0.02486   0.86474   0.45031   0.00000  Uiso   1.00
C299   C     0.04617   0.87113   0.00812   0.00000  Uiso   1.00
C300   C     0.12971   0.82321   0.49696   0.00000  Uiso   1.00
C301   C     0.09838   0.85052   0.03243   0.00000  Uiso   1.00
C302   C     0.10193   0.80865   0.44089   0.00000  Uiso   1.00
C303   C     0.18763   0.81003   0.01457   0.00000  Uiso   1.00
C304   C     0.21100   0.77193   0.48305   0.00000  Uiso   1.00
C305   C     0.17764   0.75031   0.43160   0.00000  Uiso   1.00
C306   C     0.12398   0.76938   0.41042   0.00000  Uiso   1.00
C307   C     0.22412   0.83620   0.06115   0.00000  Uiso   1.00
C308   C     0.29892   0.77772   0.05605   0.00000  Uiso   1.00
H309   H     0.00632   0.76222   0.07451   0.00000  Uiso   1.00
H310   H     0.28592   0.72699   0.48164   0.00000  Uiso   1.00
H311   H     0.10890   0.81515   0.10628   0.00000  Uiso   1.00
H312   H     0.09072   0.87707   0.11194   0.00000  Uiso   1.00
H313   H     0.09936   0.75254   0.37021   0.00000  Uiso   1.00
H314   H     0.06526   0.67000   0.24413   0.00000  Uiso   1.00
H315   H     0.15653   0.79145   0.20842   0.00000  Uiso   1.00
H316   H     0.21179   0.87066   0.08139   0.00000  Uiso   1.00
H317   H     0.31980   0.88388   0.43203   0.00000  Uiso   1.00
H318   H     0.02213   0.89268   0.03396   0.00000  Uiso   1.00
H319   H     0.26836   0.99674   0.25679   0.00000  Uiso   1.00
H320   H     0.17684   0.87511   0.29172   0.00000  Uiso   1.00
H321   H     0.16864   0.67817   0.39306   0.00000  Uiso   1.00
H322   H     0.20135   0.72481   0.35993   0.00000  Uiso   1.00
N323   N     0.14493   0.81890   0.23543   0.00000  Uiso   1.00
N324   N     0.18840   0.84777   0.26458   0.00000  Uiso   1.00
N325   N     0.19903   0.71071   0.39952   0.00000  Uiso   1.00
N326   N     0.11612   0.85282   0.09302   0.00000  Uiso   1.00
O327   O     0.29769   0.91296   0.25358   0.00000  Uiso   1.00
O328   O     0.05742   0.90371   0.24424   0.00000  Uiso   1.00
O329   O     0.31490   0.84024   0.33380   0.00000  Uiso   1.00
O330   O     0.07463   0.83099   0.32446   0.00000  Uiso   1.00
O331   O     0.27592   0.76296   0.25577   0.00000  Uiso   1.00
O332   O     0.03565   0.75371   0.24643   0.00000  Uiso   1.00
O333   O     0.25870   0.83567   0.17554   0.00000  Uiso   1.00
O334   O     0.01843   0.82642   0.16620   0.00000  Uiso   1.00
Zn335  Zn    0.27119   0.83951   0.25624   0.00000  Uiso   1.00
Zn336  Zn    0.06214   0.82716   0.24377   0.00000  Uiso   1.00
C337   C     0.34823   0.93157   0.24874   0.00000  Uiso   1.00
C338   C     0.38641   0.83433   0.41642   0.00000  Uiso   1.00
C339   C     0.35604   0.98616   0.24823   0.00000  Uiso   1.00
C340   C     0.36883   0.83481   0.35527   0.00000  Uiso   1.00
C341   C     0.64422   0.68056   0.25260   0.00000  Uiso   1.00
C342   C     0.65186   0.73511   0.25154   0.00000  Uiso   1.00
C343   C     0.63067   0.82922   0.14473   0.00000  Uiso   1.00
C344   C     0.60063   0.75661   0.00401   0.00000  Uiso   1.00
C345   C     0.60957   0.81696   0.08493   0.00000  Uiso   1.00
C346   C     0.35820   0.86474   0.45031   0.00000  Uiso   1.00
C347   C     0.37950   0.87113   0.00812   0.00000  Uiso   1.00
C348   C     0.46304   0.82321   0.49696   0.00000  Uiso   1.00
C349   C     0.43171   0.85052   0.03243   0.00000  Uiso   1.00
C350   C     0.43526   0.80865   0.44089   0.00000  Uiso   1.00
C351   C     0.52096   0.81003   0.01457   0.00000  Uiso   1.00
C352   C     0.54433   0.77193   0.48305   0.00000  Uiso   1.00
C353   C     0.51097   0.75031   0.43160   0.00000  Uiso   1.00
C354   C     0.45731   0.76938   0.41042   0.00000  Uiso   1.00
C355   C     0.55745   0.83620   0.06115   0.00000  Uiso   1.00
C356   C     0.63225   0.77772   0.05605   0.00000  Uiso   1.00
H357   H     0.33966   0.76222   0.07451   0.00000  Uiso   1.00
H358   H     0.61925   0.72699   0.48164   0.00000  Uiso   1.00
H359   H     0.44223   0.81515   0.10628   0.00000  Uiso   1.00
H360   H     0.42405   0.87707   0.11194   0.00000  Uiso   1.00
H361   H     0.43270   0.75254   0.37021   0.00000  Uiso   1.00
H362   H     0.39860   0.67000   0.24413   0.00000  Uiso   1.00
H363   H     0.48986   0.79145   0.20842   0.00000  Uiso   1.00
H364   H     0.54512   0.87066   0.08139   0.00000  Uiso   1.00
H365   H     0.65313   0.88388   0.43203   0.00000  Uiso   1.00
H366   H     0.35547   0.89268   0.03396   0.00000  Uiso   1.00
H367   H     0.60170   0.99674   0.25679   0.00000  Uiso   1.00
H368   H     0.51017   0.87511   0.29172   0.00000  Uiso   1.00
H369   H     0.50197   0.67817   0.39306   0.00000  Uiso   1.00
H370   H     0.53468   0.72481   0.35993   0.00000  Uiso   1.00
N371   N     0.47827   0.81890   0.23543   0.00000  Uiso   1.00
N372   N     0.52173   0.84777   0.26458   0.00000  Uiso   1.00
N373   N     0.53236   0.71071   0.39952   0.00000  Uiso   1.00
N374   N     0.44945   0.85282   0.09302   0.00000  Uiso   1.00
O375   O     0.63102   0.91296   0.25358   0.00000  Uiso   1.00
O376   O     0.39075   0.90371   0.24424   0.00000  Uiso   1.00
O377   O     0.64823   0.84024   0.33380   0.00000  Uiso   1.00
O378   O     0.40796   0.83099   0.32446   0.00000  Uiso   1.00
O379   O     0.60925   0.76296   0.25577   0.00000  Uiso   1.00
O380   O     0.36898   0.75371   0.24643   0.00000  Uiso   1.00
O381   O     0.59204   0.83567   0.17554   0.00000  Uiso   1.00
O382   O     0.35177   0.82642   0.16620   0.00000  Uiso   1.00
Zn383  Zn    0.60453   0.83951   0.25624   0.00000  Uiso   1.00
Zn384  Zn    0.39547   0.82716   0.24377   0.00000  Uiso   1.00
C385   C     0.68156   0.93157   0.24874   0.00000  Uiso   1.00
C386   C     0.71974   0.83433   0.41642   0.00000  Uiso   1.00
C387   C     0.68937   0.98616   0.24823   0.00000  Uiso   1.00
C388   C     0.70216   0.83481   0.35527   0.00000  Uiso   1.00
C389   C     0.97756   0.68056   0.25260   0.00000  Uiso   1.00
C390   C     0.98519   0.73511   0.25154   0.00000  Uiso   1.00
C391   C     0.96401   0.82922   0.14473   0.00000  Uiso   1.00
C392   C     0.93396   0.75661   0.00401   0.00000  Uiso   1.00
C393   C     0.94290   0.81696   0.08493   0.00000  Uiso   1.00
C394   C     0.69153   0.86474   0.45031   0.00000  Uiso   1.00
C395   C     0.71283   0.87113   0.00812   0.00000  Uiso   1.00
C396   C     0.79638   0.82321   0.49696   0.00000  Uiso   1.00
C397   C     0.76505   0.85052   0.03243   0.00000  Uiso   1.00
C398   C     0.76859   0.80865   0.44089   0.00000  Uiso   1.00
C399   C     0.85430   0.81003   0.01457   0.00000  Uiso   1.00
C400   C     0.87767   0.77193   0.48305   0.00000  Uiso   1.00
C401   C     0.84430   0.75031   0.43160   0.00000  Uiso   1.00
C402   C     0.79064   0.76938   0.41042   0.00000  Uiso   1.00
C403   C     0.89078   0.83620   0.06115   0.00000  Uiso   1.00
C404   C     0.96559   0.77772   0.05605   0.00000  Uiso   1.00
H405   H     0.67299   0.76222   0.07451   0.00000  Uiso   1.00
H406   H     0.95259   0.72699   0.48164   0.00000  Uiso   1.00
H407   H     0.77557   0.81515   0.10628   0.00000  Uiso   1.00
H408   H     0.75738   0.87707   0.11194   0.00000  Uiso   1.00
H409   H     0.76603   0.75254   0.37021   0.00000  Uiso   1.00
H410   H     0.73193   0.67000   0.24413   0.00000  Uiso   1.00
H411   H     0.82320   0.79145   0.20842   0.00000  Uiso   1.00
H412   H     0.87846   0.87066   0.08139   0.00000  Uiso   1.00
H413   H     0.98647   0.88388   0.43203   0.00000  Uiso   1.00
H414   H     0.68880   0.89268   0.03396   0.00000  Uiso   1.00
H415   H     0.93503   0.99674   0.25679   0.00000  Uiso   1.00
H416   H     0.84350   0.87511   0.29172   0.00000  Uiso   1.00
H417   H     0.83531   0.67817   0.39306   0.00000  Uiso   1.00
H418   H     0.86802   0.72481   0.35993   0.00000  Uiso   1.00
N419   N     0.81160   0.81890   0.23543   0.00000  Uiso   1.00
N420   N     0.85507   0.84777   0.26458   0.00000  Uiso   1.00
N421   N     0.86569   0.71071   0.39952   0.00000  Uiso   1.00
N422   N     0.78278   0.85282   0.09302   0.00000  Uiso   1.00
O423   O     0.96435   0.91296   0.25358   0.00000  Uiso   1.00
O424   O     0.72408   0.90371   0.24424   0.00000  Uiso   1.00
O425   O     0.98157   0.84024   0.33380   0.00000  Uiso   1.00
O426   O     0.74130   0.83099   0.32446   0.00000  Uiso   1.00
O427   O     0.94258   0.76296   0.25577   0.00000  Uiso   1.00
O428   O     0.70231   0.75371   0.24643   0.00000  Uiso   1.00
O429   O     0.92537   0.83567   0.17554   0.00000  Uiso   1.00
O430   O     0.68510   0.82642   0.16620   0.00000  Uiso   1.00
Zn431  Zn    0.93786   0.83951   0.25624   0.00000  Uiso   1.00
Zn432  Zn    0.72881   0.82716   0.24377   0.00000  Uiso   1.00
C433   C     0.01490   0.26491   0.74874   0.00000  Uiso   1.00
C434   C     0.05308   0.16766   0.91642   0.00000  Uiso   1.00
C435   C     0.02271   0.31950   0.74823   0.00000  Uiso   1.00
C436   C     0.03549   0.16814   0.85527   0.00000  Uiso   1.00
C437   C     0.31089   0.01389   0.75260   0.00000  Uiso   1.00
C438   C     0.31853   0.06844   0.75154   0.00000  Uiso   1.00
C439   C     0.29734   0.16255   0.64473   0.00000  Uiso   1.00
C440   C     0.26729   0.08994   0.50401   0.00000  Uiso   1.00
C441   C     0.27624   0.15029   0.58493   0.00000  Uiso   1.00
C442   C     0.02486   0.19807   0.95031   0.00000  Uiso   1.00
C443   C     0.04617   0.20446   0.50812   0.00000  Uiso   1.00
C444   C     0.12971   0.15655   0.99696   0.00000  Uiso   1.00
C445   C     0.09838   0.18386   0.53243   0.00000  Uiso   1.00
C446   C     0.10193   0.14198   0.94089   0.00000  Uiso   1.00
C447   C     0.18763   0.14336   0.51457   0.00000  Uiso   1.00
C448   C     0.21100   0.10526   0.98305   0.00000  Uiso   1.00
C449   C     0.17764   0.08365   0.93160   0.00000  Uiso   1.00
C450   C     0.12398   0.10272   0.91042   0.00000  Uiso   1.00
C451   C     0.22412   0.16953   0.56115   0.00000  Uiso   1.00
C452   C     0.29892   0.11106   0.55605   0.00000  Uiso   1.00
H453   H     0.00632   0.09556   0.57451   0.00000  Uiso   1.00
H454   H     0.28592   0.06032   0.98164   0.00000  Uiso   1.00
H455   H     0.10890   0.14848   0.60628   0.00000  Uiso   1.00
H456   H     0.09072   0.21040   0.61194   0.00000  Uiso   1.00
H457   H     0.09936   0.08587   0.87021   0.00000  Uiso   1.00
H458   H     0.06526   0.00333   0.74413   0.00000  Uiso   1.00
H459   H     0.15653   0.12479   0.70842   0.00000  Uiso   1.00
H460   H     0.21179   0.20400   0.58139   0.00000  Uiso   1.00
H461   H     0.31980   0.21722   0.93203   0.00000  Uiso   1.00
H462   H     0.02213   0.22601   0.53396   0.00000  Uiso   1.00
H463   H     0.26836   0.33007   0.75679   0.00000  Uiso   1.00
H464   H     0.17684   0.20844   0.79172   0.00000  Uiso   1.00
H465   H     0.16864   0.01150   0.89306   0.00000  Uiso   1.00
H466   H     0.20135   0.05814   0.85993   0.00000  Uiso   1.00
N467   N     0.14493   0.15223   0.73543   0.00000  Uiso   1.00
N468   N     0.18840   0.18110   0.76458   0.00000  Uiso   1.00
N469   N     0.19903   0.04405   0.89952   0.00000  Uiso   1.00
N470   N     0.11612   0.18615   0.59302   0.00000  Uiso   1.00
O471   O     0.29769   0.24629   0.75358   0.00000  Uiso   1.00
O472   O     0.05742   0.23704   0.74424   0.00000  Uiso   1.00
O473   O     0.31490   0.17358   0.83380   0.00000  Uiso   1.00
O474   O     0.07463   0.16433   0.82446   0.00000  Uiso   1.00
O475   O     0.27592   0.09629   0.75577   0.00000  Uiso   1.00
O476   O     0.03565   0.08704   0.74643   0.00000  Uiso   1.00
O477   O     0.25870   0.16901   0.67554   0.00000  Uiso   1.00
O478   O     0.01843   0.15976   0.66620   0.00000  Uiso   1.00
Zn479  Zn    0.27119   0.17284   0.75624   0.00000  Uiso   1.00
Zn480  Zn    0.06214   0.16049   0.74377   0.00000  Uiso   1.00
C481   C     0.34823   0.26491   0.74874   0.00000  Uiso   1.00
C482   C     0.38641   0.16766   0.91642   0.00000  Uiso   1.00
C483   C     0.35604   0.31950   0.74823   0.00000  Uiso   1.00
C484   C     0.36883   0.16814   0.85527   0.00000  Uiso   1.00
C485   C     0.64422   0.01389   0.75260   0.00000  Uiso   1.00
C486   C     0.65186   0.06844   0.75154   0.00000  Uiso   1.00
C487   C     0.63067   0.16255   0.64473   0.00000  Uiso   1.00
C488   C     0.60063   0.08994   0.50401   0.00000  Uiso   1.00
C489   C     0.60957   0.15029   0.58493   0.00000  Uiso   1.00
C490   C     0.35820   0.19807   0.95031   0.00000  Uiso   1.00
C491   C     0.37950   0.20446   0.50812   0.00000  Uiso   1.00
C492   C     0.46304   0.15655   0.99696   0.00000  Uiso   1.00
C493   C     0.43171   0.18386   0.53243   0.00000  Uiso   1.00
C494   C     0.43526   0.14198   0.94089   0.00000  Uiso   1.00
C495   C     0.52096   0.14336   0.51457   0.00000  Uiso   1.00
C496   C     0.54433   0.10526   0.98305   0.00000  Uiso   1.00
C497   C     0.51097   0.08365   0.93160   0.00000  Uiso   1.00
C498   C     0.45731   0.10272   0.91042   0.00000  Uiso   1.00
C499   C     0.55745   0.16953   0.56115   0.00000  Uiso   1.00
C500   C     0.63225   0.11106   0.55605   0.00000  Uiso   1.00
H501   H     0.33966   0.09556   0.57451   0.00000  Uiso   1.00
H502   H     0.61925   0.06032   0.98164   0.00000  Uiso   1.00
H503   H     0.44223   0.14848   0.60628   0.00000  Uiso   1.00
H504   H     0.42405   0.21040   0.61194   0.00000  Uiso   1.00
H505   H     0.43270   0.08587   0.87021   0.00000  Uiso   1.00
H506   H     0.39860   0.00333   0.74413   0.00000  Uiso   1.00
H507   H     0.48986   0.12479   0.70842   0.00000  Uiso   1.00
H508   H     0.54512   0.20400   0.58139   0.00000  Uiso   1.00
H509   H     0.65313   0.21722   0.93203   0.00000  Uiso   1.00
H510   H     0.35547   0.22601   0.53396   0.00000  Uiso   1.00
H511   H     0.60170   0.33007   0.75679   0.00000  Uiso   1.00
H512   H     0.51017   0.20844   0.79172   0.00000  Uiso   1.00
H513   H     0.50197   0.01150   0.89306   0.00000  Uiso   1.00
H514   H     0.53468   0.05814   0.85993   0.00000  Uiso   1.00
N515   N     0.47827   0.15223   0.73543   0.00000  Uiso   1.00
N516   N     0.52173   0.18110   0.76458   0.00000  Uiso   1.00
N517   N     0.53236   0.04405   0.89952   0.00000  Uiso   1.00
N518   N     0.44945   0.18615   0.59302   0.00000  Uiso   1.00
O519   O     0.63102   0.24629   0.75358   0.00000  Uiso   1.00
O520   O     0.39075   0.23704   0.74424   0.00000  Uiso   1.00
O521   O     0.64823   0.17358   0.83380   0.00000  Uiso   1.00
O522   O     0.40796   0.16433   0.82446   0.00000  Uiso   1.00
O523   O     0.60925   0.09629   0.75577   0.00000  Uiso   1.00
O524   O     0.36898   0.08704   0.74643   0.00000  Uiso   1.00
O525   O     0.59204   0.16901   0.67554   0.00000  Uiso   1.00
O526   O     0.35177   0.15976   0.66620   0.00000  Uiso   1.00
Zn527  Zn    0.60453   0.17284   0.75624   0.00000  Uiso   1.00
Zn528  Zn    0.39547   0.16049   0.74377   0.00000  Uiso   1.00
C529   C     0.68156   0.26491   0.74874   0.00000  Uiso   1.00
C530   C     0.71974   0.16766   0.91642   0.00000  Uiso   1.00
C531   C     0.68937   0.31950   0.74823   0.00000  Uiso   1.00
C532   C     0.70216   0.16814   0.85527   0.00000  Uiso   1.00
C533   C     0.97756   0.01389   0.75260   0.00000  Uiso   1.00
C534   C     0.98519   0.06844   0.75154   0.00000  Uiso   1.00
C535   C     0.96401   0.16255   0.64473   0.00000  Uiso   1.00
C536   C     0.93396   0.08994   0.50401   0.00000  Uiso   1.00
C537   C     0.94290   0.15029   0.58493   0.00000  Uiso   1.00
C538   C     0.69153   0.19807   0.95031   0.00000  Uiso   1.00
C539   C     0.71283   0.20446   0.50812   0.00000  Uiso   1.00
C540   C     0.79638   0.15655   0.99696   0.00000  Uiso   1.00
C541   C     0.76505   0.18386   0.53243   0.00000  Uiso   1.00
C542   C     0.76859   0.14198   0.94089   0.00000  Uiso   1.00
C543   C     0.85430   0.14336   0.51457   0.00000  Uiso   1.00
C544   C     0.87767   0.10526   0.98305   0.00000  Uiso   1.00
C545   C     0.84430   0.08365   0.93160   0.00000  Uiso   1.00
C546   C     0.79064   0.10272   0.91042   0.00000  Uiso   1.00
C547   C     0.89078   0.16953   0.56115   0.00000  Uiso   1.00
C548   C     0.96559   0.11106   0.55605   0.00000  Uiso   1.00
H549   H     0.67299   0.09556   0.57451   0.00000  Uiso   1.00
H550   H     0.95259   0.06032   0.98164   0.00000  Uiso   1.00
H551   H     0.77557   0.14848   0.60628   0.00000  Uiso   1.00
H552   H     0.75738   0.21040   0.61194   0.00000  Uiso   1.00
H553   H     0.76603   0.08587   0.87021   0.00000  Uiso   1.00
H554   H     0.73193   0.00333   0.74413   0.00000  Uiso   1.00
H555   H     0.82320   0.12479   0.70842   0.00000  Uiso   1.00
H556   H     0.87846   0.20400   0.58139   0.00000  Uiso   1.00
H557   H     0.98647   0.21722   0.93203   0.00000  Uiso   1.00
H558   H     0.68880   0.22601   0.53396   0.00000  Uiso   1.00
H559   H     0.93503   0.33007   0.75679   0.00000  Uiso   1.00
H560   H     0.84350   0.20844   0.79172   0.00000  Uiso   1.00
H561   H     0.83531   0.01150   0.89306   0.00000  Uiso   1.00
H562   H     0.86802   0.05814   0.85993   0.00000  Uiso   1.00
N563   N     0.81160   0.15223   0.73543   0.00000  Uiso   1.00
N564   N     0.85507   0.18110   0.76458   0.00000  Uiso   1.00
N565   N     0.86569   0.04405   0.89952   0.00000  Uiso   1.00
N566   N     0.78278   0.18615   0.59302   0.00000  Uiso   1.00
O567   O     0.96435   0.24629   0.75358   0.00000  Uiso   1.00
O568   O     0.72408   0.23704   0.74424   0.00000  Uiso   1.00
O569   O     0.98157   0.17358   0.83380   0.00000  Uiso   1.00
O570   O     0.74130   0.16433   0.82446   0.00000  Uiso   1.00
O571   O     0.94258   0.09629   0.75577   0.00000  Uiso   1.00
O572   O     0.70231   0.08704   0.74643   0.00000  Uiso   1.00
O573   O     0.92537   0.16901   0.67554   0.00000  Uiso   1.00
O574   O     0.68510   0.15976   0.66620   0.00000  Uiso   1.00
Zn575  Zn    0.93786   0.17284   0.75624   0.00000  Uiso   1.00
Zn576  Zn    0.72881   0.16049   0.74377   0.00000  Uiso   1.00
C577   C     0.01490   0.59824   0.74874   0.00000  Uiso   1.00
C578   C     0.05308   0.50100   0.91642   0.00000  Uiso   1.00
C579   C     0.02271   0.65283   0.74823   0.00000  Uiso   1.00
C580   C     0.03549   0.50148   0.85527   0.00000  Uiso   1.00
C581   C     0.31089   0.34723   0.75260   0.00000  Uiso   1.00
C582   C     0.31853   0.40178   0.75154   0.00000  Uiso   1.00
C583   C     0.29734   0.49588   0.64473   0.00000  Uiso   1.00
C584   C     0.26729   0.42327   0.50401   0.00000  Uiso   1.00
C585   C     0.27624   0.48363   0.58493   0.00000  Uiso   1.00
C586   C     0.02486   0.53140   0.95031   0.00000  Uiso   1.00
C587   C     0.04617   0.53780   0.50812   0.00000  Uiso   1.00
C588   C     0.12971   0.48988   0.99696   0.00000  Uiso   1.00
C589   C     0.09838   0.51719   0.53243   0.00000  Uiso   1.00
C590   C     0.10193   0.47532   0.94089   0.00000  Uiso   1.00
C591   C     0.18763   0.47669   0.51457   0.00000  Uiso   1.00
C592   C     0.21100   0.43859   0.98305   0.00000  Uiso   1.00
C593   C     0.17764   0.41698   0.93160   0.00000  Uiso   1.00
C594   C     0.12398   0.43605   0.91042   0.00000  Uiso   1.00
C595   C     0.22412   0.50287   0.56115   0.00000  Uiso   1.00
C596   C     0.29892   0.44439   0.55605   0.00000  Uiso   1.00
H597   H     0.00632   0.42889   0.57451   0.00000  Uiso   1.00
H598   H     0.28592   0.39365   0.98164   0.00000  Uiso   1.00
H599   H     0.10890   0.48181   0.60628   0.00000  Uiso   1.00
H600   H     0.09072   0.54373   0.61194   0.00000  Uiso   1.00
H601   H     0.09936   0.41921   0.87021   0.00000  Uiso   1.00
H602   H     0.06526   0.33666   0.74413   0.00000  Uiso   1.00
H603   H     0.15653   0.45812   0.70842   0.00000  Uiso   1.00
H604   H     0.21179   0.53733   0.58139   0.00000  Uiso   1.00
H605   H     0.31980   0.55055   0.93203   0.00000  Uiso   1.00
H606   H     0.02213   0.55934   0.53396   0.00000  Uiso   1.00
H607   H     0.26836   0.66341   0.75679   0.00000  Uiso   1.00
H608   H     0.17684   0.54178   0.79172   0.00000  Uiso   1.00
H609   H     0.16864   0.34483   0.89306   0.00000  Uiso   1.00
H610   H     0.20135   0.39147   0.85993   0.00000  Uiso   1.00
N611   N     0.14493   0.48556   0.73543   0.00000  Uiso   1.00
N612   N     0.18840   0.51444   0.76458   0.00000  Uiso   1.00
N613   N     0.19903   0.37738   0.89952   0.00000  Uiso   1.00
N614   N     0.11612   0.51949   0.59302   0.00000  Uiso   1.00
O615   O     0.29769   0.57963   0.75358   0.00000  Uiso   1.00
O616   O     0.05742   0.57038   0.74424   0.00000  Uiso   1.00
O617   O     0.31490   0.50691   0.83380   0.00000  Uiso   1.00
O618   O     0.07463   0.49766   0.82446   0.00000  Uiso   1.00
O619   O     0.27592   0.42962   0.75577   0.00000  Uiso   1.00
O620   O     0.03565   0.42037   0.74643   0.00000  Uiso   1.00
O621   O     0.25870   0.50234   0.67554   0.00000  Uiso   1.00
O622   O     0.01843   0.49309   0.66620   0.00000  Uiso   1.00
Zn623  Zn    0.27119   0.50618   0.75624   0.00000  Uiso   1.00
Zn624  Zn    0.06214   0.49382   0.74377   0.00000  Uiso   1.00
C625   C     0.34823   0.59824   0.74874   0.00000  Uiso   1.00
C626   C     0.38641   0.50100   0.91642   0.00000  Uiso   1.00
C627   C     0.35604   0.65283   0.74823   0.00000  Uiso   1.00
C628   C     0.36883   0.50148   0.85527   0.00000  Uiso   1.00
C629   C     0.64422   0.34723   0.75260   0.00000  Uiso   1.00
C630   C     0.65186   0.40178   0.75154   0.00000  Uiso   1.00
C631   C     0.63067   0.49588   0.64473   0.00000  Uiso   1.00
C632   C     0.60063   0.42327   0.50401   0.00000  Uiso   1.00
C633   C     0.60957   0.48363   0.58493   0.00000  Uiso   1.00
C634   C     0.35820   0.53140   0.95031   0.00000  Uiso   1.00
C635   C     0.37950   0.53780   0.50812   0.00000  Uiso   1.00
C636   C     0.46304   0.48988   0.99696   0.00000  Uiso   1.00
C637   C     0.43171   0.51719   0.53243   0.00000  Uiso   1.00
C638   C     0.43526   0.47532   0.94089   0.00000  Uiso   1.00
C639   C     0.52096   0.47669   0.51457   0.00000  Uiso   1.00
C640   C     0.54433   0.43859   0.98305   0.00000  Uiso   1.00
C641   C     0.51097   0.41698   0.93160   0.00000  Uiso   1.00
C642   C     0.45731   0.43605   0.91042   0.00000  Uiso   1.00
C643   C     0.55745   0.50287   0.56115   0.00000  Uiso   1.00
C644   C     0.63225   0.44439   0.55605   0.00000  Uiso   1.00
H645   H     0.33966   0.42889   0.57451   0.00000  Uiso   1.00
H646   H     0.61925   0.39365   0.98164   0.00000  Uiso   1.00
H647   H     0.44223   0.48181   0.60628   0.00000  Uiso   1.00
H648   H     0.42405   0.54373   0.61194   0.00000  Uiso   1.00
H649   H     0.43270   0.41921   0.87021   0.00000  Uiso   1.00
H650   H     0.39860   0.33666   0.74413   0.00000  Uiso   1.00
H651   H     0.48986   0.45812   0.70842   0.00000  Uiso   1.00
H652   H     0.54512   0.53733   0.58139   0.00000  Uiso   1.00
H653   H     0.65313   0.55055   0.93203   0.00000  Uiso   1.00
H654   H     0.35547   0.55934   0.53396   0.00000  Uiso   1.00
H655   H     0.60170   0.66341   0.75679   0.00000  Uiso   1.00
H656   H     0.51017   0.54178   0.79172   0.00000  Uiso   1.00
H657   H     0.50197   0.34483   0.89306   0.00000  Uiso   1.00
H658   H     0.53468   0.39147   0.85993   0.00000  Uiso   1.00
N659   N     0.47827   0.48556   0.73543   0.00000  Uiso   1.00
N660   N     0.52173   0.51444   0.76458   0.00000  Uiso   1.00
N661   N     0.53236   0.37738   0.89952   0.00000  Uiso   1.00
N662   N     0.44945   0.51949   0.59302   0.00000  Uiso   1.00
O663   O     0.63102   0.57963   0.75358   0.00000  Uiso   1.00
O664   O     0.39075   0.57038   0.74424   0.00000  Uiso   1.00
O665   O     0.64823   0.50691   0.83380   0.00000  Uiso   1.00
O666   O     0.40796   0.49766   0.82446   0.00000  Uiso   1.00
O667   O     0.60925   0.42962   0.75577   0.00000  Uiso   1.00
O668   O     0.36898   0.42037   0.74643   0.00000  Uiso   1.00
O669   O     0.59204   0.50234   0.67554   0.00000  Uiso   1.00
O670   O     0.35177   0.49309   0.66620   0.00000  Uiso   1.00
Zn671  Zn    0.60453   0.50618   0.75624   0.00000  Uiso   1.00
Zn672  Zn    0.39547   0.49382   0.74377   0.00000  Uiso   1.00
C673   C     0.68156   0.59824   0.74874   0.00000  Uiso   1.00
C674   C     0.71974   0.50100   0.91642   0.00000  Uiso   1.00
C675   C     0.68937   0.65283   0.74823   0.00000  Uiso   1.00
C676   C     0.70216   0.50148   0.85527   0.00000  Uiso   1.00
C677   C     0.97756   0.34723   0.75260   0.00000  Uiso   1.00
C678   C     0.98519   0.40178   0.75154   0.00000  Uiso   1.00
C679   C     0.96401   0.49588   0.64473   0.00000  Uiso   1.00
C680   C     0.93396   0.42327   0.50401   0.00000  Uiso   1.00
C681   C     0.94290   0.48363   0.58493   0.00000  Uiso   1.00
C682   C     0.69153   0.53140   0.95031   0.00000  Uiso   1.00
C683   C     0.71283   0.53780   0.50812   0.00000  Uiso   1.00
C684   C     0.79638   0.48988   0.99696   0.00000  Uiso   1.00
C685   C     0.76505   0.51719   0.53243   0.00000  Uiso   1.00
C686   C     0.76859   0.47532   0.94089   0.00000  Uiso   1.00
C687   C     0.85430   0.47669   0.51457   0.00000  Uiso   1.00
C688   C     0.87767   0.43859   0.98305   0.00000  Uiso   1.00
C689   C     0.84430   0.41698   0.93160   0.00000  Uiso   1.00
C690   C     0.79064   0.43605   0.91042   0.00000  Uiso   1.00
C691   C     0.89078   0.50287   0.56115   0.00000  Uiso   1.00
C692   C     0.96559   0.44439   0.55605   0.00000  Uiso   1.00
H693   H     0.67299   0.42889   0.57451   0.00000  Uiso   1.00
H694   H     0.95259   0.39365   0.98164   0.00000  Uiso   1.00
H695   H     0.77557   0.48181   0.60628   0.00000  Uiso   1.00
H696   H     0.75738   0.54373   0.61194   0.00000  Uiso   1.00
H697   H     0.76603   0.41921   0.87021   0.00000  Uiso   1.00
H698   H     0.73193   0.33666   0.74413   0.00000  Uiso   1.00
H699   H     0.82320   0.45812   0.70842   0.00000  Uiso   1.00
H700   H     0.87846   0.53733   0.58139   0.00000  Uiso   1.00
H701   H     0.98647   0.55055   0.93203   0.00000  Uiso   1.00
H702   H     0.68880   0.55934   0.53396   0.00000  Uiso   1.00
H703   H     0.93503   0.66341   0.75679   0.00000  Uiso   1.00
H704   H     0.84350   0.54178   0.79172   0.00000  Uiso   1.00
H705   H     0.83531   0.34483   0.89306   0.00000  Uiso   1.00
H706   H     0.86802   0.39147   0.85993   0.00000  Uiso   1.00
N707   N     0.81160   0.48556   0.73543   0.00000  Uiso   1.00
N708   N     0.85507   0.51444   0.76458   0.00000  Uiso   1.00
N709   N     0.86569   0.37738   0.89952   0.00000  Uiso   1.00
N710   N     0.78278   0.51949   0.59302   0.00000  Uiso   1.00
O711   O     0.96435   0.57963   0.75358   0.00000  Uiso   1.00
O712   O     0.72408   0.57038   0.74424   0.00000  Uiso   1.00
O713   O     0.98157   0.50691   0.83380   0.00000  Uiso   1.00
O714   O     0.74130   0.49766   0.82446   0.00000  Uiso   1.00
O715   O     0.94258   0.42962   0.75577   0.00000  Uiso   1.00
O716   O     0.70231   0.42037   0.74643   0.00000  Uiso   1.00
O717   O     0.92537   0.50234   0.67554   0.00000  Uiso   1.00
O718   O     0.68510   0.49309   0.66620   0.00000  Uiso   1.00
Zn719  Zn    0.93786   0.50618   0.75624   0.00000  Uiso   1.00
Zn720  Zn    0.72881   0.49382   0.74377   0.00000  Uiso   1.00
C721   C     0.01490   0.93157   0.74874   0.00000  Uiso   1.00
C722   C     0.05308   0.83433   0.91642   0.00000  Uiso   1.00
C723   C     0.02271   0.98616   0.74823   0.00000  Uiso   1.00
C724   C     0.03549   0.83481   0.85527   0.00000  Uiso   1.00
C725   C     0.31089   0.68056   0.75260   0.00000  Uiso   1.00
C726   C     0.31853   0.73511   0.75154   0.00000  Uiso   1.00
C727   C     0.29734   0.82922   0.64473   0.00000  Uiso   1.00
C728   C     0.26729   0.75661   0.50401   0.00000  Uiso   1.00
C729   C     0.27624   0.81696   0.58493   0.00000  Uiso   1.00
C730   C     0.02486   0.86474   0.95031   0.00000  Uiso   1.00
C731   C     0.04617   0.87113   0.50812   0.00000  Uiso   1.00
C732   C     0.12971   0.82321   0.99696   0.00000  Uiso   1.00
C733   C     0.09838   0.85052   0.53243   0.00000  Uiso   1.00
C734   C     0.10193   0.80865   0.94089   0.00000  Uiso   1.00
C735   C     0.18763   0.81003   0.51457   0.00000  Uiso   1.00
C736   C     0.21100   0.77193   0.98305   0.00000  Uiso   1.00
C737   C     0.17764   0.75031   0.93160   0.00000  Uiso   1.00
C738   C     0.12398   0.76938   0.91042   0.00000  Uiso   1.00
C739   C     0.22412   0.83620   0.56115   0.00000  Uiso   1.00
C740   C     0.29892   0.77772   0.55605   0.00000  Uiso   1.00
H741   H     0.00632   0.76222   0.57451   0.00000  Uiso   1.00
H742   H     0.28592   0.72699   0.98164   0.00000  Uiso   1.00
H743   H     0.10890   0.81515   0.60628   0.00000  Uiso   1.00
H744   H     0.09072   0.87707   0.61194   0.00000  Uiso   1.00
H745   H     0.09936   0.75254   0.87021   0.00000  Uiso   1.00
H746   H     0.06526   0.67000   0.74413   0.00000  Uiso   1.00
H747   H     0.15653   0.79145   0.70842   0.00000  Uiso   1.00
H748   H     0.21179   0.87066   0.58139   0.00000  Uiso   1.00
H749   H     0.31980   0.88388   0.93203   0.00000  Uiso   1.00
H750   H     0.02213   0.89268   0.53396   0.00000  Uiso   1.00
H751   H     0.26836   0.99674   0.75679   0.00000  Uiso   1.00
H752   H     0.17684   0.87511   0.79172   0.00000  Uiso   1.00
H753   H     0.16864   0.67817   0.89306   0.00000  Uiso   1.00
H754   H     0.20135   0.72481   0.85993   0.00000  Uiso   1.00
N755   N     0.14493   0.81890   0.73543   0.00000  Uiso   1.00
N756   N     0.18840   0.84777   0.76458   0.00000  Uiso   1.00
N757   N     0.19903   0.71071   0.89952   0.00000  Uiso   1.00
N758   N     0.11612   0.85282   0.59302   0.00000  Uiso   1.00
O759   O     0.29769   0.91296   0.75358   0.00000  Uiso   1.00
O760   O     0.05742   0.90371   0.74424   0.00000  Uiso   1.00
O761   O     0.31490   0.84024   0.83380   0.00000  Uiso   1.00
O762   O     0.07463   0.83099   0.82446   0.00000  Uiso   1.00
O763   O     0.27592   0.76296   0.75577   0.00000  Uiso   1.00
O764   O     0.03565   0.75371   0.74643   0.00000  Uiso   1.00
O765   O     0.25870   0.83567   0.67554   0.00000  Uiso   1.00
O766   O     0.01843   0.82642   0.66620   0.00000  Uiso   1.00
Zn767  Zn    0.27119   0.83951   0.75624   0.00000  Uiso   1.00
Zn768  Zn    0.06214   0.82716   0.74377   0.00000  Uiso   1.00
C769   C     0.34823   0.93157   0.74874   0.00000  Uiso   1.00
C770   C     0.38641   0.83433   0.91642   0.00000  Uiso   1.00
C771   C     0.35604   0.98616   0.74823   0.00000  Uiso   1.00
C772   C     0.36883   0.83481   0.85527   0.00000  Uiso   1.00
C773   C     0.64422   0.68056   0.75260   0.00000  Uiso   1.00
C774   C     0.65186   0.73511   0.75154   0.00000  Uiso   1.00
C775   C     0.63067   0.82922   0.64473   0.00000  Uiso   1.00
C776   C     0.60063   0.75661   0.50401   0.00000  Uiso   1.00
C777   C     0.60957   0.81696   0.58493   0.00000  Uiso   1.00
C778   C     0.35820   0.86474   0.95031   0.00000  Uiso   1.00
C779   C     0.37950   0.87113   0.50812   0.00000  Uiso   1.00
C780   C     0.46304   0.82321   0.99696   0.00000  Uiso   1.00
C781   C     0.43171   0.85052   0.53243   0.00000  Uiso   1.00
C782   C     0.43526   0.80865   0.94089   0.00000  Uiso   1.00
C783   C     0.52096   0.81003   0.51457   0.00000  Uiso   1.00
C784   C     0.54433   0.77193   0.98305   0.00000  Uiso   1.00
C785   C     0.51097   0.75031   0.93160   0.00000  Uiso   1.00
C786   C     0.45731   0.76938   0.91042   0.00000  Uiso   1.00
C787   C     0.55745   0.83620   0.56115   0.00000  Uiso   1.00
C788   C     0.63225   0.77772   0.55605   0.00000  Uiso   1.00
H789   H     0.33966   0.76222   0.57451   0.00000  Uiso   1.00
H790   H     0.61925   0.72699   0.98164   0.00000  Uiso   1.00
H791   H     0.44223   0.81515   0.60628   0.00000  Uiso   1.00
H792   H     0.42405   0.87707   0.61194   0.00000  Uiso   1.00
H793   H     0.43270   0.75254   0.87021   0.00000  Uiso   1.00
H794   H     0.39860   0.67000   0.74413   0.00000  Uiso   1.00
H795   H     0.48986   0.79145   0.70842   0.00000  Uiso   1.00
H796   H     0.54512   0.87066   0.58139   0.00000  Uiso   1.00
H797   H     0.65313   0.88388   0.93203   0.00000  Uiso   1.00
H798   H     0.35547   0.89268   0.53396   0.00000  Uiso   1.00
H799   H     0.60170   0.99674   0.75679   0.00000  Uiso   1.00
H800   H     0.51017   0.87511   0.79172   0.00000  Uiso   1.00
H801   H     0.50197   0.67817   0.89306   0.00000  Uiso   1.00
H802   H     0.53468   0.72481   0.85993   0.00000  Uiso   1.00
N803   N     0.47827   0.81890   0.73543   0.00000  Uiso   1.00
N804   N     0.52173   0.84777   0.76458   0.00000  Uiso   1.00
N805   N     0.53236   0.71071   0.89952   0.00000  Uiso   1.00
N806   N     0.44945   0.85282   0.59302   0.00000  Uiso   1.00
O807   O     0.63102   0.91296   0.75358   0.00000  Uiso   1.00
O808   O     0.39075   0.90371   0.74424   0.00000  Uiso   1.00
O809   O     0.64823   0.84024   0.83380   0.00000  Uiso   1.00
O810   O     0.40796   0.83099   0.82446   0.00000  Uiso   1.00
O811   O     0.60925   0.76296   0.75577   0.00000  Uiso   1.00
O812   O     0.36898   0.75371   0.74643   0.00000  Uiso   1.00
O813   O     0.59204   0.83567   0.67554   0.00000  Uiso   1.00
O814   O     0.35177   0.82642   0.66620   0.00000  Uiso   1.00
Zn815  Zn    0.60453   0.83951   0.75624   0.00000  Uiso   1.00
Zn816  Zn    0.39547   0.82716   0.74377   0.00000  Uiso   1.00
C817   C     0.68156   0.93157   0.74874   0.00000  Uiso   1.00
C818   C     0.71974   0.83433   0.91642   0.00000  Uiso   1.00
C819   C     0.68937   0.98616   0.74823   0.00000  Uiso   1.00
C820   C     0.70216   0.83481   0.85527   0.00000  Uiso   1.00
C821   C     0.97756   0.68056   0.75260   0.00000  Uiso   1.00
C822   C     0.98519   0.73511   0.75154   0.00000  Uiso   1.00
C823   C     0.96401   0.82922   0.64473   0.00000  Uiso   1.00
C824   C     0.93396   0.75661   0.50401   0.00000  Uiso   1.00
C825   C     0.94290   0.81696   0.58493   0.00000  Uiso   1.00
C826   C     0.69153   0.86474   0.95031   0.00000  Uiso   1.00
C827   C     0.71283   0.87113   0.50812   0.00000  Uiso   1.00
C828   C     0.79638   0.82321   0.99696   0.00000  Uiso   1.00
C829   C     0.76505   0.85052   0.53243   0.00000  Uiso   1.00
C830   C     0.76859   0.80865   0.94089   0.00000  Uiso   1.00
C831   C     0.85430   0.81003   0.51457   0.00000  Uiso   1.00
C832   C     0.87767   0.77193   0.98305   0.00000  Uiso   1.00
C833   C     0.84430   0.75031   0.93160   0.00000  Uiso   1.00
C834   C     0.79064   0.76938   0.91042   0.00000  Uiso   1.00
C835   C     0.89078   0.83620   0.56115   0.00000  Uiso   1.00
C836   C     0.96559   0.77772   0.55605   0.00000  Uiso   1.00
H837   H     0.67299   0.76222   0.57451   0.00000  Uiso   1.00
H838   H     0.95259   0.72699   0.98164   0.00000  Uiso   1.00
H839   H     0.77557   0.81515   0.60628   0.00000  Uiso   1.00
H840   H     0.75738   0.87707   0.61194   0.00000  Uiso   1.00
H841   H     0.76603   0.75254   0.87021   0.00000  Uiso   1.00
H842   H     0.73193   0.67000   0.74413   0.00000  Uiso   1.00
H843   H     0.82320   0.79145   0.70842   0.00000  Uiso   1.00
H844   H     0.87846   0.87066   0.58139   0.00000  Uiso   1.00
H845   H     0.98647   0.88388   0.93203   0.00000  Uiso   1.00
H846   H     0.68880   0.89268   0.53396   0.00000  Uiso   1.00
H847   H     0.93503   0.99674   0.75679   0.00000  Uiso   1.00
H848   H     0.84350   0.87511   0.79172   0.00000  Uiso   1.00
H849   H     0.83531   0.67817   0.89306   0.00000  Uiso   1.00
H850   H     0.86802   0.72481   0.85993   0.00000  Uiso   1.00
N851   N     0.81160   0.81890   0.73543   0.00000  Uiso   1.00
N852   N     0.85507   0.84777   0.76458   0.00000  Uiso   1.00
N853   N     0.86569   0.71071   0.89952   0.00000  Uiso   1.00
N854   N     0.78278   0.85282   0.59302   0.00000  Uiso   1.00
O855   O     0.96435   0.91296   0.75358   0.00000  Uiso   1.00
O856   O     0.72408   0.90371   0.74424   0.00000  Uiso   1.00
O857   O     0.98157   0.84024   0.83380   0.00000  Uiso   1.00
O858   O     0.74130   0.83099   0.82446   0.00000  Uiso   1.00
O859   O     0.94258   0.76296   0.75577   0.00000  Uiso   1.00
O860   O     0.70231   0.75371   0.74643   0.00000  Uiso   1.00
O861   O     0.92537   0.83567   0.67554   0.00000  Uiso   1.00
O862   O     0.68510   0.82642   0.66620   0.00000  Uiso   1.00
Zn863  Zn    0.93786   0.83951   0.75624   0.00000  Uiso   1.00
Zn864  Zn    0.72881   0.82716   0.74377   0.00000  Uiso   1.00
loop_
_geom_bond_atom_site_label_1
_geom_bond_atom_site_label_2
_geom_bond_distance
_geom_bond_site_symmetry_2
_ccdc_geom_bond_type
C1     O40     1.290   .     A
C1     C3      1.403   .     S
C1     O135    1.277   1_455 S
C2     C4      1.453   .     S
C2     C14     1.404   .     A
C2     C10     1.400   .     A
C3     C245    1.339   1_455 S
C3     H170    1.088   .     S
C4     O42     1.299   .     A
C4     O137    1.290   1_455 S
C5     C6      1.403   .     S
C5     C339    1.339   1_545 S
C5     H319    1.088   1_545 S
C6     O43     1.290   .     A
C6     O92     1.277   .     S
C7     O45     1.298   .     A
C7     C9      1.445   .     S
C7     O94     1.289   .     S
C8     C20     1.394   .     A
C8     C448    1.409   1_554 S
C8     H454    1.083   1_554 S
C9     C20     1.399   .     A
C9     C19     1.380   .     A
C10    C443    1.385   .     S
C10    H125    1.083   1_455 S
C11    C13     1.401   .     A
C11    H30     1.083   .     S
C11    C442    1.385   1_554 S
C12    C14     1.405   .     A
C12    C445    1.430   .     S
C12    C447    1.412   .     S
C13    N38     1.437   .     S
C13    C444    1.430   1_554 S
C14    C18     1.413   .     A
C15    C19     1.388   .     A
C15    C444    1.412   1_554 S
C15    C448    1.423   1_554 S
C16    C17     1.401   .     A
C16    C440    1.409   .     S
C16    C447    1.423   .     S
C17    C18     1.394   .     A
C17    N37     1.434   .     S
C18    H25     1.083   .     S
C19    H28     1.080   .     S
C20    H69     1.083   .     S
H21    C116    1.083   1_455 S
H22    C440    1.083   .     S
H23    N38     1.045   .     S
H24    N38     1.045   .     S
H26    C291    1.088   1_545 S
H27    N35     1.029   .     S
H29    C58     1.083   .     S
H31    C149    1.088   .     S
H32    N36     1.029   .     S
H33    N37     1.046   .     S
H34    N37     1.046   .     S
N35    N36     1.285   .     D
N35    Zn48    2.020   .     S
N36    Zn47    2.020   .     S
O39    Zn47    1.953   .     S
O39    C49     1.277   .     S
O40    Zn48    1.979   .     S
O41    Zn47    1.948   .     S
O41    C52     1.290   .     S
O42    Zn48    1.910   .     S
O43    Zn47    1.979   .     S
O44    Zn48    1.953   .     S
O44    C102    1.277   1_455 S
O45    Zn47    1.910   .     S
O46    Zn48    1.948   .     S
O46    C103    1.289   1_455 S
C49    O88     1.290   .     A
C49    C51     1.403   .     S
C50    C52     1.453   .     S
C50    C62     1.404   .     A
C50    C58     1.400   .     A
C51    C149    1.339   .     S
C51    H218    1.088   .     S
C52    O90     1.299   .     A
C53    C54     1.403   .     S
C53    C387    1.339   1_545 S
C53    H367    1.088   1_545 S
C54    O91     1.290   .     A
C54    O140    1.277   .     S
C55    O93     1.298   .     A
C55    C57     1.445   .     S
C55    O142    1.289   .     S
C56    C68     1.394   .     A
C56    C496    1.409   1_554 S
C56    H502    1.083   1_554 S
C57    C68     1.399   .     A
C57    C67     1.380   .     A
C58    C491    1.385   .     S
C59    C61     1.401   .     A
C59    H78     1.083   .     S
C59    C490    1.385   1_554 S
C60    C62     1.405   .     A
C60    C493    1.430   .     S
C60    C495    1.412   .     S
C61    N86     1.437   .     S
C61    C492    1.430   1_554 S
C62    C66     1.413   .     A
C63    C67     1.388   .     A
C63    C492    1.412   1_554 S
C63    C496    1.423   1_554 S
C64    C65     1.401   .     A
C64    C488    1.409   .     S
C64    C495    1.423   .     S
C65    C66     1.394   .     A
C65    N85     1.434   .     S
C66    H73     1.083   .     S
C67    H76     1.080   .     S
C68    H117    1.083   .     S
H70    C488    1.083   .     S
H71    N86     1.045   .     S
H72    N86     1.045   .     S
H74    C339    1.088   1_545 S
H75    N83     1.029   .     S
H77    C106    1.083   .     S
H79    C197    1.088   .     S
H80    N84     1.029   .     S
H81    N85     1.046   .     S
H82    N85     1.046   .     S
N83    N84     1.285   .     D
N83    Zn96    2.020   .     S
N84    Zn95    2.020   .     S
O87    Zn95    1.953   .     S
O87    C97     1.277   .     S
O88    Zn96    1.979   .     S
O89    Zn95    1.948   .     S
O89    C100    1.290   .     S
O90    Zn96    1.910   .     S
O91    Zn95    1.979   .     S
O92    Zn96    1.953   .     S
O93    Zn95    1.910   .     S
O94    Zn96    1.948   .     S
C97    O136    1.290   .     A
C97    C99     1.403   .     S
C98    C100    1.453   .     S
C98    C110    1.404   .     A
C98    C106    1.400   .     A
C99    C197    1.339   .     S
C99    H266    1.088   .     S
C100   O138    1.299   .     A
C101   C102    1.403   .     S
C101   C291    1.339   1_645 S
C101   H415    1.088   1_545 S
C102   O139    1.290   .     A
C102   O44     1.277   1_655 S
C103   O141    1.298   .     A
C103   C105    1.445   .     S
C103   O46     1.289   1_655 S
C104   C116    1.394   .     A
C104   C544    1.409   1_554 S
C104   H550    1.083   1_554 S
C105   C116    1.399   .     A
C105   C115    1.380   .     A
C106   C539    1.385   .     S
C107   C109    1.401   .     A
C107   H126    1.083   .     S
C107   C538    1.385   1_554 S
C108   C110    1.405   .     A
C108   C541    1.430   .     S
C108   C543    1.412   .     S
C109   N134    1.437   .     S
C109   C540    1.430   1_554 S
C110   C114    1.413   .     A
C111   C115    1.388   .     A
C111   C540    1.412   1_554 S
C111   C544    1.423   1_554 S
C112   C113    1.401   .     A
C112   C536    1.409   .     S
C112   C543    1.423   .     S
C113   C114    1.394   .     A
C113   N133    1.434   .     S
C114   H121    1.083   .     S
C115   H124    1.080   .     S
C116   H21     1.083   1_655 S
H118   C536    1.083   .     S
H119   N134    1.045   .     S
H120   N134    1.045   .     S
H122   C387    1.088   1_545 S
H123   N131    1.029   .     S
H125   C10     1.083   1_655 S
H127   C245    1.088   .     S
H128   N132    1.029   .     S
H129   N133    1.046   .     S
H130   N133    1.046   .     S
N131   N132    1.285   .     D
N131   Zn144   2.020   .     S
N132   Zn143   2.020   .     S
O135   Zn143   1.953   .     S
O135   C1      1.277   1_655 S
O136   Zn144   1.979   .     S
O137   Zn143   1.948   .     S
O137   C4      1.290   1_655 S
O138   Zn144   1.910   .     S
O139   Zn143   1.979   .     S
O140   Zn144   1.953   .     S
O141   Zn143   1.910   .     S
O142   Zn144   1.948   .     S
C145   O184    1.290   .     A
C145   C147    1.403   .     S
C145   O279    1.277   1_455 S
C146   C148    1.453   .     S
C146   C158    1.404   .     A
C146   C154    1.400   .     A
C147   C389    1.339   1_455 S
C147   H314    1.088   .     S
C148   O186    1.299   .     A
C148   O281    1.290   1_455 S
C149   C150    1.403   .     S
C150   O187    1.290   .     A
C150   O236    1.277   .     S
C151   O189    1.298   .     A
C151   C153    1.445   .     S
C151   O238    1.289   .     S
C152   C164    1.394   .     A
C152   C592    1.409   1_554 S
C152   H598    1.083   1_554 S
C153   C164    1.399   .     A
C153   C163    1.380   .     A
C154   C587    1.385   .     S
C154   H269    1.083   1_455 S
C155   C157    1.401   .     A
C155   H174    1.083   .     S
C155   C586    1.385   1_554 S
C156   C158    1.405   .     A
C156   C589    1.430   .     S
C156   C591    1.412   .     S
C157   N182    1.437   .     S
C157   C588    1.430   1_554 S
C158   C162    1.413   .     A
C159   C163    1.388   .     A
C159   C588    1.412   1_554 S
C159   C592    1.423   1_554 S
C160   C161    1.401   .     A
C160   C584    1.409   .     S
C160   C591    1.423   .     S
C161   C162    1.394   .     A
C161   N181    1.434   .     S
C162   H169    1.083   .     S
C163   H172    1.080   .     S
C164   H213    1.083   .     S
H165   C260    1.083   1_455 S
H166   C584    1.083   .     S
H167   N182    1.045   .     S
H168   N182    1.045   .     S
H171   N179    1.029   .     S
H173   C202    1.083   .     S
H175   C293    1.088   .     S
H176   N180    1.029   .     S
H177   N181    1.046   .     S
H178   N181    1.046   .     S
N179   N180    1.285   .     D
N179   Zn192   2.020   .     S
N180   Zn191   2.020   .     S
O183   Zn191   1.953   .     S
O183   C193    1.277   .     S
O184   Zn192   1.979   .     S
O185   Zn191   1.948   .     S
O185   C196    1.290   .     S
O186   Zn192   1.910   .     S
O187   Zn191   1.979   .     S
O188   Zn192   1.953   .     S
O188   C246    1.277   1_455 S
O189   Zn191   1.910   .     S
O190   Zn192   1.948   .     S
O190   C247    1.289   1_455 S
C193   O232    1.290   .     A
C193   C195    1.403   .     S
C194   C196    1.453   .     S
C194   C206    1.404   .     A
C194   C202    1.400   .     A
C195   C293    1.339   .     S
C195   H362    1.088   .     S
C196   O234    1.299   .     A
C197   C198    1.403   .     S
C198   O235    1.290   .     A
C198   O284    1.277   .     S
C199   O237    1.298   .     A
C199   C201    1.445   .     S
C199   O286    1.289   .     S
C200   C212    1.394   .     A
C200   C640    1.409   1_554 S
C200   H646    1.083   1_554 S
C201   C212    1.399   .     A
C201   C211    1.380   .     A
C202   C635    1.385   .     S
C203   C205    1.401   .     A
C203   H222    1.083   .     S
C203   C634    1.385   1_554 S
C204   C206    1.405   .     A
C204   C637    1.430   .     S
C204   C639    1.412   .     S
C205   N230    1.437   .     S
C205   C636    1.430   1_554 S
C206   C210    1.413   .     A
C207   C211    1.388   .     A
C207   C636    1.412   1_554 S
C207   C640    1.423   1_554 S
C208   C209    1.401   .     A
C208   C632    1.409   .     S
C208   C639    1.423   .     S
C209   C210    1.394   .     A
C209   N229    1.434   .     S
C210   H217    1.083   .     S
C211   H220    1.080   .     S
C212   H261    1.083   .     S
H214   C632    1.083   .     S
H215   N230    1.045   .     S
H216   N230    1.045   .     S
H219   N227    1.029   .     S
H221   C250    1.083   .     S
H223   C341    1.088   .     S
H224   N228    1.029   .     S
H225   N229    1.046   .     S
H226   N229    1.046   .     S
N227   N228    1.285   .     D
N227   Zn240   2.020   .     S
N228   Zn239   2.020   .     S
O231   Zn239   1.953   .     S
O231   C241    1.277   .     S
O232   Zn240   1.979   .     S
O233   Zn239   1.948   .     S
O233   C244    1.290   .     S
O234   Zn240   1.910   .     S
O235   Zn239   1.979   .     S
O236   Zn240   1.953   .     S
O237   Zn239   1.910   .     S
O238   Zn240   1.948   .     S
C241   O280    1.290   .     A
C241   C243    1.403   .     S
C242   C244    1.453   .     S
C242   C254    1.404   .     A
C242   C250    1.400   .     A
C243   C341    1.339   .     S
C243   H410    1.088   .     S
C244   O282    1.299   .     A
C245   C246    1.403   .     S
C245   C3      1.339   1_655 S
C246   O283    1.290   .     A
C246   O188    1.277   1_655 S
C247   O285    1.298   .     A
C247   C249    1.445   .     S
C247   O190    1.289   1_655 S
C248   C260    1.394   .     A
C248   C688    1.409   1_554 S
C248   H694    1.083   1_554 S
C249   C260    1.399   .     A
C249   C259    1.380   .     A
C250   C683    1.385   .     S
C251   C253    1.401   .     A
C251   H270    1.083   .     S
C251   C682    1.385   1_554 S
C252   C254    1.405   .     A
C252   C685    1.430   .     S
C252   C687    1.412   .     S
C253   N278    1.437   .     S
C253   C684    1.430   1_554 S
C254   C258    1.413   .     A
C255   C259    1.388   .     A
C255   C684    1.412   1_554 S
C255   C688    1.423   1_554 S
C256   C257    1.401   .     A
C256   C680    1.409   .     S
C256   C687    1.423   .     S
C257   C258    1.394   .     A
C257   N277    1.434   .     S
C258   H265    1.083   .     S
C259   H268    1.080   .     S
C260   H165    1.083   1_655 S
H262   C680    1.083   .     S
H263   N278    1.045   .     S
H264   N278    1.045   .     S
H267   N275    1.029   .     S
H269   C154    1.083   1_655 S
H271   C389    1.088   .     S
H272   N276    1.029   .     S
H273   N277    1.046   .     S
H274   N277    1.046   .     S
N275   N276    1.285   .     D
N275   Zn288   2.020   .     S
N276   Zn287   2.020   .     S
O279   Zn287   1.953   .     S
O279   C145    1.277   1_655 S
O280   Zn288   1.979   .     S
O281   Zn287   1.948   .     S
O281   C148    1.290   1_655 S
O282   Zn288   1.910   .     S
O283   Zn287   1.979   .     S
O284   Zn288   1.953   .     S
O285   Zn287   1.910   .     S
O286   Zn288   1.948   .     S
C289   O328    1.290   .     A
C289   C291    1.403   .     S
C289   O423    1.277   1_455 S
C290   C292    1.453   .     S
C290   C302    1.404   .     A
C290   C298    1.400   .     A
C291   C101    1.339   1_465 S
C291   H26     1.088   1_565 S
C292   O330    1.299   .     A
C292   O425    1.290   1_455 S
C293   C294    1.403   .     S
C294   O331    1.290   .     A
C294   O380    1.277   .     S
C295   O333    1.298   .     A
C295   C297    1.445   .     S
C295   O382    1.289   .     S
C296   C308    1.394   .     A
C296   C736    1.409   1_554 S
C296   H742    1.083   1_554 S
C297   C308    1.399   .     A
C297   C307    1.380   .     A
C298   C731    1.385   .     S
C298   H413    1.083   1_455 S
C299   C301    1.401   .     A
C299   H318    1.083   .     S
C299   C730    1.385   1_554 S
C300   C302    1.405   .     A
C300   C733    1.430   .     S
C300   C735    1.412   .     S
C301   N326    1.437   .     S
C301   C732    1.430   1_554 S
C302   C306    1.413   .     A
C303   C307    1.388   .     A
C303   C732    1.412   1_554 S
C303   C736    1.423   1_554 S
C304   C305    1.401   .     A
C304   C728    1.409   .     S
C304   C735    1.423   .     S
C305   C306    1.394   .     A
C305   N325    1.434   .     S
C306   H313    1.083   .     S
C307   H316    1.080   .     S
C308   H357    1.083   .     S
H309   C404    1.083   1_455 S
H310   C728    1.083   .     S
H311   N326    1.045   .     S
H312   N326    1.045   .     S
H315   N323    1.029   .     S
H317   C346    1.083   .     S
H319   C5      1.088   1_565 S
H320   N324    1.029   .     S
H321   N325    1.046   .     S
H322   N325    1.046   .     S
N323   N324    1.285   .     D
N323   Zn336   2.020   .     S
N324   Zn335   2.020   .     S
O327   Zn335   1.953   .     S
O327   C337    1.277   .     S
O328   Zn336   1.979   .     S
O329   Zn335   1.948   .     S
O329   C340    1.290   .     S
O330   Zn336   1.910   .     S
O331   Zn335   1.979   .     S
O332   Zn336   1.953   .     S
O332   C390    1.277   1_455 S
O333   Zn335   1.910   .     S
O334   Zn336   1.948   .     S
O334   C391    1.289   1_455 S
C337   O376    1.290   .     A
C337   C339    1.403   .     S
C338   C340    1.453   .     S
C338   C350    1.404   .     A
C338   C346    1.400   .     A
C339   C5      1.339   1_565 S
C339   H74     1.088   1_565 S
C340   O378    1.299   .     A
C341   C342    1.403   .     S
C342   O379    1.290   .     A
C342   O428    1.277   .     S
C343   O381    1.298   .     A
C343   C345    1.445   .     S
C343   O430    1.289   .     S
C344   C356    1.394   .     A
C344   C784    1.409   1_554 S
C344   H790    1.083   1_554 S
C345   C356    1.399   .     A
C345   C355    1.380   .     A
C346   C779    1.385   .     S
C347   C349    1.401   .     A
C347   H366    1.083   .     S
C347   C778    1.385   1_554 S
C348   C350    1.405   .     A
C348   C781    1.430   .     S
C348   C783    1.412   .     S
C349   N374    1.437   .     S
C349   C780    1.430   1_554 S
C350   C354    1.413   .     A
C351   C355    1.388   .     A
C351   C780    1.412   1_554 S
C351   C784    1.423   1_554 S
C352   C353    1.401   .     A
C352   C776    1.409   .     S
C352   C783    1.423   .     S
C353   C354    1.394   .     A
C353   N373    1.434   .     S
C354   H361    1.083   .     S
C355   H364    1.080   .     S
C356   H405    1.083   .     S
H358   C776    1.083   .     S
H359   N374    1.045   .     S
H360   N374    1.045   .     S
H363   N371    1.029   .     S
H365   C394    1.083   .     S
H367   C53     1.088   1_565 S
H368   N372    1.029   .     S
H369   N373    1.046   .     S
H370   N373    1.046   .     S
N371   N372    1.285   .     D
N371   Zn384   2.020   .     S
N372   Zn383   2.020   .     S
O375   Zn383   1.953   .     S
O375   C385    1.277   .     S
O376   Zn384   1.979   .     S
O377   Zn383   1.948   .     S
O377   C388    1.290   .     S
O378   Zn384   1.910   .     S
O379   Zn383   1.979   .     S
O380   Zn384   1.953   .     S
O381   Zn383   1.910   .     S
O382   Zn384   1.948   .     S
C385   O424    1.290   .     A
C385   C387    1.403   .     S
C386   C388    1.453   .     S
C386   C398    1.404   .     A
C386   C394    1.400   .     A
C387   C53     1.339   1_565 S
C387   H122    1.088   1_565 S
C388   O426    1.299   .     A
C389   C390    1.403   .     S
C389   C147    1.339   1_655 S
C390   O427    1.290   .     A
C390   O332    1.277   1_655 S
C391   O429    1.298   .     A
C391   C393    1.445   .     S
C391   O334    1.289   1_655 S
C392   C404    1.394   .     A
C392   C832    1.409   1_554 S
C392   H838    1.083   1_554 S
C393   C404    1.399   .     A
C393   C403    1.380   .     A
C394   C827    1.385   .     S
C395   C397    1.401   .     A
C395   H414    1.083   .     S
C395   C826    1.385   1_554 S
C396   C398    1.405   .     A
C396   C829    1.430   .     S
C396   C831    1.412   .     S
C397   N422    1.437   .     S
C397   C828    1.430   1_554 S
C398   C402    1.413   .     A
C399   C403    1.388   .     A
C399   C828    1.412   1_554 S
C399   C832    1.423   1_554 S
C400   C401    1.401   .     A
C400   C824    1.409   .     S
C400   C831    1.423   .     S
C401   C402    1.394   .     A
C401   N421    1.434   .     S
C402   H409    1.083   .     S
C403   H412    1.080   .     S
C404   H309    1.083   1_655 S
H406   C824    1.083   .     S
H407   N422    1.045   .     S
H408   N422    1.045   .     S
H411   N419    1.029   .     S
H413   C298    1.083   1_655 S
H415   C101    1.088   1_565 S
H416   N420    1.029   .     S
H417   N421    1.046   .     S
H418   N421    1.046   .     S
N419   N420    1.285   .     D
N419   Zn432   2.020   .     S
N420   Zn431   2.020   .     S
O423   Zn431   1.953   .     S
O423   C289    1.277   1_655 S
O424   Zn432   1.979   .     S
O425   Zn431   1.948   .     S
O425   C292    1.290   1_655 S
O426   Zn432   1.910   .     S
O427   Zn431   1.979   .     S
O428   Zn432   1.953   .     S
O429   Zn431   1.910   .     S
O430   Zn432   1.948   .     S
C433   O472    1.290   .     A
C433   C435    1.403   .     S
C433   O567    1.277   1_455 S
C434   C436    1.453   .     S
C434   C446    1.404   .     A
C434   C442    1.400   .     A
C435   C677    1.339   1_455 S
C435   H602    1.088   .     S
C436   O474    1.299   .     A
C436   O569    1.290   1_455 S
C437   C438    1.403   .     S
C437   C771    1.339   1_545 S
C437   H751    1.088   1_545 S
C438   O475    1.290   .     A
C438   O524    1.277   .     S
C439   O477    1.298   .     A
C439   C441    1.445   .     S
C439   O526    1.289   .     S
C440   C452    1.394   .     A
C441   C452    1.399   .     A
C441   C451    1.380   .     A
C442   C11     1.385   1_556 S
C442   H557    1.083   1_455 S
C443   C445    1.401   .     A
C443   H462    1.083   .     S
C444   C446    1.405   .     A
C444   C13     1.430   1_556 S
C444   C15     1.412   1_556 S
C445   N470    1.437   .     S
C446   C450    1.413   .     A
C447   C451    1.388   .     A
C448   C449    1.401   .     A
C448   C8      1.409   1_556 S
C448   C15     1.423   1_556 S
C449   C450    1.394   .     A
C449   N469    1.434   .     S
C450   H457    1.083   .     S
C451   H460    1.080   .     S
C452   H501    1.083   .     S
H453   C548    1.083   1_455 S
H454   C8      1.083   1_556 S
H455   N470    1.045   .     S
H456   N470    1.045   .     S
H458   C723    1.088   1_545 S
H459   N467    1.029   .     S
H461   C490    1.083   .     S
H463   C581    1.088   .     S
H464   N468    1.029   .     S
H465   N469    1.046   .     S
H466   N469    1.046   .     S
N467   N468    1.285   .     D
N467   Zn480   2.020   .     S
N468   Zn479   2.020   .     S
O471   Zn479   1.953   .     S
O471   C481    1.277   .     S
O472   Zn480   1.979   .     S
O473   Zn479   1.948   .     S
O473   C484    1.290   .     S
O474   Zn480   1.910   .     S
O475   Zn479   1.979   .     S
O476   Zn480   1.953   .     S
O476   C534    1.277   1_455 S
O477   Zn479   1.910   .     S
O478   Zn480   1.948   .     S
O478   C535    1.289   1_455 S
C481   O520    1.290   .     A
C481   C483    1.403   .     S
C482   C484    1.453   .     S
C482   C494    1.404   .     A
C482   C490    1.400   .     A
C483   C581    1.339   .     S
C483   H650    1.088   .     S
C484   O522    1.299   .     A
C485   C486    1.403   .     S
C485   C819    1.339   1_545 S
C485   H799    1.088   1_545 S
C486   O523    1.290   .     A
C486   O572    1.277   .     S
C487   O525    1.298   .     A
C487   C489    1.445   .     S
C487   O574    1.289   .     S
C488   C500    1.394   .     A
C489   C500    1.399   .     A
C489   C499    1.380   .     A
C490   C59     1.385   1_556 S
C491   C493    1.401   .     A
C491   H510    1.083   .     S
C492   C494    1.405   .     A
C492   C61     1.430   1_556 S
C492   C63     1.412   1_556 S
C493   N518    1.437   .     S
C494   C498    1.413   .     A
C495   C499    1.388   .     A
C496   C497    1.401   .     A
C496   C56     1.409   1_556 S
C496   C63     1.423   1_556 S
C497   C498    1.394   .     A
C497   N517    1.434   .     S
C498   H505    1.083   .     S
C499   H508    1.080   .     S
C500   H549    1.083   .     S
H502   C56     1.083   1_556 S
H503   N518    1.045   .     S
H504   N518    1.045   .     S
H506   C771    1.088   1_545 S
H507   N515    1.029   .     S
H509   C538    1.083   .     S
H511   C629    1.088   .     S
H512   N516    1.029   .     S
H513   N517    1.046   .     S
H514   N517    1.046   .     S
N515   N516    1.285   .     D
N515   Zn528   2.020   .     S
N516   Zn527   2.020   .     S
O519   Zn527   1.953   .     S
O519   C529    1.277   .     S
O520   Zn528   1.979   .     S
O521   Zn527   1.948   .     S
O521   C532    1.290   .     S
O522   Zn528   1.910   .     S
O523   Zn527   1.979   .     S
O524   Zn528   1.953   .     S
O525   Zn527   1.910   .     S
O526   Zn528   1.948   .     S
C529   O568    1.290   .     A
C529   C531    1.403   .     S
C530   C532    1.453   .     S
C530   C542    1.404   .     A
C530   C538    1.400   .     A
C531   C629    1.339   .     S
C531   H698    1.088   .     S
C532   O570    1.299   .     A
C533   C534    1.403   .     S
C533   C723    1.339   1_645 S
C533   H847    1.088   1_545 S
C534   O571    1.290   .     A
C534   O476    1.277   1_655 S
C535   O573    1.298   .     A
C535   C537    1.445   .     S
C535   O478    1.289   1_655 S
C536   C548    1.394   .     A
C537   C548    1.399   .     A
C537   C547    1.380   .     A
C538   C107    1.385   1_556 S
C539   C541    1.401   .     A
C539   H558    1.083   .     S
C540   C542    1.405   .     A
C540   C109    1.430   1_556 S
C540   C111    1.412   1_556 S
C541   N566    1.437   .     S
C542   C546    1.413   .     A
C543   C547    1.388   .     A
C544   C545    1.401   .     A
C544   C104    1.409   1_556 S
C544   C111    1.423   1_556 S
C545   C546    1.394   .     A
C545   N565    1.434   .     S
C546   H553    1.083   .     S
C547   H556    1.080   .     S
C548   H453    1.083   1_655 S
H550   C104    1.083   1_556 S
H551   N566    1.045   .     S
H552   N566    1.045   .     S
H554   C819    1.088   1_545 S
H555   N563    1.029   .     S
H557   C442    1.083   1_655 S
H559   C677    1.088   .     S
H560   N564    1.029   .     S
H561   N565    1.046   .     S
H562   N565    1.046   .     S
N563   N564    1.285   .     D
N563   Zn576   2.020   .     S
N564   Zn575   2.020   .     S
O567   Zn575   1.953   .     S
O567   C433    1.277   1_655 S
O568   Zn576   1.979   .     S
O569   Zn575   1.948   .     S
O569   C436    1.290   1_655 S
O570   Zn576   1.910   .     S
O571   Zn575   1.979   .     S
O572   Zn576   1.953   .     S
O573   Zn575   1.910   .     S
O574   Zn576   1.948   .     S
C577   O616    1.290   .     A
C577   C579    1.403   .     S
C577   O711    1.277   1_455 S
C578   C580    1.453   .     S
C578   C590    1.404   .     A
C578   C586    1.400   .     A
C579   C821    1.339   1_455 S
C579   H746    1.088   .     S
C580   O618    1.299   .     A
C580   O713    1.290   1_455 S
C581   C582    1.403   .     S
C582   O619    1.290   .     A
C582   O668    1.277   .     S
C583   O621    1.298   .     A
C583   C585    1.445   .     S
C583   O670    1.289   .     S
C584   C596    1.394   .     A
C585   C596    1.399   .     A
C585   C595    1.380   .     A
C586   C155    1.385   1_556 S
C586   H701    1.083   1_455 S
C587   C589    1.401   .     A
C587   H606    1.083   .     S
C588   C590    1.405   .     A
C588   C157    1.430   1_556 S
C588   C159    1.412   1_556 S
C589   N614    1.437   .     S
C590   C594    1.413   .     A
C591   C595    1.388   .     A
C592   C593    1.401   .     A
C592   C152    1.409   1_556 S
C592   C159    1.423   1_556 S
C593   C594    1.394   .     A
C593   N613    1.434   .     S
C594   H601    1.083   .     S
C595   H604    1.080   .     S
C596   H645    1.083   .     S
H597   C692    1.083   1_455 S
H598   C152    1.083   1_556 S
H599   N614    1.045   .     S
H600   N614    1.045   .     S
H603   N611    1.029   .     S
H605   C634    1.083   .     S
H607   C725    1.088   .     S
H608   N612    1.029   .     S
H609   N613    1.046   .     S
H610   N613    1.046   .     S
N611   N612    1.285   .     D
N611   Zn624   2.020   .     S
N612   Zn623   2.020   .     S
O615   Zn623   1.953   .     S
O615   C625    1.277   .     S
O616   Zn624   1.979   .     S
O617   Zn623   1.948   .     S
O617   C628    1.290   .     S
O618   Zn624   1.910   .     S
O619   Zn623   1.979   .     S
O620   Zn624   1.953   .     S
O620   C678    1.277   1_455 S
O621   Zn623   1.910   .     S
O622   Zn624   1.948   .     S
O622   C679    1.289   1_455 S
C625   O664    1.290   .     A
C625   C627    1.403   .     S
C626   C628    1.453   .     S
C626   C638    1.404   .     A
C626   C634    1.400   .     A
C627   C725    1.339   .     S
C627   H794    1.088   .     S
C628   O666    1.299   .     A
C629   C630    1.403   .     S
C630   O667    1.290   .     A
C630   O716    1.277   .     S
C631   O669    1.298   .     A
C631   C633    1.445   .     S
C631   O718    1.289   .     S
C632   C644    1.394   .     A
C633   C644    1.399   .     A
C633   C643    1.380   .     A
C634   C203    1.385   1_556 S
C635   C637    1.401   .     A
C635   H654    1.083   .     S
C636   C638    1.405   .     A
C636   C205    1.430   1_556 S
C636   C207    1.412   1_556 S
C637   N662    1.437   .     S
C638   C642    1.413   .     A
C639   C643    1.388   .     A
C640   C641    1.401   .     A
C640   C200    1.409   1_556 S
C640   C207    1.423   1_556 S
C641   C642    1.394   .     A
C641   N661    1.434   .     S
C642   H649    1.083   .     S
C643   H652    1.080   .     S
C644   H693    1.083   .     S
H646   C200    1.083   1_556 S
H647   N662    1.045   .     S
H648   N662    1.045   .     S
H651   N659    1.029   .     S
H653   C682    1.083   .     S
H655   C773    1.088   .     S
H656   N660    1.029   .     S
H657   N661    1.046   .     S
H658   N661    1.046   .     S
N659   N660    1.285   .     D
N659   Zn672   2.020   .     S
N660   Zn671   2.020   .     S
O663   Zn671   1.953   .     S
O663   C673    1.277   .     S
O664   Zn672   1.979   .     S
O665   Zn671   1.948   .     S
O665   C676    1.290   .     S
O666   Zn672   1.910   .     S
O667   Zn671   1.979   .     S
O668   Zn672   1.953   .     S
O669   Zn671   1.910   .     S
O670   Zn672   1.948   .     S
C673   O712    1.290   .     A
C673   C675    1.403   .     S
C674   C676    1.453   .     S
C674   C686    1.404   .     A
C674   C682    1.400   .     A
C675   C773    1.339   .     S
C675   H842    1.088   .     S
C676   O714    1.299   .     A
C677   C678    1.403   .     S
C677   C435    1.339   1_655 S
C678   O715    1.290   .     A
C678   O620    1.277   1_655 S
C679   O717    1.298   .     A
C679   C681    1.445   .     S
C679   O622    1.289   1_655 S
C680   C692    1.394   .     A
C681   C692    1.399   .     A
C681   C691    1.380   .     A
C682   C251    1.385   1_556 S
C683   C685    1.401   .     A
C683   H702    1.083   .     S
C684   C686    1.405   .     A
C684   C253    1.430   1_556 S
C684   C255    1.412   1_556 S
C685   N710    1.437   .     S
C686   C690    1.413   .     A
C687   C691    1.388   .     A
C688   C689    1.401   .     A
C688   C248    1.409   1_556 S
C688   C255    1.423   1_556 S
C689   C690    1.394   .     A
C689   N709    1.434   .     S
C690   H697    1.083   .     S
C691   H700    1.080   .     S
C692   H597    1.083   1_655 S
H694   C248    1.083   1_556 S
H695   N710    1.045   .     S
H696   N710    1.045   .     S
H699   N707    1.029   .     S
H701   C586    1.083   1_655 S
H703   C821    1.088   .     S
H704   N708    1.029   .     S
H705   N709    1.046   .     S
H706   N709    1.046   .     S
N707   N708    1.285   .     D
N707   Zn720   2.020   .     S
N708   Zn719   2.020   .     S
O711   Zn719   1.953   .     S
O711   C577    1.277   1_655 S
O712   Zn720   1.979   .     S
O713   Zn719   1.948   .     S
O713   C580    1.290   1_655 S
O714   Zn720   1.910   .     S
O715   Zn719   1.979   .     S
O716   Zn720   1.953   .     S
O717   Zn719   1.910   .     S
O718   Zn720   1.948   .     S
C721   O760    1.290   .     A
C721   C723    1.403   .     S
C721   O855    1.277   1_455 S
C722   C724    1.453   .     S
C722   C734    1.404   .     A
C722   C730    1.400   .     A
C723   C533    1.339   1_465 S
C723   H458    1.088   1_565 S
C724   O762    1.299   .     A
C724   O857    1.290   1_455 S
C725   C726    1.403   .     S
C726   O763    1.290   .     A
C726   O812    1.277   .     S
C727   O765    1.298   .     A
C727   C729    1.445   .     S
C727   O814    1.289   .     S
C728   C740    1.394   .     A
C729   C740    1.399   .     A
C729   C739    1.380   .     A
C730   C299    1.385   1_556 S
C730   H845    1.083   1_455 S
C731   C733    1.401   .     A
C731   H750    1.083   .     S
C732   C734    1.405   .     A
C732   C301    1.430   1_556 S
C732   C303    1.412   1_556 S
C733   N758    1.437   .     S
C734   C738    1.413   .     A
C735   C739    1.388   .     A
C736   C737    1.401   .     A
C736   C296    1.409   1_556 S
C736   C303    1.423   1_556 S
C737   C738    1.394   .     A
C737   N757    1.434   .     S
C738   H745    1.083   .     S
C739   H748    1.080   .     S
C740   H789    1.083   .     S
H741   C836    1.083   1_455 S
H742   C296    1.083   1_556 S
H743   N758    1.045   .     S
H744   N758    1.045   .     S
H747   N755    1.029   .     S
H749   C778    1.083   .     S
H751   C437    1.088   1_565 S
H752   N756    1.029   .     S
H753   N757    1.046   .     S
H754   N757    1.046   .     S
N755   N756    1.285   .     D
N755   Zn768   2.020   .     S
N756   Zn767   2.020   .     S
O759   Zn767   1.953   .     S
O759   C769    1.277   .     S
O760   Zn768   1.979   .     S
O761   Zn767   1.948   .     S
O761   C772    1.290   .     S
O762   Zn768   1.910   .     S
O763   Zn767   1.979   .     S
O764   Zn768   1.953   .     S
O764   C822    1.277   1_455 S
O765   Zn767   1.910   .     S
O766   Zn768   1.948   .     S
O766   C823    1.289   1_455 S
C769   O808    1.290   .     A
C769   C771    1.403   .     S
C770   C772    1.453   .     S
C770   C782    1.404   .     A
C770   C778    1.400   .     A
C771   C437    1.339   1_565 S
C771   H506    1.088   1_565 S
C772   O810    1.299   .     A
C773   C774    1.403   .     S
C774   O811    1.290   .     A
C774   O860    1.277   .     S
C775   O813    1.298   .     A
C775   C777    1.445   .     S
C775   O862    1.289   .     S
C776   C788    1.394   .     A
C777   C788    1.399   .     A
C777   C787    1.380   .     A
C778   C347    1.385   1_556 S
C779   C781    1.401   .     A
C779   H798    1.083   .     S
C780   C782    1.405   .     A
C780   C349    1.430   1_556 S
C780   C351    1.412   1_556 S
C781   N806    1.437   .     S
C782   C786    1.413   .     A
C783   C787    1.388   .     A
C784   C785    1.401   .     A
C784   C344    1.409   1_556 S
C784   C351    1.423   1_556 S
C785   C786    1.394   .     A
C785   N805    1.434   .     S
C786   H793    1.083   .     S
C787   H796    1.080   .     S
C788   H837    1.083   .     S
H790   C344    1.083   1_556 S
H791   N806    1.045   .     S
H792   N806    1.045   .     S
H795   N803    1.029   .     S
H797   C826    1.083   .     S
H799   C485    1.088   1_565 S
H800   N804    1.029   .     S
H801   N805    1.046   .     S
H802   N805    1.046   .     S
N803   N804    1.285   .     D
N803   Zn816   2.020   .     S
N804   Zn815   2.020   .     S
O807   Zn815   1.953   .     S
O807   C817    1.277   .     S
O808   Zn816   1.979   .     S
O809   Zn815   1.948   .     S
O809   C820    1.290   .     S
O810   Zn816   1.910   .     S
O811   Zn815   1.979   .     S
O812   Zn816   1.953   .     S
O813   Zn815   1.910   .     S
O814   Zn816   1.948   .     S
C817   O856    1.290   .     A
C817   C819    1.403   .     S
C818   C820    1.453   .     S
C818   C830    1.404   .     A
C818   C826    1.400   .     A
C819   C485    1.339   1_565 S
C819   H554    1.088   1_565 S
C820   O858    1.299   .     A
C821   C822    1.403   .     S
C821   C579    1.339   1_655 S
C822   O859    1.290   .     A
C822   O764    1.277   1_655 S
C823   O861    1.298   .     A
C823   C825    1.445   .     S
C823   O766    1.289   1_655 S
C824   C836    1.394   .     A
C825   C836    1.399   .     A
C825   C835    1.380   .     A
C826   C395    1.385   1_556 S
C827   C829    1.401   .     A
C827   H846    1.083   .     S
C828   C830    1.405   .     A
C828   C397    1.430   1_556 S
C828   C399    1.412   1_556 S
C829   N854    1.437   .     S
C830   C834    1.413   .     A
C831   C835    1.388   .     A
C832   C833    1.401   .     A
C832   C392    1.409   1_556 S
C832   C399    1.423   1_556 S
C833   C834    1.394   .     A
C833   N853    1.434   .     S
C834   H841    1.083   .     S
C835   H844    1.080   .     S
C836   H741    1.083   1_655 S
H838   C392    1.083   1_556 S
H839   N854    1.045   .     S
H840   N854    1.045   .     S
H843   N851    1.029   .     S
H845   C730    1.083   1_655 S
H847   C533    1.088   1_565 S
H848   N852    1.029   .     S
H849   N853    1.046   .     S
H850   N853    1.046   .     S
N851   N852    1.285   .     D
N851   Zn864   2.020   .     S
N852   Zn863   2.020   .     S
O855   Zn863   1.953   .     S
O855   C721    1.277   1_655 S
O856   Zn864   1.979   .     S
O857   Zn863   1.948   .     S
O857   C724    1.290   1_655 S
O858   Zn864   1.910   .     S
O859   Zn863   1.979   .     S
O860   Zn864   1.953   .     S
O861   Zn863   1.910   .     S
O862   Zn864   1.948   .     S
