data_str_m3_o1_o17_pcu_sym.48
_audit_creation_date              2020-01-03
_audit_creation_method            'Materials Studio'
_symmetry_space_group_name_H-M    'P1'
_symmetry_Int_Tables_number       1
_symmetry_cell_setting            triclinic
loop_
_symmetry_equiv_pos_as_xyz
  x,y,z
_cell_length_a                    32.4810
_cell_length_b                    29.5409
_cell_length_c                    29.7992
_cell_angle_alpha                 89.8465
_cell_angle_beta                  91.0164
_cell_angle_gamma                 89.2176
loop_
_atom_site_label
_atom_site_type_symbol
_atom_site_fract_x
_atom_site_fract_y
_atom_site_fract_z
_atom_site_U_iso_or_equiv
_atom_site_adp_type
_atom_site_occupancy
C1     C     0.08665   0.16671   0.24908   0.00000  Uiso   1.00
C2     C     0.04260   0.16597   0.24539   0.00000  Uiso   1.00
C3     C     0.15455   0.02401   0.28689   0.00000  Uiso   1.00
C4     C     0.17772   0.30942   0.21273   0.00000  Uiso   1.00
C5     C     0.17783   0.02380   0.21277   0.00000  Uiso   1.00
C6     C     0.15479   0.30956   0.28698   0.00000  Uiso   1.00
C7     C     0.16268   0.16704   0.16363   0.00000  Uiso   1.00
C8     C     0.16770   0.16663   0.33659   0.00000  Uiso   1.00
C9     C     0.20395   0.16832   0.40972   0.00000  Uiso   1.00
C10    C     0.12289   0.17393   0.09169   0.00000  Uiso   1.00
C11    C     0.16715   0.16722   0.38449   0.00000  Uiso   1.00
C12    C     0.24679   0.16603   0.24764   0.00000  Uiso   1.00
C13    C     0.16058   0.16854   0.11569   0.00000  Uiso   1.00
C14    C     0.12898   0.16789   0.40466   0.00000  Uiso   1.00
C15    C     0.19802   0.17133   0.09423   0.00000  Uiso   1.00
C16    C     0.12696   0.16773   0.45104   0.00000  Uiso   1.00
C17    C     0.19858   0.17773   0.04836   0.00000  Uiso   1.00
C18    C     0.16336   0.17359   0.47657   0.00000  Uiso   1.00
C19    C     0.16172   0.17294   0.02325   0.00000  Uiso   1.00
C20    C     0.20166   0.17925   0.45531   0.00000  Uiso   1.00
C21    C     0.12355   0.16715   0.04490   0.00000  Uiso   1.00
C22    C     0.08961   0.15968   0.47193   0.00000  Uiso   1.00
C23    C     0.08797   0.15635   0.01866   0.00000  Uiso   1.00
C24    C     0.23491   0.19041   0.02749   0.00000  Uiso   1.00
C25    C     0.23595   0.19415   0.48088   0.00000  Uiso   1.00
C26    C     0.02253   0.12564   0.23172   0.00000  Uiso   1.00
C27    C     0.31210   0.20578   0.24139   0.00000  Uiso   1.00
C28    C     0.31401   0.12257   0.24114   0.00000  Uiso   1.00
C29    C     0.01947   0.20536   0.25468   0.00000  Uiso   1.00
C30    C     0.29112   0.16435   0.24298   0.00000  Uiso   1.00
F31    F     0.05531   0.15193   0.44643   0.00000  Uiso   1.00
F32    F     0.26821   0.20252   0.05272   0.00000  Uiso   1.00
F33    F     0.14132   0.04629   0.32367   0.00000  Uiso   1.00
F34    F     0.18867   0.28739   0.17499   0.00000  Uiso   1.00
F35    F     0.18912   0.04576   0.17512   0.00000  Uiso   1.00
F36    F     0.14233   0.28760   0.32413   0.00000  Uiso   1.00
H37    H     0.10124   0.16539   0.38406   0.00000  Uiso   1.00
H38    H     0.06959   0.25465   0.35258   0.00000  Uiso   1.00
H39    H     0.22650   0.17142   0.11386   0.00000  Uiso   1.00
H40    H     0.21650   0.07297   0.40067   0.00000  Uiso   1.00
H41    H     0.07654   0.26029   0.16475   0.00000  Uiso   1.00
H42    H     0.00005   0.08036   0.01626   0.00000  Uiso   1.00
H43    H     0.25093   0.29089   0.48391   0.00000  Uiso   1.00
H44    H     0.10049   0.07427   0.15819   0.00000  Uiso   1.00
H45    H     0.26409   0.26201   0.14664   0.00000  Uiso   1.00
H46    H     0.25003   0.03666   0.29573   0.00000  Uiso   1.00
N47    N     0.16667   0.28573   0.25000   0.00000  Uiso   1.00
N48    N     0.16667   0.04760   0.25000   0.00000  Uiso   1.00
O49    O     0.10559   0.20487   0.24999   0.00000  Uiso   1.00
O50    O     0.27943   0.12864   0.42527   0.00000  Uiso   1.00
O51    O     0.22907   0.08595   0.37356   0.00000  Uiso   1.00
O52    O     0.06029   0.23342   0.07758   0.00000  Uiso   1.00
O53    O     0.05194   0.17903   0.13864   0.00000  Uiso   1.00
O54    O     0.10108   0.24618   0.15095   0.00000  Uiso   1.00
O55    O     0.05749   0.10175   0.08217   0.00000  Uiso   1.00
O56    O     0.01175   0.16190   0.05240   0.00000  Uiso   1.00
O57    O     0.02567   0.09172   0.00295   0.00000  Uiso   1.00
O58    O     0.31588   0.20365   0.46138   0.00000  Uiso   1.00
O59    O     0.26611   0.23981   0.40931   0.00000  Uiso   1.00
O60    O     0.22774   0.12846   0.25000   0.00000  Uiso   1.00
O61    O     0.27846   0.27626   0.48725   0.00000  Uiso   1.00
O62    O     0.06685   0.04735   0.23271   0.00000  Uiso   1.00
O63    O     0.01712   0.05768   0.17051   0.00000  Uiso   1.00
O64    O     0.08515   0.10140   0.16854   0.00000  Uiso   1.00
O65    O     0.26855   0.28412   0.24407   0.00000  Uiso   1.00
O66    O     0.32752   0.28135   0.19411   0.00000  Uiso   1.00
O67    O     0.26183   0.23813   0.16982   0.00000  Uiso   1.00
O68    O     0.26875   0.05356   0.20994   0.00000  Uiso   1.00
O69    O     0.32597   0.03238   0.26028   0.00000  Uiso   1.00
O70    O     0.26249   0.06709   0.29567   0.00000  Uiso   1.00
O71    O     0.22774   0.20487   0.25000   0.00000  Uiso   1.00
O72    O     0.06062   0.28379   0.26020   0.00000  Uiso   1.00
O73    O     0.00164   0.27508   0.30942   0.00000  Uiso   1.00
O74    O     0.06871   0.23051   0.32960   0.00000  Uiso   1.00
O75    O     0.10559   0.12846   0.24999   0.00000  Uiso   1.00
O76    O     0.16666   0.20489   0.18392   0.00000  Uiso   1.00
O77    O     0.16667   0.12844   0.31607   0.00000  Uiso   1.00
O78    O     0.16667   0.20489   0.31607   0.00000  Uiso   1.00
O79    O     0.16666   0.12844   0.18392   0.00000  Uiso   1.00
O80    O     0.26509   0.16023   0.35030   0.00000  Uiso   1.00
S81    S     0.24674   0.13663   0.38975   0.00000  Uiso   1.00
S82    S     0.08231   0.20783   0.11471   0.00000  Uiso   1.00
S83    S     0.04486   0.12813   0.04101   0.00000  Uiso   1.00
S84    S     0.27511   0.22804   0.45763   0.00000  Uiso   1.00
S85    S     0.04763   0.08118   0.20062   0.00000  Uiso   1.00
S86    S     0.29255   0.25463   0.21261   0.00000  Uiso   1.00
S87    S     0.29302   0.06736   0.25091   0.00000  Uiso   1.00
S88    S     0.03748   0.25090   0.28847   0.00000  Uiso   1.00
Zn89   Zn    0.16667   0.21771   0.25000   0.00000  Uiso   1.00
Zn90   Zn    0.16667   0.11563   0.25000   0.00000  Uiso   1.00
C91    C     0.41999   0.16671   0.24908   0.00000  Uiso   1.00
C92    C     0.37593   0.16597   0.24539   0.00000  Uiso   1.00
C93    C     0.48789   0.02401   0.28689   0.00000  Uiso   1.00
C94    C     0.51105   0.30942   0.21273   0.00000  Uiso   1.00
C95    C     0.51116   0.02380   0.21277   0.00000  Uiso   1.00
C96    C     0.48812   0.30956   0.28698   0.00000  Uiso   1.00
C97    C     0.49601   0.16704   0.16363   0.00000  Uiso   1.00
C98    C     0.50103   0.16663   0.33659   0.00000  Uiso   1.00
C99    C     0.53729   0.16832   0.40972   0.00000  Uiso   1.00
C100   C     0.45623   0.17393   0.09169   0.00000  Uiso   1.00
C101   C     0.50048   0.16722   0.38449   0.00000  Uiso   1.00
C102   C     0.58012   0.16603   0.24764   0.00000  Uiso   1.00
C103   C     0.49392   0.16854   0.11569   0.00000  Uiso   1.00
C104   C     0.46232   0.16789   0.40466   0.00000  Uiso   1.00
C105   C     0.53135   0.17133   0.09423   0.00000  Uiso   1.00
C106   C     0.46029   0.16773   0.45104   0.00000  Uiso   1.00
C107   C     0.53191   0.17773   0.04836   0.00000  Uiso   1.00
C108   C     0.49670   0.17359   0.47657   0.00000  Uiso   1.00
C109   C     0.49505   0.17294   0.02325   0.00000  Uiso   1.00
C110   C     0.53499   0.17925   0.45531   0.00000  Uiso   1.00
C111   C     0.45688   0.16715   0.04490   0.00000  Uiso   1.00
C112   C     0.42294   0.15968   0.47193   0.00000  Uiso   1.00
C113   C     0.42130   0.15635   0.01866   0.00000  Uiso   1.00
C114   C     0.56824   0.19041   0.02749   0.00000  Uiso   1.00
C115   C     0.56929   0.19415   0.48088   0.00000  Uiso   1.00
C116   C     0.35586   0.12564   0.23172   0.00000  Uiso   1.00
C117   C     0.64544   0.20578   0.24139   0.00000  Uiso   1.00
C118   C     0.64735   0.12257   0.24114   0.00000  Uiso   1.00
C119   C     0.35280   0.20536   0.25468   0.00000  Uiso   1.00
C120   C     0.62446   0.16435   0.24298   0.00000  Uiso   1.00
F121   F     0.38865   0.15193   0.44643   0.00000  Uiso   1.00
F122   F     0.60154   0.20252   0.05272   0.00000  Uiso   1.00
F123   F     0.47465   0.04629   0.32367   0.00000  Uiso   1.00
F124   F     0.52200   0.28739   0.17499   0.00000  Uiso   1.00
F125   F     0.52245   0.04576   0.17512   0.00000  Uiso   1.00
F126   F     0.47567   0.28760   0.32413   0.00000  Uiso   1.00
H127   H     0.43458   0.16539   0.38406   0.00000  Uiso   1.00
H128   H     0.40292   0.25465   0.35258   0.00000  Uiso   1.00
H129   H     0.55984   0.17142   0.11386   0.00000  Uiso   1.00
H130   H     0.54983   0.07297   0.40067   0.00000  Uiso   1.00
H131   H     0.40988   0.26029   0.16475   0.00000  Uiso   1.00
H132   H     0.33338   0.08036   0.01626   0.00000  Uiso   1.00
H133   H     0.58427   0.29089   0.48391   0.00000  Uiso   1.00
H134   H     0.43382   0.07427   0.15819   0.00000  Uiso   1.00
H135   H     0.59742   0.26201   0.14664   0.00000  Uiso   1.00
H136   H     0.58336   0.03666   0.29573   0.00000  Uiso   1.00
N137   N     0.50000   0.28573   0.25000   0.00000  Uiso   1.00
N138   N     0.50000   0.04760   0.25000   0.00000  Uiso   1.00
O139   O     0.43892   0.20487   0.24999   0.00000  Uiso   1.00
O140   O     0.61277   0.12864   0.42527   0.00000  Uiso   1.00
O141   O     0.56241   0.08595   0.37356   0.00000  Uiso   1.00
O142   O     0.39362   0.23342   0.07758   0.00000  Uiso   1.00
O143   O     0.38527   0.17903   0.13864   0.00000  Uiso   1.00
O144   O     0.43441   0.24618   0.15095   0.00000  Uiso   1.00
O145   O     0.39082   0.10175   0.08217   0.00000  Uiso   1.00
O146   O     0.34509   0.16190   0.05240   0.00000  Uiso   1.00
O147   O     0.35901   0.09172   0.00295   0.00000  Uiso   1.00
O148   O     0.64921   0.20365   0.46138   0.00000  Uiso   1.00
O149   O     0.59944   0.23981   0.40931   0.00000  Uiso   1.00
O150   O     0.56108   0.12846   0.25000   0.00000  Uiso   1.00
O151   O     0.61179   0.27626   0.48725   0.00000  Uiso   1.00
O152   O     0.40018   0.04735   0.23271   0.00000  Uiso   1.00
O153   O     0.35045   0.05768   0.17051   0.00000  Uiso   1.00
O154   O     0.41848   0.10140   0.16854   0.00000  Uiso   1.00
O155   O     0.60188   0.28412   0.24407   0.00000  Uiso   1.00
O156   O     0.66085   0.28135   0.19411   0.00000  Uiso   1.00
O157   O     0.59516   0.23813   0.16982   0.00000  Uiso   1.00
O158   O     0.60209   0.05356   0.20994   0.00000  Uiso   1.00
O159   O     0.65931   0.03238   0.26028   0.00000  Uiso   1.00
O160   O     0.59582   0.06709   0.29567   0.00000  Uiso   1.00
O161   O     0.56108   0.20487   0.25000   0.00000  Uiso   1.00
O162   O     0.39396   0.28379   0.26020   0.00000  Uiso   1.00
O163   O     0.33497   0.27508   0.30942   0.00000  Uiso   1.00
O164   O     0.40204   0.23051   0.32960   0.00000  Uiso   1.00
O165   O     0.43892   0.12846   0.24999   0.00000  Uiso   1.00
O166   O     0.49999   0.20489   0.18392   0.00000  Uiso   1.00
O167   O     0.50001   0.12844   0.31607   0.00000  Uiso   1.00
O168   O     0.50001   0.20489   0.31607   0.00000  Uiso   1.00
O169   O     0.49999   0.12844   0.18392   0.00000  Uiso   1.00
O170   O     0.59843   0.16023   0.35030   0.00000  Uiso   1.00
S171   S     0.58007   0.13663   0.38975   0.00000  Uiso   1.00
S172   S     0.41565   0.20783   0.11471   0.00000  Uiso   1.00
S173   S     0.37820   0.12813   0.04101   0.00000  Uiso   1.00
S174   S     0.60844   0.22804   0.45763   0.00000  Uiso   1.00
S175   S     0.38096   0.08118   0.20062   0.00000  Uiso   1.00
S176   S     0.62588   0.25463   0.21261   0.00000  Uiso   1.00
S177   S     0.62635   0.06736   0.25091   0.00000  Uiso   1.00
S178   S     0.37082   0.25090   0.28847   0.00000  Uiso   1.00
Zn179  Zn    0.50000   0.21771   0.25000   0.00000  Uiso   1.00
Zn180  Zn    0.50000   0.11563   0.25000   0.00000  Uiso   1.00
C181   C     0.75332   0.16671   0.24908   0.00000  Uiso   1.00
C182   C     0.70926   0.16597   0.24539   0.00000  Uiso   1.00
C183   C     0.82122   0.02401   0.28689   0.00000  Uiso   1.00
C184   C     0.84438   0.30942   0.21273   0.00000  Uiso   1.00
C185   C     0.84449   0.02380   0.21277   0.00000  Uiso   1.00
C186   C     0.82145   0.30956   0.28698   0.00000  Uiso   1.00
C187   C     0.82934   0.16704   0.16363   0.00000  Uiso   1.00
C188   C     0.83437   0.16663   0.33659   0.00000  Uiso   1.00
C189   C     0.87062   0.16832   0.40972   0.00000  Uiso   1.00
C190   C     0.78956   0.17393   0.09169   0.00000  Uiso   1.00
C191   C     0.83382   0.16722   0.38449   0.00000  Uiso   1.00
C192   C     0.91345   0.16603   0.24764   0.00000  Uiso   1.00
C193   C     0.82725   0.16854   0.11569   0.00000  Uiso   1.00
C194   C     0.79565   0.16789   0.40466   0.00000  Uiso   1.00
C195   C     0.86469   0.17133   0.09423   0.00000  Uiso   1.00
C196   C     0.79363   0.16773   0.45104   0.00000  Uiso   1.00
C197   C     0.86524   0.17773   0.04836   0.00000  Uiso   1.00
C198   C     0.83003   0.17359   0.47657   0.00000  Uiso   1.00
C199   C     0.82839   0.17294   0.02325   0.00000  Uiso   1.00
C200   C     0.86832   0.17925   0.45531   0.00000  Uiso   1.00
C201   C     0.79022   0.16715   0.04490   0.00000  Uiso   1.00
C202   C     0.75627   0.15968   0.47193   0.00000  Uiso   1.00
C203   C     0.75463   0.15635   0.01866   0.00000  Uiso   1.00
C204   C     0.90157   0.19041   0.02749   0.00000  Uiso   1.00
C205   C     0.90262   0.19415   0.48088   0.00000  Uiso   1.00
C206   C     0.68920   0.12564   0.23172   0.00000  Uiso   1.00
C207   C     0.97877   0.20578   0.24139   0.00000  Uiso   1.00
C208   C     0.98068   0.12257   0.24114   0.00000  Uiso   1.00
C209   C     0.68614   0.20536   0.25468   0.00000  Uiso   1.00
C210   C     0.95779   0.16435   0.24298   0.00000  Uiso   1.00
F211   F     0.72198   0.15193   0.44643   0.00000  Uiso   1.00
F212   F     0.93487   0.20252   0.05272   0.00000  Uiso   1.00
F213   F     0.80798   0.04629   0.32367   0.00000  Uiso   1.00
F214   F     0.85534   0.28739   0.17499   0.00000  Uiso   1.00
F215   F     0.85579   0.04576   0.17512   0.00000  Uiso   1.00
F216   F     0.80900   0.28760   0.32413   0.00000  Uiso   1.00
H217   H     0.76791   0.16539   0.38406   0.00000  Uiso   1.00
H218   H     0.73626   0.25465   0.35258   0.00000  Uiso   1.00
H219   H     0.89317   0.17142   0.11386   0.00000  Uiso   1.00
H220   H     0.88317   0.07297   0.40067   0.00000  Uiso   1.00
H221   H     0.74321   0.26029   0.16475   0.00000  Uiso   1.00
H222   H     0.66671   0.08036   0.01626   0.00000  Uiso   1.00
H223   H     0.91760   0.29089   0.48391   0.00000  Uiso   1.00
H224   H     0.76716   0.07427   0.15819   0.00000  Uiso   1.00
H225   H     0.93075   0.26201   0.14664   0.00000  Uiso   1.00
H226   H     0.91670   0.03666   0.29573   0.00000  Uiso   1.00
N227   N     0.83333   0.28573   0.25000   0.00000  Uiso   1.00
N228   N     0.83333   0.04760   0.25000   0.00000  Uiso   1.00
O229   O     0.77226   0.20487   0.24999   0.00000  Uiso   1.00
O230   O     0.94610   0.12864   0.42527   0.00000  Uiso   1.00
O231   O     0.89574   0.08595   0.37356   0.00000  Uiso   1.00
O232   O     0.72695   0.23342   0.07758   0.00000  Uiso   1.00
O233   O     0.71861   0.17903   0.13864   0.00000  Uiso   1.00
O234   O     0.76774   0.24618   0.15095   0.00000  Uiso   1.00
O235   O     0.72416   0.10175   0.08217   0.00000  Uiso   1.00
O236   O     0.67842   0.16190   0.05240   0.00000  Uiso   1.00
O237   O     0.69234   0.09172   0.00295   0.00000  Uiso   1.00
O238   O     0.98255   0.20365   0.46138   0.00000  Uiso   1.00
O239   O     0.93277   0.23981   0.40931   0.00000  Uiso   1.00
O240   O     0.89441   0.12846   0.25000   0.00000  Uiso   1.00
O241   O     0.94512   0.27626   0.48725   0.00000  Uiso   1.00
O242   O     0.73351   0.04735   0.23271   0.00000  Uiso   1.00
O243   O     0.68379   0.05768   0.17051   0.00000  Uiso   1.00
O244   O     0.75181   0.10140   0.16854   0.00000  Uiso   1.00
O245   O     0.93522   0.28412   0.24407   0.00000  Uiso   1.00
O246   O     0.99419   0.28135   0.19411   0.00000  Uiso   1.00
O247   O     0.92850   0.23813   0.16982   0.00000  Uiso   1.00
O248   O     0.93542   0.05356   0.20994   0.00000  Uiso   1.00
O249   O     0.99264   0.03238   0.26028   0.00000  Uiso   1.00
O250   O     0.92915   0.06709   0.29567   0.00000  Uiso   1.00
O251   O     0.89441   0.20487   0.25000   0.00000  Uiso   1.00
O252   O     0.72729   0.28379   0.26020   0.00000  Uiso   1.00
O253   O     0.66831   0.27508   0.30942   0.00000  Uiso   1.00
O254   O     0.73537   0.23051   0.32960   0.00000  Uiso   1.00
O255   O     0.77226   0.12846   0.24999   0.00000  Uiso   1.00
O256   O     0.83333   0.20489   0.18392   0.00000  Uiso   1.00
O257   O     0.83334   0.12844   0.31607   0.00000  Uiso   1.00
O258   O     0.83334   0.20489   0.31607   0.00000  Uiso   1.00
O259   O     0.83333   0.12844   0.18392   0.00000  Uiso   1.00
O260   O     0.93176   0.16023   0.35030   0.00000  Uiso   1.00
S261   S     0.91340   0.13663   0.38975   0.00000  Uiso   1.00
S262   S     0.74898   0.20783   0.11471   0.00000  Uiso   1.00
S263   S     0.71153   0.12813   0.04101   0.00000  Uiso   1.00
S264   S     0.94178   0.22804   0.45763   0.00000  Uiso   1.00
S265   S     0.71429   0.08118   0.20062   0.00000  Uiso   1.00
S266   S     0.95921   0.25463   0.21261   0.00000  Uiso   1.00
S267   S     0.95969   0.06736   0.25091   0.00000  Uiso   1.00
S268   S     0.70415   0.25090   0.28847   0.00000  Uiso   1.00
Zn269  Zn    0.83333   0.21771   0.25000   0.00000  Uiso   1.00
Zn270  Zn    0.83333   0.11563   0.25000   0.00000  Uiso   1.00
C271   C     0.08665   0.50004   0.24908   0.00000  Uiso   1.00
C272   C     0.04260   0.49930   0.24539   0.00000  Uiso   1.00
C273   C     0.15455   0.35734   0.28689   0.00000  Uiso   1.00
C274   C     0.17772   0.64276   0.21273   0.00000  Uiso   1.00
C275   C     0.17783   0.35713   0.21277   0.00000  Uiso   1.00
C276   C     0.15479   0.64290   0.28698   0.00000  Uiso   1.00
C277   C     0.16268   0.50037   0.16363   0.00000  Uiso   1.00
C278   C     0.16770   0.49997   0.33659   0.00000  Uiso   1.00
C279   C     0.20395   0.50165   0.40972   0.00000  Uiso   1.00
C280   C     0.12289   0.50726   0.09169   0.00000  Uiso   1.00
C281   C     0.16715   0.50055   0.38449   0.00000  Uiso   1.00
C282   C     0.24679   0.49936   0.24764   0.00000  Uiso   1.00
C283   C     0.16058   0.50187   0.11569   0.00000  Uiso   1.00
C284   C     0.12898   0.50123   0.40466   0.00000  Uiso   1.00
C285   C     0.19802   0.50467   0.09423   0.00000  Uiso   1.00
C286   C     0.12696   0.50106   0.45104   0.00000  Uiso   1.00
C287   C     0.19858   0.51106   0.04836   0.00000  Uiso   1.00
C288   C     0.16336   0.50692   0.47657   0.00000  Uiso   1.00
C289   C     0.16172   0.50627   0.02325   0.00000  Uiso   1.00
C290   C     0.20166   0.51258   0.45531   0.00000  Uiso   1.00
C291   C     0.12355   0.50048   0.04490   0.00000  Uiso   1.00
C292   C     0.08961   0.49301   0.47193   0.00000  Uiso   1.00
C293   C     0.08797   0.48968   0.01866   0.00000  Uiso   1.00
C294   C     0.23491   0.52375   0.02749   0.00000  Uiso   1.00
C295   C     0.23595   0.52749   0.48088   0.00000  Uiso   1.00
C296   C     0.02253   0.45898   0.23172   0.00000  Uiso   1.00
C297   C     0.31210   0.53912   0.24139   0.00000  Uiso   1.00
C298   C     0.31401   0.45590   0.24114   0.00000  Uiso   1.00
C299   C     0.01947   0.53869   0.25468   0.00000  Uiso   1.00
C300   C     0.29112   0.49768   0.24298   0.00000  Uiso   1.00
F301   F     0.05531   0.48526   0.44643   0.00000  Uiso   1.00
F302   F     0.26821   0.53585   0.05272   0.00000  Uiso   1.00
F303   F     0.14132   0.37963   0.32367   0.00000  Uiso   1.00
F304   F     0.18867   0.62072   0.17499   0.00000  Uiso   1.00
F305   F     0.18912   0.37909   0.17512   0.00000  Uiso   1.00
F306   F     0.14233   0.62093   0.32413   0.00000  Uiso   1.00
H307   H     0.10124   0.49873   0.38406   0.00000  Uiso   1.00
H308   H     0.06959   0.58798   0.35258   0.00000  Uiso   1.00
H309   H     0.22650   0.50475   0.11386   0.00000  Uiso   1.00
H310   H     0.21650   0.40630   0.40067   0.00000  Uiso   1.00
H311   H     0.07654   0.59362   0.16475   0.00000  Uiso   1.00
H312   H     0.00005   0.41369   0.01626   0.00000  Uiso   1.00
H313   H     0.25093   0.62422   0.48391   0.00000  Uiso   1.00
H314   H     0.10049   0.40760   0.15819   0.00000  Uiso   1.00
H315   H     0.26409   0.59535   0.14664   0.00000  Uiso   1.00
H316   H     0.25003   0.37000   0.29573   0.00000  Uiso   1.00
N317   N     0.16667   0.61907   0.25000   0.00000  Uiso   1.00
N318   N     0.16667   0.38093   0.25000   0.00000  Uiso   1.00
O319   O     0.10559   0.53821   0.24999   0.00000  Uiso   1.00
O320   O     0.27943   0.46197   0.42527   0.00000  Uiso   1.00
O321   O     0.22907   0.41929   0.37356   0.00000  Uiso   1.00
O322   O     0.06029   0.56675   0.07758   0.00000  Uiso   1.00
O323   O     0.05194   0.51236   0.13864   0.00000  Uiso   1.00
O324   O     0.10108   0.57951   0.15095   0.00000  Uiso   1.00
O325   O     0.05749   0.43508   0.08217   0.00000  Uiso   1.00
O326   O     0.01175   0.49523   0.05240   0.00000  Uiso   1.00
O327   O     0.02567   0.42505   0.00295   0.00000  Uiso   1.00
O328   O     0.31588   0.53698   0.46138   0.00000  Uiso   1.00
O329   O     0.26611   0.57314   0.40931   0.00000  Uiso   1.00
O330   O     0.22774   0.46179   0.25000   0.00000  Uiso   1.00
O331   O     0.27846   0.60959   0.48725   0.00000  Uiso   1.00
O332   O     0.06685   0.38068   0.23271   0.00000  Uiso   1.00
O333   O     0.01712   0.39102   0.17051   0.00000  Uiso   1.00
O334   O     0.08515   0.43473   0.16854   0.00000  Uiso   1.00
O335   O     0.26855   0.61745   0.24407   0.00000  Uiso   1.00
O336   O     0.32752   0.61468   0.19411   0.00000  Uiso   1.00
O337   O     0.26183   0.57146   0.16982   0.00000  Uiso   1.00
O338   O     0.26875   0.38689   0.20994   0.00000  Uiso   1.00
O339   O     0.32597   0.36571   0.26028   0.00000  Uiso   1.00
O340   O     0.26249   0.40042   0.29567   0.00000  Uiso   1.00
O341   O     0.22774   0.53821   0.25000   0.00000  Uiso   1.00
O342   O     0.06062   0.61712   0.26020   0.00000  Uiso   1.00
O343   O     0.00164   0.60841   0.30942   0.00000  Uiso   1.00
O344   O     0.06871   0.56385   0.32960   0.00000  Uiso   1.00
O345   O     0.10559   0.46179   0.24999   0.00000  Uiso   1.00
O346   O     0.16666   0.53823   0.18392   0.00000  Uiso   1.00
O347   O     0.16667   0.46177   0.31607   0.00000  Uiso   1.00
O348   O     0.16667   0.53823   0.31607   0.00000  Uiso   1.00
O349   O     0.16666   0.46177   0.18392   0.00000  Uiso   1.00
O350   O     0.26509   0.49356   0.35030   0.00000  Uiso   1.00
S351   S     0.24674   0.46997   0.38975   0.00000  Uiso   1.00
S352   S     0.08231   0.54116   0.11471   0.00000  Uiso   1.00
S353   S     0.04486   0.46147   0.04101   0.00000  Uiso   1.00
S354   S     0.27511   0.56137   0.45763   0.00000  Uiso   1.00
S355   S     0.04763   0.41452   0.20062   0.00000  Uiso   1.00
S356   S     0.29255   0.58796   0.21261   0.00000  Uiso   1.00
S357   S     0.29302   0.40069   0.25091   0.00000  Uiso   1.00
S358   S     0.03748   0.58423   0.28847   0.00000  Uiso   1.00
Zn359  Zn    0.16667   0.55104   0.25000   0.00000  Uiso   1.00
Zn360  Zn    0.16667   0.44896   0.25000   0.00000  Uiso   1.00
C361   C     0.41999   0.50004   0.24908   0.00000  Uiso   1.00
C362   C     0.37593   0.49930   0.24539   0.00000  Uiso   1.00
C363   C     0.48789   0.35734   0.28689   0.00000  Uiso   1.00
C364   C     0.51105   0.64276   0.21273   0.00000  Uiso   1.00
C365   C     0.51116   0.35713   0.21277   0.00000  Uiso   1.00
C366   C     0.48812   0.64290   0.28698   0.00000  Uiso   1.00
C367   C     0.49601   0.50037   0.16363   0.00000  Uiso   1.00
C368   C     0.50103   0.49997   0.33659   0.00000  Uiso   1.00
C369   C     0.53729   0.50165   0.40972   0.00000  Uiso   1.00
C370   C     0.45623   0.50726   0.09169   0.00000  Uiso   1.00
C371   C     0.50048   0.50055   0.38449   0.00000  Uiso   1.00
C372   C     0.58012   0.49936   0.24764   0.00000  Uiso   1.00
C373   C     0.49392   0.50187   0.11569   0.00000  Uiso   1.00
C374   C     0.46232   0.50123   0.40466   0.00000  Uiso   1.00
C375   C     0.53135   0.50467   0.09423   0.00000  Uiso   1.00
C376   C     0.46029   0.50106   0.45104   0.00000  Uiso   1.00
C377   C     0.53191   0.51106   0.04836   0.00000  Uiso   1.00
C378   C     0.49670   0.50692   0.47657   0.00000  Uiso   1.00
C379   C     0.49505   0.50627   0.02325   0.00000  Uiso   1.00
C380   C     0.53499   0.51258   0.45531   0.00000  Uiso   1.00
C381   C     0.45688   0.50048   0.04490   0.00000  Uiso   1.00
C382   C     0.42294   0.49301   0.47193   0.00000  Uiso   1.00
C383   C     0.42130   0.48968   0.01866   0.00000  Uiso   1.00
C384   C     0.56824   0.52375   0.02749   0.00000  Uiso   1.00
C385   C     0.56929   0.52749   0.48088   0.00000  Uiso   1.00
C386   C     0.35586   0.45898   0.23172   0.00000  Uiso   1.00
C387   C     0.64544   0.53912   0.24139   0.00000  Uiso   1.00
C388   C     0.64735   0.45590   0.24114   0.00000  Uiso   1.00
C389   C     0.35280   0.53869   0.25468   0.00000  Uiso   1.00
C390   C     0.62446   0.49768   0.24298   0.00000  Uiso   1.00
F391   F     0.38865   0.48526   0.44643   0.00000  Uiso   1.00
F392   F     0.60154   0.53585   0.05272   0.00000  Uiso   1.00
F393   F     0.47465   0.37963   0.32367   0.00000  Uiso   1.00
F394   F     0.52200   0.62072   0.17499   0.00000  Uiso   1.00
F395   F     0.52245   0.37909   0.17512   0.00000  Uiso   1.00
F396   F     0.47567   0.62093   0.32413   0.00000  Uiso   1.00
H397   H     0.43458   0.49873   0.38406   0.00000  Uiso   1.00
H398   H     0.40292   0.58798   0.35258   0.00000  Uiso   1.00
H399   H     0.55984   0.50475   0.11386   0.00000  Uiso   1.00
H400   H     0.54983   0.40630   0.40067   0.00000  Uiso   1.00
H401   H     0.40988   0.59362   0.16475   0.00000  Uiso   1.00
H402   H     0.33338   0.41369   0.01626   0.00000  Uiso   1.00
H403   H     0.58427   0.62422   0.48391   0.00000  Uiso   1.00
H404   H     0.43382   0.40760   0.15819   0.00000  Uiso   1.00
H405   H     0.59742   0.59535   0.14664   0.00000  Uiso   1.00
H406   H     0.58336   0.37000   0.29573   0.00000  Uiso   1.00
N407   N     0.50000   0.61907   0.25000   0.00000  Uiso   1.00
N408   N     0.50000   0.38093   0.25000   0.00000  Uiso   1.00
O409   O     0.43892   0.53821   0.24999   0.00000  Uiso   1.00
O410   O     0.61277   0.46197   0.42527   0.00000  Uiso   1.00
O411   O     0.56241   0.41929   0.37356   0.00000  Uiso   1.00
O412   O     0.39362   0.56675   0.07758   0.00000  Uiso   1.00
O413   O     0.38527   0.51236   0.13864   0.00000  Uiso   1.00
O414   O     0.43441   0.57951   0.15095   0.00000  Uiso   1.00
O415   O     0.39082   0.43508   0.08217   0.00000  Uiso   1.00
O416   O     0.34509   0.49523   0.05240   0.00000  Uiso   1.00
O417   O     0.35901   0.42505   0.00295   0.00000  Uiso   1.00
O418   O     0.64921   0.53698   0.46138   0.00000  Uiso   1.00
O419   O     0.59944   0.57314   0.40931   0.00000  Uiso   1.00
O420   O     0.56108   0.46179   0.25000   0.00000  Uiso   1.00
O421   O     0.61179   0.60959   0.48725   0.00000  Uiso   1.00
O422   O     0.40018   0.38068   0.23271   0.00000  Uiso   1.00
O423   O     0.35045   0.39102   0.17051   0.00000  Uiso   1.00
O424   O     0.41848   0.43473   0.16854   0.00000  Uiso   1.00
O425   O     0.60188   0.61745   0.24407   0.00000  Uiso   1.00
O426   O     0.66085   0.61468   0.19411   0.00000  Uiso   1.00
O427   O     0.59516   0.57146   0.16982   0.00000  Uiso   1.00
O428   O     0.60209   0.38689   0.20994   0.00000  Uiso   1.00
O429   O     0.65931   0.36571   0.26028   0.00000  Uiso   1.00
O430   O     0.59582   0.40042   0.29567   0.00000  Uiso   1.00
O431   O     0.56108   0.53821   0.25000   0.00000  Uiso   1.00
O432   O     0.39396   0.61712   0.26020   0.00000  Uiso   1.00
O433   O     0.33497   0.60841   0.30942   0.00000  Uiso   1.00
O434   O     0.40204   0.56385   0.32960   0.00000  Uiso   1.00
O435   O     0.43892   0.46179   0.24999   0.00000  Uiso   1.00
O436   O     0.49999   0.53823   0.18392   0.00000  Uiso   1.00
O437   O     0.50001   0.46177   0.31607   0.00000  Uiso   1.00
O438   O     0.50001   0.53823   0.31607   0.00000  Uiso   1.00
O439   O     0.49999   0.46177   0.18392   0.00000  Uiso   1.00
O440   O     0.59843   0.49356   0.35030   0.00000  Uiso   1.00
S441   S     0.58007   0.46997   0.38975   0.00000  Uiso   1.00
S442   S     0.41565   0.54116   0.11471   0.00000  Uiso   1.00
S443   S     0.37820   0.46147   0.04101   0.00000  Uiso   1.00
S444   S     0.60844   0.56137   0.45763   0.00000  Uiso   1.00
S445   S     0.38096   0.41452   0.20062   0.00000  Uiso   1.00
S446   S     0.62588   0.58796   0.21261   0.00000  Uiso   1.00
S447   S     0.62635   0.40069   0.25091   0.00000  Uiso   1.00
S448   S     0.37082   0.58423   0.28847   0.00000  Uiso   1.00
Zn449  Zn    0.50000   0.55104   0.25000   0.00000  Uiso   1.00
Zn450  Zn    0.50000   0.44896   0.25000   0.00000  Uiso   1.00
C451   C     0.75332   0.50004   0.24908   0.00000  Uiso   1.00
C452   C     0.70926   0.49930   0.24539   0.00000  Uiso   1.00
C453   C     0.82122   0.35734   0.28689   0.00000  Uiso   1.00
C454   C     0.84438   0.64276   0.21273   0.00000  Uiso   1.00
C455   C     0.84449   0.35713   0.21277   0.00000  Uiso   1.00
C456   C     0.82145   0.64290   0.28698   0.00000  Uiso   1.00
C457   C     0.82934   0.50037   0.16363   0.00000  Uiso   1.00
C458   C     0.83437   0.49997   0.33659   0.00000  Uiso   1.00
C459   C     0.87062   0.50165   0.40972   0.00000  Uiso   1.00
C460   C     0.78956   0.50726   0.09169   0.00000  Uiso   1.00
C461   C     0.83382   0.50055   0.38449   0.00000  Uiso   1.00
C462   C     0.91345   0.49936   0.24764   0.00000  Uiso   1.00
C463   C     0.82725   0.50187   0.11569   0.00000  Uiso   1.00
C464   C     0.79565   0.50123   0.40466   0.00000  Uiso   1.00
C465   C     0.86469   0.50467   0.09423   0.00000  Uiso   1.00
C466   C     0.79363   0.50106   0.45104   0.00000  Uiso   1.00
C467   C     0.86524   0.51106   0.04836   0.00000  Uiso   1.00
C468   C     0.83003   0.50692   0.47657   0.00000  Uiso   1.00
C469   C     0.82839   0.50627   0.02325   0.00000  Uiso   1.00
C470   C     0.86832   0.51258   0.45531   0.00000  Uiso   1.00
C471   C     0.79022   0.50048   0.04490   0.00000  Uiso   1.00
C472   C     0.75627   0.49301   0.47193   0.00000  Uiso   1.00
C473   C     0.75463   0.48968   0.01866   0.00000  Uiso   1.00
C474   C     0.90157   0.52375   0.02749   0.00000  Uiso   1.00
C475   C     0.90262   0.52749   0.48088   0.00000  Uiso   1.00
C476   C     0.68920   0.45898   0.23172   0.00000  Uiso   1.00
C477   C     0.97877   0.53912   0.24139   0.00000  Uiso   1.00
C478   C     0.98068   0.45590   0.24114   0.00000  Uiso   1.00
C479   C     0.68614   0.53869   0.25468   0.00000  Uiso   1.00
C480   C     0.95779   0.49768   0.24298   0.00000  Uiso   1.00
F481   F     0.72198   0.48526   0.44643   0.00000  Uiso   1.00
F482   F     0.93487   0.53585   0.05272   0.00000  Uiso   1.00
F483   F     0.80798   0.37963   0.32367   0.00000  Uiso   1.00
F484   F     0.85534   0.62072   0.17499   0.00000  Uiso   1.00
F485   F     0.85579   0.37909   0.17512   0.00000  Uiso   1.00
F486   F     0.80900   0.62093   0.32413   0.00000  Uiso   1.00
H487   H     0.76791   0.49873   0.38406   0.00000  Uiso   1.00
H488   H     0.73626   0.58798   0.35258   0.00000  Uiso   1.00
H489   H     0.89317   0.50475   0.11386   0.00000  Uiso   1.00
H490   H     0.88317   0.40630   0.40067   0.00000  Uiso   1.00
H491   H     0.74321   0.59362   0.16475   0.00000  Uiso   1.00
H492   H     0.66671   0.41369   0.01626   0.00000  Uiso   1.00
H493   H     0.91760   0.62422   0.48391   0.00000  Uiso   1.00
H494   H     0.76716   0.40760   0.15819   0.00000  Uiso   1.00
H495   H     0.93075   0.59535   0.14664   0.00000  Uiso   1.00
H496   H     0.91670   0.37000   0.29573   0.00000  Uiso   1.00
N497   N     0.83333   0.61907   0.25000   0.00000  Uiso   1.00
N498   N     0.83333   0.38093   0.25000   0.00000  Uiso   1.00
O499   O     0.77226   0.53821   0.24999   0.00000  Uiso   1.00
O500   O     0.94610   0.46197   0.42527   0.00000  Uiso   1.00
O501   O     0.89574   0.41929   0.37356   0.00000  Uiso   1.00
O502   O     0.72695   0.56675   0.07758   0.00000  Uiso   1.00
O503   O     0.71861   0.51236   0.13864   0.00000  Uiso   1.00
O504   O     0.76774   0.57951   0.15095   0.00000  Uiso   1.00
O505   O     0.72416   0.43508   0.08217   0.00000  Uiso   1.00
O506   O     0.67842   0.49523   0.05240   0.00000  Uiso   1.00
O507   O     0.69234   0.42505   0.00295   0.00000  Uiso   1.00
O508   O     0.98255   0.53698   0.46138   0.00000  Uiso   1.00
O509   O     0.93277   0.57314   0.40931   0.00000  Uiso   1.00
O510   O     0.89441   0.46179   0.25000   0.00000  Uiso   1.00
O511   O     0.94512   0.60959   0.48725   0.00000  Uiso   1.00
O512   O     0.73351   0.38068   0.23271   0.00000  Uiso   1.00
O513   O     0.68379   0.39102   0.17051   0.00000  Uiso   1.00
O514   O     0.75181   0.43473   0.16854   0.00000  Uiso   1.00
O515   O     0.93522   0.61745   0.24407   0.00000  Uiso   1.00
O516   O     0.99419   0.61468   0.19411   0.00000  Uiso   1.00
O517   O     0.92850   0.57146   0.16982   0.00000  Uiso   1.00
O518   O     0.93542   0.38689   0.20994   0.00000  Uiso   1.00
O519   O     0.99264   0.36571   0.26028   0.00000  Uiso   1.00
O520   O     0.92915   0.40042   0.29567   0.00000  Uiso   1.00
O521   O     0.89441   0.53821   0.25000   0.00000  Uiso   1.00
O522   O     0.72729   0.61712   0.26020   0.00000  Uiso   1.00
O523   O     0.66831   0.60841   0.30942   0.00000  Uiso   1.00
O524   O     0.73537   0.56385   0.32960   0.00000  Uiso   1.00
O525   O     0.77226   0.46179   0.24999   0.00000  Uiso   1.00
O526   O     0.83333   0.53823   0.18392   0.00000  Uiso   1.00
O527   O     0.83334   0.46177   0.31607   0.00000  Uiso   1.00
O528   O     0.83334   0.53823   0.31607   0.00000  Uiso   1.00
O529   O     0.83333   0.46177   0.18392   0.00000  Uiso   1.00
O530   O     0.93176   0.49356   0.35030   0.00000  Uiso   1.00
S531   S     0.91340   0.46997   0.38975   0.00000  Uiso   1.00
S532   S     0.74898   0.54116   0.11471   0.00000  Uiso   1.00
S533   S     0.71153   0.46147   0.04101   0.00000  Uiso   1.00
S534   S     0.94178   0.56137   0.45763   0.00000  Uiso   1.00
S535   S     0.71429   0.41452   0.20062   0.00000  Uiso   1.00
S536   S     0.95921   0.58796   0.21261   0.00000  Uiso   1.00
S537   S     0.95969   0.40069   0.25091   0.00000  Uiso   1.00
S538   S     0.70415   0.58423   0.28847   0.00000  Uiso   1.00
Zn539  Zn    0.83333   0.55104   0.25000   0.00000  Uiso   1.00
Zn540  Zn    0.83333   0.44896   0.25000   0.00000  Uiso   1.00
C541   C     0.08665   0.83337   0.24908   0.00000  Uiso   1.00
C542   C     0.04260   0.83263   0.24539   0.00000  Uiso   1.00
C543   C     0.15455   0.69068   0.28689   0.00000  Uiso   1.00
C544   C     0.17772   0.97609   0.21273   0.00000  Uiso   1.00
C545   C     0.17783   0.69047   0.21277   0.00000  Uiso   1.00
C546   C     0.15479   0.97623   0.28698   0.00000  Uiso   1.00
C547   C     0.16268   0.83371   0.16363   0.00000  Uiso   1.00
C548   C     0.16770   0.83330   0.33659   0.00000  Uiso   1.00
C549   C     0.20395   0.83499   0.40972   0.00000  Uiso   1.00
C550   C     0.12289   0.84060   0.09169   0.00000  Uiso   1.00
C551   C     0.16715   0.83388   0.38449   0.00000  Uiso   1.00
C552   C     0.24679   0.83270   0.24764   0.00000  Uiso   1.00
C553   C     0.16058   0.83521   0.11569   0.00000  Uiso   1.00
C554   C     0.12898   0.83456   0.40466   0.00000  Uiso   1.00
C555   C     0.19802   0.83800   0.09423   0.00000  Uiso   1.00
C556   C     0.12696   0.83440   0.45104   0.00000  Uiso   1.00
C557   C     0.19858   0.84440   0.04836   0.00000  Uiso   1.00
C558   C     0.16336   0.84026   0.47657   0.00000  Uiso   1.00
C559   C     0.16172   0.83961   0.02325   0.00000  Uiso   1.00
C560   C     0.20166   0.84592   0.45531   0.00000  Uiso   1.00
C561   C     0.12355   0.83382   0.04490   0.00000  Uiso   1.00
C562   C     0.08961   0.82634   0.47193   0.00000  Uiso   1.00
C563   C     0.08797   0.82301   0.01866   0.00000  Uiso   1.00
C564   C     0.23491   0.85708   0.02749   0.00000  Uiso   1.00
C565   C     0.23595   0.86082   0.48088   0.00000  Uiso   1.00
C566   C     0.02253   0.79231   0.23172   0.00000  Uiso   1.00
C567   C     0.31210   0.87245   0.24139   0.00000  Uiso   1.00
C568   C     0.31401   0.78923   0.24114   0.00000  Uiso   1.00
C569   C     0.01947   0.87203   0.25468   0.00000  Uiso   1.00
C570   C     0.29112   0.83101   0.24298   0.00000  Uiso   1.00
F571   F     0.05531   0.81859   0.44643   0.00000  Uiso   1.00
F572   F     0.26821   0.86918   0.05272   0.00000  Uiso   1.00
F573   F     0.14132   0.71296   0.32367   0.00000  Uiso   1.00
F574   F     0.18867   0.95406   0.17499   0.00000  Uiso   1.00
F575   F     0.18912   0.71242   0.17512   0.00000  Uiso   1.00
F576   F     0.14233   0.95426   0.32413   0.00000  Uiso   1.00
H577   H     0.10124   0.83206   0.38406   0.00000  Uiso   1.00
H578   H     0.06959   0.92132   0.35258   0.00000  Uiso   1.00
H579   H     0.22650   0.83808   0.11386   0.00000  Uiso   1.00
H580   H     0.21650   0.73963   0.40067   0.00000  Uiso   1.00
H581   H     0.07654   0.92695   0.16475   0.00000  Uiso   1.00
H582   H     0.00005   0.74703   0.01626   0.00000  Uiso   1.00
H583   H     0.25093   0.95756   0.48391   0.00000  Uiso   1.00
H584   H     0.10049   0.74094   0.15819   0.00000  Uiso   1.00
H585   H     0.26409   0.92868   0.14664   0.00000  Uiso   1.00
H586   H     0.25003   0.70333   0.29573   0.00000  Uiso   1.00
N587   N     0.16667   0.95240   0.25000   0.00000  Uiso   1.00
N588   N     0.16667   0.71427   0.25000   0.00000  Uiso   1.00
O589   O     0.10559   0.87154   0.24999   0.00000  Uiso   1.00
O590   O     0.27943   0.79531   0.42527   0.00000  Uiso   1.00
O591   O     0.22907   0.75262   0.37356   0.00000  Uiso   1.00
O592   O     0.06029   0.90009   0.07758   0.00000  Uiso   1.00
O593   O     0.05194   0.84570   0.13864   0.00000  Uiso   1.00
O594   O     0.10108   0.91285   0.15095   0.00000  Uiso   1.00
O595   O     0.05749   0.76842   0.08217   0.00000  Uiso   1.00
O596   O     0.01175   0.82856   0.05240   0.00000  Uiso   1.00
O597   O     0.02567   0.75839   0.00295   0.00000  Uiso   1.00
O598   O     0.31588   0.87031   0.46138   0.00000  Uiso   1.00
O599   O     0.26611   0.90647   0.40931   0.00000  Uiso   1.00
O600   O     0.22774   0.79513   0.25000   0.00000  Uiso   1.00
O601   O     0.27846   0.94293   0.48725   0.00000  Uiso   1.00
O602   O     0.06685   0.71402   0.23271   0.00000  Uiso   1.00
O603   O     0.01712   0.72435   0.17051   0.00000  Uiso   1.00
O604   O     0.08515   0.76806   0.16854   0.00000  Uiso   1.00
O605   O     0.26855   0.95079   0.24407   0.00000  Uiso   1.00
O606   O     0.32752   0.94802   0.19411   0.00000  Uiso   1.00
O607   O     0.26183   0.90479   0.16982   0.00000  Uiso   1.00
O608   O     0.26875   0.72023   0.20994   0.00000  Uiso   1.00
O609   O     0.32597   0.69905   0.26028   0.00000  Uiso   1.00
O610   O     0.26249   0.73376   0.29567   0.00000  Uiso   1.00
O611   O     0.22774   0.87154   0.25000   0.00000  Uiso   1.00
O612   O     0.06062   0.95046   0.26020   0.00000  Uiso   1.00
O613   O     0.00164   0.94175   0.30942   0.00000  Uiso   1.00
O614   O     0.06871   0.89718   0.32960   0.00000  Uiso   1.00
O615   O     0.10559   0.79513   0.24999   0.00000  Uiso   1.00
O616   O     0.16666   0.87156   0.18392   0.00000  Uiso   1.00
O617   O     0.16667   0.79511   0.31607   0.00000  Uiso   1.00
O618   O     0.16667   0.87156   0.31607   0.00000  Uiso   1.00
O619   O     0.16666   0.79511   0.18392   0.00000  Uiso   1.00
O620   O     0.26509   0.82689   0.35030   0.00000  Uiso   1.00
S621   S     0.24674   0.80330   0.38975   0.00000  Uiso   1.00
S622   S     0.08231   0.87450   0.11471   0.00000  Uiso   1.00
S623   S     0.04486   0.79480   0.04101   0.00000  Uiso   1.00
S624   S     0.27511   0.89470   0.45763   0.00000  Uiso   1.00
S625   S     0.04763   0.74785   0.20062   0.00000  Uiso   1.00
S626   S     0.29255   0.92130   0.21261   0.00000  Uiso   1.00
S627   S     0.29302   0.73402   0.25091   0.00000  Uiso   1.00
S628   S     0.03748   0.91757   0.28847   0.00000  Uiso   1.00
Zn629  Zn    0.16667   0.88437   0.25000   0.00000  Uiso   1.00
Zn630  Zn    0.16667   0.78229   0.25000   0.00000  Uiso   1.00
C631   C     0.41999   0.83337   0.24908   0.00000  Uiso   1.00
C632   C     0.37593   0.83263   0.24539   0.00000  Uiso   1.00
C633   C     0.48789   0.69068   0.28689   0.00000  Uiso   1.00
C634   C     0.51105   0.97609   0.21273   0.00000  Uiso   1.00
C635   C     0.51116   0.69047   0.21277   0.00000  Uiso   1.00
C636   C     0.48812   0.97623   0.28698   0.00000  Uiso   1.00
C637   C     0.49601   0.83371   0.16363   0.00000  Uiso   1.00
C638   C     0.50103   0.83330   0.33659   0.00000  Uiso   1.00
C639   C     0.53729   0.83499   0.40972   0.00000  Uiso   1.00
C640   C     0.45623   0.84060   0.09169   0.00000  Uiso   1.00
C641   C     0.50048   0.83388   0.38449   0.00000  Uiso   1.00
C642   C     0.58012   0.83270   0.24764   0.00000  Uiso   1.00
C643   C     0.49392   0.83521   0.11569   0.00000  Uiso   1.00
C644   C     0.46232   0.83456   0.40466   0.00000  Uiso   1.00
C645   C     0.53135   0.83800   0.09423   0.00000  Uiso   1.00
C646   C     0.46029   0.83440   0.45104   0.00000  Uiso   1.00
C647   C     0.53191   0.84440   0.04836   0.00000  Uiso   1.00
C648   C     0.49670   0.84026   0.47657   0.00000  Uiso   1.00
C649   C     0.49505   0.83961   0.02325   0.00000  Uiso   1.00
C650   C     0.53499   0.84592   0.45531   0.00000  Uiso   1.00
C651   C     0.45688   0.83382   0.04490   0.00000  Uiso   1.00
C652   C     0.42294   0.82634   0.47193   0.00000  Uiso   1.00
C653   C     0.42130   0.82301   0.01866   0.00000  Uiso   1.00
C654   C     0.56824   0.85708   0.02749   0.00000  Uiso   1.00
C655   C     0.56929   0.86082   0.48088   0.00000  Uiso   1.00
C656   C     0.35586   0.79231   0.23172   0.00000  Uiso   1.00
C657   C     0.64544   0.87245   0.24139   0.00000  Uiso   1.00
C658   C     0.64735   0.78923   0.24114   0.00000  Uiso   1.00
C659   C     0.35280   0.87203   0.25468   0.00000  Uiso   1.00
C660   C     0.62446   0.83101   0.24298   0.00000  Uiso   1.00
F661   F     0.38865   0.81859   0.44643   0.00000  Uiso   1.00
F662   F     0.60154   0.86918   0.05272   0.00000  Uiso   1.00
F663   F     0.47465   0.71296   0.32367   0.00000  Uiso   1.00
F664   F     0.52200   0.95406   0.17499   0.00000  Uiso   1.00
F665   F     0.52245   0.71242   0.17512   0.00000  Uiso   1.00
F666   F     0.47567   0.95426   0.32413   0.00000  Uiso   1.00
H667   H     0.43458   0.83206   0.38406   0.00000  Uiso   1.00
H668   H     0.40292   0.92132   0.35258   0.00000  Uiso   1.00
H669   H     0.55984   0.83808   0.11386   0.00000  Uiso   1.00
H670   H     0.54983   0.73963   0.40067   0.00000  Uiso   1.00
H671   H     0.40988   0.92695   0.16475   0.00000  Uiso   1.00
H672   H     0.33338   0.74703   0.01626   0.00000  Uiso   1.00
H673   H     0.58427   0.95756   0.48391   0.00000  Uiso   1.00
H674   H     0.43382   0.74094   0.15819   0.00000  Uiso   1.00
H675   H     0.59742   0.92868   0.14664   0.00000  Uiso   1.00
H676   H     0.58336   0.70333   0.29573   0.00000  Uiso   1.00
N677   N     0.50000   0.95240   0.25000   0.00000  Uiso   1.00
N678   N     0.50000   0.71427   0.25000   0.00000  Uiso   1.00
O679   O     0.43892   0.87154   0.24999   0.00000  Uiso   1.00
O680   O     0.61277   0.79531   0.42527   0.00000  Uiso   1.00
O681   O     0.56241   0.75262   0.37356   0.00000  Uiso   1.00
O682   O     0.39362   0.90009   0.07758   0.00000  Uiso   1.00
O683   O     0.38527   0.84570   0.13864   0.00000  Uiso   1.00
O684   O     0.43441   0.91285   0.15095   0.00000  Uiso   1.00
O685   O     0.39082   0.76842   0.08217   0.00000  Uiso   1.00
O686   O     0.34509   0.82856   0.05240   0.00000  Uiso   1.00
O687   O     0.35901   0.75839   0.00295   0.00000  Uiso   1.00
O688   O     0.64921   0.87031   0.46138   0.00000  Uiso   1.00
O689   O     0.59944   0.90647   0.40931   0.00000  Uiso   1.00
O690   O     0.56108   0.79513   0.25000   0.00000  Uiso   1.00
O691   O     0.61179   0.94293   0.48725   0.00000  Uiso   1.00
O692   O     0.40018   0.71402   0.23271   0.00000  Uiso   1.00
O693   O     0.35045   0.72435   0.17051   0.00000  Uiso   1.00
O694   O     0.41848   0.76806   0.16854   0.00000  Uiso   1.00
O695   O     0.60188   0.95079   0.24407   0.00000  Uiso   1.00
O696   O     0.66085   0.94802   0.19411   0.00000  Uiso   1.00
O697   O     0.59516   0.90479   0.16982   0.00000  Uiso   1.00
O698   O     0.60209   0.72023   0.20994   0.00000  Uiso   1.00
O699   O     0.65931   0.69905   0.26028   0.00000  Uiso   1.00
O700   O     0.59582   0.73376   0.29567   0.00000  Uiso   1.00
O701   O     0.56108   0.87154   0.25000   0.00000  Uiso   1.00
O702   O     0.39396   0.95046   0.26020   0.00000  Uiso   1.00
O703   O     0.33497   0.94175   0.30942   0.00000  Uiso   1.00
O704   O     0.40204   0.89718   0.32960   0.00000  Uiso   1.00
O705   O     0.43892   0.79513   0.24999   0.00000  Uiso   1.00
O706   O     0.49999   0.87156   0.18392   0.00000  Uiso   1.00
O707   O     0.50001   0.79511   0.31607   0.00000  Uiso   1.00
O708   O     0.50001   0.87156   0.31607   0.00000  Uiso   1.00
O709   O     0.49999   0.79511   0.18392   0.00000  Uiso   1.00
O710   O     0.59843   0.82689   0.35030   0.00000  Uiso   1.00
S711   S     0.58007   0.80330   0.38975   0.00000  Uiso   1.00
S712   S     0.41565   0.87450   0.11471   0.00000  Uiso   1.00
S713   S     0.37820   0.79480   0.04101   0.00000  Uiso   1.00
S714   S     0.60844   0.89470   0.45763   0.00000  Uiso   1.00
S715   S     0.38096   0.74785   0.20062   0.00000  Uiso   1.00
S716   S     0.62588   0.92130   0.21261   0.00000  Uiso   1.00
S717   S     0.62635   0.73402   0.25091   0.00000  Uiso   1.00
S718   S     0.37082   0.91757   0.28847   0.00000  Uiso   1.00
Zn719  Zn    0.50000   0.88437   0.25000   0.00000  Uiso   1.00
Zn720  Zn    0.50000   0.78229   0.25000   0.00000  Uiso   1.00
C721   C     0.75332   0.83337   0.24908   0.00000  Uiso   1.00
C722   C     0.70926   0.83263   0.24539   0.00000  Uiso   1.00
C723   C     0.82122   0.69068   0.28689   0.00000  Uiso   1.00
C724   C     0.84438   0.97609   0.21273   0.00000  Uiso   1.00
C725   C     0.84449   0.69047   0.21277   0.00000  Uiso   1.00
C726   C     0.82145   0.97623   0.28698   0.00000  Uiso   1.00
C727   C     0.82934   0.83371   0.16363   0.00000  Uiso   1.00
C728   C     0.83437   0.83330   0.33659   0.00000  Uiso   1.00
C729   C     0.87062   0.83499   0.40972   0.00000  Uiso   1.00
C730   C     0.78956   0.84060   0.09169   0.00000  Uiso   1.00
C731   C     0.83382   0.83388   0.38449   0.00000  Uiso   1.00
C732   C     0.91345   0.83270   0.24764   0.00000  Uiso   1.00
C733   C     0.82725   0.83521   0.11569   0.00000  Uiso   1.00
C734   C     0.79565   0.83456   0.40466   0.00000  Uiso   1.00
C735   C     0.86469   0.83800   0.09423   0.00000  Uiso   1.00
C736   C     0.79363   0.83440   0.45104   0.00000  Uiso   1.00
C737   C     0.86524   0.84440   0.04836   0.00000  Uiso   1.00
C738   C     0.83003   0.84026   0.47657   0.00000  Uiso   1.00
C739   C     0.82839   0.83961   0.02325   0.00000  Uiso   1.00
C740   C     0.86832   0.84592   0.45531   0.00000  Uiso   1.00
C741   C     0.79022   0.83382   0.04490   0.00000  Uiso   1.00
C742   C     0.75627   0.82634   0.47193   0.00000  Uiso   1.00
C743   C     0.75463   0.82301   0.01866   0.00000  Uiso   1.00
C744   C     0.90157   0.85708   0.02749   0.00000  Uiso   1.00
C745   C     0.90262   0.86082   0.48088   0.00000  Uiso   1.00
C746   C     0.68920   0.79231   0.23172   0.00000  Uiso   1.00
C747   C     0.97877   0.87245   0.24139   0.00000  Uiso   1.00
C748   C     0.98068   0.78923   0.24114   0.00000  Uiso   1.00
C749   C     0.68614   0.87203   0.25468   0.00000  Uiso   1.00
C750   C     0.95779   0.83101   0.24298   0.00000  Uiso   1.00
F751   F     0.72198   0.81859   0.44643   0.00000  Uiso   1.00
F752   F     0.93487   0.86918   0.05272   0.00000  Uiso   1.00
F753   F     0.80798   0.71296   0.32367   0.00000  Uiso   1.00
F754   F     0.85534   0.95406   0.17499   0.00000  Uiso   1.00
F755   F     0.85579   0.71242   0.17512   0.00000  Uiso   1.00
F756   F     0.80900   0.95426   0.32413   0.00000  Uiso   1.00
H757   H     0.76791   0.83206   0.38406   0.00000  Uiso   1.00
H758   H     0.73626   0.92132   0.35258   0.00000  Uiso   1.00
H759   H     0.89317   0.83808   0.11386   0.00000  Uiso   1.00
H760   H     0.88317   0.73963   0.40067   0.00000  Uiso   1.00
H761   H     0.74321   0.92695   0.16475   0.00000  Uiso   1.00
H762   H     0.66671   0.74703   0.01626   0.00000  Uiso   1.00
H763   H     0.91760   0.95756   0.48391   0.00000  Uiso   1.00
H764   H     0.76716   0.74094   0.15819   0.00000  Uiso   1.00
H765   H     0.93075   0.92868   0.14664   0.00000  Uiso   1.00
H766   H     0.91670   0.70333   0.29573   0.00000  Uiso   1.00
N767   N     0.83333   0.95240   0.25000   0.00000  Uiso   1.00
N768   N     0.83333   0.71427   0.25000   0.00000  Uiso   1.00
O769   O     0.77226   0.87154   0.24999   0.00000  Uiso   1.00
O770   O     0.94610   0.79531   0.42527   0.00000  Uiso   1.00
O771   O     0.89574   0.75262   0.37356   0.00000  Uiso   1.00
O772   O     0.72695   0.90009   0.07758   0.00000  Uiso   1.00
O773   O     0.71861   0.84570   0.13864   0.00000  Uiso   1.00
O774   O     0.76774   0.91285   0.15095   0.00000  Uiso   1.00
O775   O     0.72416   0.76842   0.08217   0.00000  Uiso   1.00
O776   O     0.67842   0.82856   0.05240   0.00000  Uiso   1.00
O777   O     0.69234   0.75839   0.00295   0.00000  Uiso   1.00
O778   O     0.98255   0.87031   0.46138   0.00000  Uiso   1.00
O779   O     0.93277   0.90647   0.40931   0.00000  Uiso   1.00
O780   O     0.89441   0.79513   0.25000   0.00000  Uiso   1.00
O781   O     0.94512   0.94293   0.48725   0.00000  Uiso   1.00
O782   O     0.73351   0.71402   0.23271   0.00000  Uiso   1.00
O783   O     0.68379   0.72435   0.17051   0.00000  Uiso   1.00
O784   O     0.75181   0.76806   0.16854   0.00000  Uiso   1.00
O785   O     0.93522   0.95079   0.24407   0.00000  Uiso   1.00
O786   O     0.99419   0.94802   0.19411   0.00000  Uiso   1.00
O787   O     0.92850   0.90479   0.16982   0.00000  Uiso   1.00
O788   O     0.93542   0.72023   0.20994   0.00000  Uiso   1.00
O789   O     0.99264   0.69905   0.26028   0.00000  Uiso   1.00
O790   O     0.92915   0.73376   0.29567   0.00000  Uiso   1.00
O791   O     0.89441   0.87154   0.25000   0.00000  Uiso   1.00
O792   O     0.72729   0.95046   0.26020   0.00000  Uiso   1.00
O793   O     0.66831   0.94175   0.30942   0.00000  Uiso   1.00
O794   O     0.73537   0.89718   0.32960   0.00000  Uiso   1.00
O795   O     0.77226   0.79513   0.24999   0.00000  Uiso   1.00
O796   O     0.83333   0.87156   0.18392   0.00000  Uiso   1.00
O797   O     0.83334   0.79511   0.31607   0.00000  Uiso   1.00
O798   O     0.83334   0.87156   0.31607   0.00000  Uiso   1.00
O799   O     0.83333   0.79511   0.18392   0.00000  Uiso   1.00
O800   O     0.93176   0.82689   0.35030   0.00000  Uiso   1.00
S801   S     0.91340   0.80330   0.38975   0.00000  Uiso   1.00
S802   S     0.74898   0.87450   0.11471   0.00000  Uiso   1.00
S803   S     0.71153   0.79480   0.04101   0.00000  Uiso   1.00
S804   S     0.94178   0.89470   0.45763   0.00000  Uiso   1.00
S805   S     0.71429   0.74785   0.20062   0.00000  Uiso   1.00
S806   S     0.95921   0.92130   0.21261   0.00000  Uiso   1.00
S807   S     0.95969   0.73402   0.25091   0.00000  Uiso   1.00
S808   S     0.70415   0.91757   0.28847   0.00000  Uiso   1.00
Zn809  Zn    0.83333   0.88437   0.25000   0.00000  Uiso   1.00
Zn810  Zn    0.83333   0.78229   0.25000   0.00000  Uiso   1.00
C811   C     0.08665   0.16671   0.74908   0.00000  Uiso   1.00
C812   C     0.04260   0.16597   0.74539   0.00000  Uiso   1.00
C813   C     0.15455   0.02401   0.78689   0.00000  Uiso   1.00
C814   C     0.17772   0.30942   0.71273   0.00000  Uiso   1.00
C815   C     0.17783   0.02380   0.71277   0.00000  Uiso   1.00
C816   C     0.15479   0.30956   0.78698   0.00000  Uiso   1.00
C817   C     0.16268   0.16704   0.66363   0.00000  Uiso   1.00
C818   C     0.16770   0.16663   0.83659   0.00000  Uiso   1.00
C819   C     0.20395   0.16832   0.90972   0.00000  Uiso   1.00
C820   C     0.12289   0.17393   0.59169   0.00000  Uiso   1.00
C821   C     0.16715   0.16722   0.88449   0.00000  Uiso   1.00
C822   C     0.24679   0.16603   0.74764   0.00000  Uiso   1.00
C823   C     0.16058   0.16854   0.61569   0.00000  Uiso   1.00
C824   C     0.12898   0.16789   0.90466   0.00000  Uiso   1.00
C825   C     0.19802   0.17133   0.59423   0.00000  Uiso   1.00
C826   C     0.12696   0.16773   0.95104   0.00000  Uiso   1.00
C827   C     0.19858   0.17773   0.54836   0.00000  Uiso   1.00
C828   C     0.16336   0.17359   0.97657   0.00000  Uiso   1.00
C829   C     0.16172   0.17294   0.52325   0.00000  Uiso   1.00
C830   C     0.20166   0.17925   0.95531   0.00000  Uiso   1.00
C831   C     0.12355   0.16715   0.54490   0.00000  Uiso   1.00
C832   C     0.08961   0.15968   0.97193   0.00000  Uiso   1.00
C833   C     0.08797   0.15635   0.51866   0.00000  Uiso   1.00
C834   C     0.23491   0.19041   0.52749   0.00000  Uiso   1.00
C835   C     0.23595   0.19415   0.98088   0.00000  Uiso   1.00
C836   C     0.02253   0.12564   0.73172   0.00000  Uiso   1.00
C837   C     0.31210   0.20578   0.74139   0.00000  Uiso   1.00
C838   C     0.31401   0.12257   0.74114   0.00000  Uiso   1.00
C839   C     0.01947   0.20536   0.75468   0.00000  Uiso   1.00
C840   C     0.29112   0.16435   0.74298   0.00000  Uiso   1.00
F841   F     0.05531   0.15193   0.94643   0.00000  Uiso   1.00
F842   F     0.26821   0.20252   0.55272   0.00000  Uiso   1.00
F843   F     0.14132   0.04629   0.82367   0.00000  Uiso   1.00
F844   F     0.18867   0.28739   0.67499   0.00000  Uiso   1.00
F845   F     0.18912   0.04576   0.67512   0.00000  Uiso   1.00
F846   F     0.14233   0.28760   0.82413   0.00000  Uiso   1.00
H847   H     0.10124   0.16539   0.88406   0.00000  Uiso   1.00
H848   H     0.06959   0.25465   0.85258   0.00000  Uiso   1.00
H849   H     0.22650   0.17142   0.61386   0.00000  Uiso   1.00
H850   H     0.21650   0.07297   0.90067   0.00000  Uiso   1.00
H851   H     0.07654   0.26029   0.66475   0.00000  Uiso   1.00
H852   H     0.00005   0.08036   0.51626   0.00000  Uiso   1.00
H853   H     0.25093   0.29089   0.98391   0.00000  Uiso   1.00
H854   H     0.10049   0.07427   0.65819   0.00000  Uiso   1.00
H855   H     0.26409   0.26201   0.64664   0.00000  Uiso   1.00
H856   H     0.25003   0.03666   0.79573   0.00000  Uiso   1.00
N857   N     0.16667   0.28573   0.75000   0.00000  Uiso   1.00
N858   N     0.16667   0.04760   0.75000   0.00000  Uiso   1.00
O859   O     0.10559   0.20487   0.74999   0.00000  Uiso   1.00
O860   O     0.27943   0.12864   0.92527   0.00000  Uiso   1.00
O861   O     0.22907   0.08595   0.87356   0.00000  Uiso   1.00
O862   O     0.06029   0.23342   0.57758   0.00000  Uiso   1.00
O863   O     0.05194   0.17903   0.63864   0.00000  Uiso   1.00
O864   O     0.10108   0.24618   0.65095   0.00000  Uiso   1.00
O865   O     0.05749   0.10175   0.58217   0.00000  Uiso   1.00
O866   O     0.01175   0.16190   0.55240   0.00000  Uiso   1.00
O867   O     0.02567   0.09172   0.50295   0.00000  Uiso   1.00
O868   O     0.31588   0.20365   0.96138   0.00000  Uiso   1.00
O869   O     0.26611   0.23981   0.90931   0.00000  Uiso   1.00
O870   O     0.22774   0.12846   0.75000   0.00000  Uiso   1.00
O871   O     0.27846   0.27626   0.98725   0.00000  Uiso   1.00
O872   O     0.06685   0.04735   0.73271   0.00000  Uiso   1.00
O873   O     0.01712   0.05768   0.67051   0.00000  Uiso   1.00
O874   O     0.08515   0.10140   0.66854   0.00000  Uiso   1.00
O875   O     0.26855   0.28412   0.74407   0.00000  Uiso   1.00
O876   O     0.32752   0.28135   0.69411   0.00000  Uiso   1.00
O877   O     0.26183   0.23813   0.66982   0.00000  Uiso   1.00
O878   O     0.26875   0.05356   0.70994   0.00000  Uiso   1.00
O879   O     0.32597   0.03238   0.76028   0.00000  Uiso   1.00
O880   O     0.26249   0.06709   0.79567   0.00000  Uiso   1.00
O881   O     0.22774   0.20487   0.75000   0.00000  Uiso   1.00
O882   O     0.06062   0.28379   0.76020   0.00000  Uiso   1.00
O883   O     0.00164   0.27508   0.80942   0.00000  Uiso   1.00
O884   O     0.06871   0.23051   0.82960   0.00000  Uiso   1.00
O885   O     0.10559   0.12846   0.74999   0.00000  Uiso   1.00
O886   O     0.16666   0.20489   0.68392   0.00000  Uiso   1.00
O887   O     0.16667   0.12844   0.81607   0.00000  Uiso   1.00
O888   O     0.16667   0.20489   0.81607   0.00000  Uiso   1.00
O889   O     0.16666   0.12844   0.68392   0.00000  Uiso   1.00
O890   O     0.26509   0.16023   0.85030   0.00000  Uiso   1.00
S891   S     0.24674   0.13663   0.88975   0.00000  Uiso   1.00
S892   S     0.08231   0.20783   0.61471   0.00000  Uiso   1.00
S893   S     0.04486   0.12813   0.54101   0.00000  Uiso   1.00
S894   S     0.27511   0.22804   0.95763   0.00000  Uiso   1.00
S895   S     0.04763   0.08118   0.70062   0.00000  Uiso   1.00
S896   S     0.29255   0.25463   0.71261   0.00000  Uiso   1.00
S897   S     0.29302   0.06736   0.75091   0.00000  Uiso   1.00
S898   S     0.03748   0.25090   0.78847   0.00000  Uiso   1.00
Zn899  Zn    0.16667   0.21771   0.75000   0.00000  Uiso   1.00
Zn900  Zn    0.16667   0.11563   0.75000   0.00000  Uiso   1.00
C901   C     0.41999   0.16671   0.74908   0.00000  Uiso   1.00
C902   C     0.37593   0.16597   0.74539   0.00000  Uiso   1.00
C903   C     0.48789   0.02401   0.78689   0.00000  Uiso   1.00
C904   C     0.51105   0.30942   0.71273   0.00000  Uiso   1.00
C905   C     0.51116   0.02380   0.71277   0.00000  Uiso   1.00
C906   C     0.48812   0.30956   0.78698   0.00000  Uiso   1.00
C907   C     0.49601   0.16704   0.66363   0.00000  Uiso   1.00
C908   C     0.50103   0.16663   0.83659   0.00000  Uiso   1.00
C909   C     0.53729   0.16832   0.90972   0.00000  Uiso   1.00
C910   C     0.45623   0.17393   0.59169   0.00000  Uiso   1.00
C911   C     0.50048   0.16722   0.88449   0.00000  Uiso   1.00
C912   C     0.58012   0.16603   0.74764   0.00000  Uiso   1.00
C913   C     0.49392   0.16854   0.61569   0.00000  Uiso   1.00
C914   C     0.46232   0.16789   0.90466   0.00000  Uiso   1.00
C915   C     0.53135   0.17133   0.59423   0.00000  Uiso   1.00
C916   C     0.46029   0.16773   0.95104   0.00000  Uiso   1.00
C917   C     0.53191   0.17773   0.54836   0.00000  Uiso   1.00
C918   C     0.49670   0.17359   0.97657   0.00000  Uiso   1.00
C919   C     0.49505   0.17294   0.52325   0.00000  Uiso   1.00
C920   C     0.53499   0.17925   0.95531   0.00000  Uiso   1.00
C921   C     0.45688   0.16715   0.54490   0.00000  Uiso   1.00
C922   C     0.42294   0.15968   0.97193   0.00000  Uiso   1.00
C923   C     0.42130   0.15635   0.51866   0.00000  Uiso   1.00
C924   C     0.56824   0.19041   0.52749   0.00000  Uiso   1.00
C925   C     0.56929   0.19415   0.98088   0.00000  Uiso   1.00
C926   C     0.35586   0.12564   0.73172   0.00000  Uiso   1.00
C927   C     0.64544   0.20578   0.74139   0.00000  Uiso   1.00
C928   C     0.64735   0.12257   0.74114   0.00000  Uiso   1.00
C929   C     0.35280   0.20536   0.75468   0.00000  Uiso   1.00
C930   C     0.62446   0.16435   0.74298   0.00000  Uiso   1.00
F931   F     0.38865   0.15193   0.94643   0.00000  Uiso   1.00
F932   F     0.60154   0.20252   0.55272   0.00000  Uiso   1.00
F933   F     0.47465   0.04629   0.82367   0.00000  Uiso   1.00
F934   F     0.52200   0.28739   0.67499   0.00000  Uiso   1.00
F935   F     0.52245   0.04576   0.67512   0.00000  Uiso   1.00
F936   F     0.47567   0.28760   0.82413   0.00000  Uiso   1.00
H937   H     0.43458   0.16539   0.88406   0.00000  Uiso   1.00
H938   H     0.40292   0.25465   0.85258   0.00000  Uiso   1.00
H939   H     0.55984   0.17142   0.61386   0.00000  Uiso   1.00
H940   H     0.54983   0.07297   0.90067   0.00000  Uiso   1.00
H941   H     0.40988   0.26029   0.66475   0.00000  Uiso   1.00
H942   H     0.33338   0.08036   0.51626   0.00000  Uiso   1.00
H943   H     0.58427   0.29089   0.98391   0.00000  Uiso   1.00
H944   H     0.43382   0.07427   0.65819   0.00000  Uiso   1.00
H945   H     0.59742   0.26201   0.64664   0.00000  Uiso   1.00
H946   H     0.58336   0.03666   0.79573   0.00000  Uiso   1.00
N947   N     0.50000   0.28573   0.75000   0.00000  Uiso   1.00
N948   N     0.50000   0.04760   0.75000   0.00000  Uiso   1.00
O949   O     0.43892   0.20487   0.74999   0.00000  Uiso   1.00
O950   O     0.61277   0.12864   0.92527   0.00000  Uiso   1.00
O951   O     0.56241   0.08595   0.87356   0.00000  Uiso   1.00
O952   O     0.39362   0.23342   0.57758   0.00000  Uiso   1.00
O953   O     0.38527   0.17903   0.63864   0.00000  Uiso   1.00
O954   O     0.43441   0.24618   0.65095   0.00000  Uiso   1.00
O955   O     0.39082   0.10175   0.58217   0.00000  Uiso   1.00
O956   O     0.34509   0.16190   0.55240   0.00000  Uiso   1.00
O957   O     0.35901   0.09172   0.50295   0.00000  Uiso   1.00
O958   O     0.64921   0.20365   0.96138   0.00000  Uiso   1.00
O959   O     0.59944   0.23981   0.90931   0.00000  Uiso   1.00
O960   O     0.56108   0.12846   0.75000   0.00000  Uiso   1.00
O961   O     0.61179   0.27626   0.98725   0.00000  Uiso   1.00
O962   O     0.40018   0.04735   0.73271   0.00000  Uiso   1.00
O963   O     0.35045   0.05768   0.67051   0.00000  Uiso   1.00
O964   O     0.41848   0.10140   0.66854   0.00000  Uiso   1.00
O965   O     0.60188   0.28412   0.74407   0.00000  Uiso   1.00
O966   O     0.66085   0.28135   0.69411   0.00000  Uiso   1.00
O967   O     0.59516   0.23813   0.66982   0.00000  Uiso   1.00
O968   O     0.60209   0.05356   0.70994   0.00000  Uiso   1.00
O969   O     0.65931   0.03238   0.76028   0.00000  Uiso   1.00
O970   O     0.59582   0.06709   0.79567   0.00000  Uiso   1.00
O971   O     0.56108   0.20487   0.75000   0.00000  Uiso   1.00
O972   O     0.39396   0.28379   0.76020   0.00000  Uiso   1.00
O973   O     0.33497   0.27508   0.80942   0.00000  Uiso   1.00
O974   O     0.40204   0.23051   0.82960   0.00000  Uiso   1.00
O975   O     0.43892   0.12846   0.74999   0.00000  Uiso   1.00
O976   O     0.49999   0.20489   0.68392   0.00000  Uiso   1.00
O977   O     0.50001   0.12844   0.81607   0.00000  Uiso   1.00
O978   O     0.50001   0.20489   0.81607   0.00000  Uiso   1.00
O979   O     0.49999   0.12844   0.68392   0.00000  Uiso   1.00
O980   O     0.59843   0.16023   0.85030   0.00000  Uiso   1.00
S981   S     0.58007   0.13663   0.88975   0.00000  Uiso   1.00
S982   S     0.41565   0.20783   0.61471   0.00000  Uiso   1.00
S983   S     0.37820   0.12813   0.54101   0.00000  Uiso   1.00
S984   S     0.60844   0.22804   0.95763   0.00000  Uiso   1.00
S985   S     0.38096   0.08118   0.70062   0.00000  Uiso   1.00
S986   S     0.62588   0.25463   0.71261   0.00000  Uiso   1.00
S987   S     0.62635   0.06736   0.75091   0.00000  Uiso   1.00
S988   S     0.37082   0.25090   0.78847   0.00000  Uiso   1.00
Zn989  Zn    0.50000   0.21771   0.75000   0.00000  Uiso   1.00
Zn990  Zn    0.50000   0.11563   0.75000   0.00000  Uiso   1.00
C991   C     0.75332   0.16671   0.74908   0.00000  Uiso   1.00
C992   C     0.70926   0.16597   0.74539   0.00000  Uiso   1.00
C993   C     0.82122   0.02401   0.78689   0.00000  Uiso   1.00
C994   C     0.84438   0.30942   0.71273   0.00000  Uiso   1.00
C995   C     0.84449   0.02380   0.71277   0.00000  Uiso   1.00
C996   C     0.82145   0.30956   0.78698   0.00000  Uiso   1.00
C997   C     0.82934   0.16704   0.66363   0.00000  Uiso   1.00
C998   C     0.83437   0.16663   0.83659   0.00000  Uiso   1.00
C999   C     0.87062   0.16832   0.90972   0.00000  Uiso   1.00
C1000  C     0.78956   0.17393   0.59169   0.00000  Uiso   1.00
C1001  C     0.83382   0.16722   0.88449   0.00000  Uiso   1.00
C1002  C     0.91345   0.16603   0.74764   0.00000  Uiso   1.00
C1003  C     0.82725   0.16854   0.61569   0.00000  Uiso   1.00
C1004  C     0.79565   0.16789   0.90466   0.00000  Uiso   1.00
C1005  C     0.86469   0.17133   0.59423   0.00000  Uiso   1.00
C1006  C     0.79363   0.16773   0.95104   0.00000  Uiso   1.00
C1007  C     0.86524   0.17773   0.54836   0.00000  Uiso   1.00
C1008  C     0.83003   0.17359   0.97657   0.00000  Uiso   1.00
C1009  C     0.82839   0.17294   0.52325   0.00000  Uiso   1.00
C1010  C     0.86832   0.17925   0.95531   0.00000  Uiso   1.00
C1011  C     0.79022   0.16715   0.54490   0.00000  Uiso   1.00
C1012  C     0.75627   0.15968   0.97193   0.00000  Uiso   1.00
C1013  C     0.75463   0.15635   0.51866   0.00000  Uiso   1.00
C1014  C     0.90157   0.19041   0.52749   0.00000  Uiso   1.00
C1015  C     0.90262   0.19415   0.98088   0.00000  Uiso   1.00
C1016  C     0.68920   0.12564   0.73172   0.00000  Uiso   1.00
C1017  C     0.97877   0.20578   0.74139   0.00000  Uiso   1.00
C1018  C     0.98068   0.12257   0.74114   0.00000  Uiso   1.00
C1019  C     0.68614   0.20536   0.75468   0.00000  Uiso   1.00
C1020  C     0.95779   0.16435   0.74298   0.00000  Uiso   1.00
F1021  F     0.72198   0.15193   0.94643   0.00000  Uiso   1.00
F1022  F     0.93487   0.20252   0.55272   0.00000  Uiso   1.00
F1023  F     0.80798   0.04629   0.82367   0.00000  Uiso   1.00
F1024  F     0.85534   0.28739   0.67499   0.00000  Uiso   1.00
F1025  F     0.85579   0.04576   0.67512   0.00000  Uiso   1.00
F1026  F     0.80900   0.28760   0.82413   0.00000  Uiso   1.00
H1027  H     0.76791   0.16539   0.88406   0.00000  Uiso   1.00
H1028  H     0.73626   0.25465   0.85258   0.00000  Uiso   1.00
H1029  H     0.89317   0.17142   0.61386   0.00000  Uiso   1.00
H1030  H     0.88317   0.07297   0.90067   0.00000  Uiso   1.00
H1031  H     0.74321   0.26029   0.66475   0.00000  Uiso   1.00
H1032  H     0.66671   0.08036   0.51626   0.00000  Uiso   1.00
H1033  H     0.91760   0.29089   0.98391   0.00000  Uiso   1.00
H1034  H     0.76716   0.07427   0.65819   0.00000  Uiso   1.00
H1035  H     0.93075   0.26201   0.64664   0.00000  Uiso   1.00
H1036  H     0.91670   0.03666   0.79573   0.00000  Uiso   1.00
N1037  N     0.83333   0.28573   0.75000   0.00000  Uiso   1.00
N1038  N     0.83333   0.04760   0.75000   0.00000  Uiso   1.00
O1039  O     0.77226   0.20487   0.74999   0.00000  Uiso   1.00
O1040  O     0.94610   0.12864   0.92527   0.00000  Uiso   1.00
O1041  O     0.89574   0.08595   0.87356   0.00000  Uiso   1.00
O1042  O     0.72695   0.23342   0.57758   0.00000  Uiso   1.00
O1043  O     0.71861   0.17903   0.63864   0.00000  Uiso   1.00
O1044  O     0.76774   0.24618   0.65095   0.00000  Uiso   1.00
O1045  O     0.72416   0.10175   0.58217   0.00000  Uiso   1.00
O1046  O     0.67842   0.16190   0.55240   0.00000  Uiso   1.00
O1047  O     0.69234   0.09172   0.50295   0.00000  Uiso   1.00
O1048  O     0.98255   0.20365   0.96138   0.00000  Uiso   1.00
O1049  O     0.93277   0.23981   0.90931   0.00000  Uiso   1.00
O1050  O     0.89441   0.12846   0.75000   0.00000  Uiso   1.00
O1051  O     0.94512   0.27626   0.98725   0.00000  Uiso   1.00
O1052  O     0.73351   0.04735   0.73271   0.00000  Uiso   1.00
O1053  O     0.68379   0.05768   0.67051   0.00000  Uiso   1.00
O1054  O     0.75181   0.10140   0.66854   0.00000  Uiso   1.00
O1055  O     0.93522   0.28412   0.74407   0.00000  Uiso   1.00
O1056  O     0.99419   0.28135   0.69411   0.00000  Uiso   1.00
O1057  O     0.92850   0.23813   0.66982   0.00000  Uiso   1.00
O1058  O     0.93542   0.05356   0.70994   0.00000  Uiso   1.00
O1059  O     0.99264   0.03238   0.76028   0.00000  Uiso   1.00
O1060  O     0.92915   0.06709   0.79567   0.00000  Uiso   1.00
O1061  O     0.89441   0.20487   0.75000   0.00000  Uiso   1.00
O1062  O     0.72729   0.28379   0.76020   0.00000  Uiso   1.00
O1063  O     0.66831   0.27508   0.80942   0.00000  Uiso   1.00
O1064  O     0.73537   0.23051   0.82960   0.00000  Uiso   1.00
O1065  O     0.77226   0.12846   0.74999   0.00000  Uiso   1.00
O1066  O     0.83333   0.20489   0.68392   0.00000  Uiso   1.00
O1067  O     0.83334   0.12844   0.81607   0.00000  Uiso   1.00
O1068  O     0.83334   0.20489   0.81607   0.00000  Uiso   1.00
O1069  O     0.83333   0.12844   0.68392   0.00000  Uiso   1.00
O1070  O     0.93176   0.16023   0.85030   0.00000  Uiso   1.00
S1071  S     0.91340   0.13663   0.88975   0.00000  Uiso   1.00
S1072  S     0.74898   0.20783   0.61471   0.00000  Uiso   1.00
S1073  S     0.71153   0.12813   0.54101   0.00000  Uiso   1.00
S1074  S     0.94178   0.22804   0.95763   0.00000  Uiso   1.00
S1075  S     0.71429   0.08118   0.70062   0.00000  Uiso   1.00
S1076  S     0.95921   0.25463   0.71261   0.00000  Uiso   1.00
S1077  S     0.95969   0.06736   0.75091   0.00000  Uiso   1.00
S1078  S     0.70415   0.25090   0.78847   0.00000  Uiso   1.00
Zn1079 Zn    0.83333   0.21771   0.75000   0.00000  Uiso   1.00
Zn1080 Zn    0.83333   0.11563   0.75000   0.00000  Uiso   1.00
C1081  C     0.08665   0.50004   0.74908   0.00000  Uiso   1.00
C1082  C     0.04260   0.49930   0.74539   0.00000  Uiso   1.00
C1083  C     0.15455   0.35734   0.78689   0.00000  Uiso   1.00
C1084  C     0.17772   0.64276   0.71273   0.00000  Uiso   1.00
C1085  C     0.17783   0.35713   0.71277   0.00000  Uiso   1.00
C1086  C     0.15479   0.64290   0.78698   0.00000  Uiso   1.00
C1087  C     0.16268   0.50037   0.66363   0.00000  Uiso   1.00
C1088  C     0.16770   0.49997   0.83659   0.00000  Uiso   1.00
C1089  C     0.20395   0.50165   0.90972   0.00000  Uiso   1.00
C1090  C     0.12289   0.50726   0.59169   0.00000  Uiso   1.00
C1091  C     0.16715   0.50055   0.88449   0.00000  Uiso   1.00
C1092  C     0.24679   0.49936   0.74764   0.00000  Uiso   1.00
C1093  C     0.16058   0.50187   0.61569   0.00000  Uiso   1.00
C1094  C     0.12898   0.50123   0.90466   0.00000  Uiso   1.00
C1095  C     0.19802   0.50467   0.59423   0.00000  Uiso   1.00
C1096  C     0.12696   0.50106   0.95104   0.00000  Uiso   1.00
C1097  C     0.19858   0.51106   0.54836   0.00000  Uiso   1.00
C1098  C     0.16336   0.50692   0.97657   0.00000  Uiso   1.00
C1099  C     0.16172   0.50627   0.52325   0.00000  Uiso   1.00
C1100  C     0.20166   0.51258   0.95531   0.00000  Uiso   1.00
C1101  C     0.12355   0.50048   0.54490   0.00000  Uiso   1.00
C1102  C     0.08961   0.49301   0.97193   0.00000  Uiso   1.00
C1103  C     0.08797   0.48968   0.51866   0.00000  Uiso   1.00
C1104  C     0.23491   0.52375   0.52749   0.00000  Uiso   1.00
C1105  C     0.23595   0.52749   0.98088   0.00000  Uiso   1.00
C1106  C     0.02253   0.45898   0.73172   0.00000  Uiso   1.00
C1107  C     0.31210   0.53912   0.74139   0.00000  Uiso   1.00
C1108  C     0.31401   0.45590   0.74114   0.00000  Uiso   1.00
C1109  C     0.01947   0.53869   0.75468   0.00000  Uiso   1.00
C1110  C     0.29112   0.49768   0.74298   0.00000  Uiso   1.00
F1111  F     0.05531   0.48526   0.94643   0.00000  Uiso   1.00
F1112  F     0.26821   0.53585   0.55272   0.00000  Uiso   1.00
F1113  F     0.14132   0.37963   0.82367   0.00000  Uiso   1.00
F1114  F     0.18867   0.62072   0.67499   0.00000  Uiso   1.00
F1115  F     0.18912   0.37909   0.67512   0.00000  Uiso   1.00
F1116  F     0.14233   0.62093   0.82413   0.00000  Uiso   1.00
H1117  H     0.10124   0.49873   0.88406   0.00000  Uiso   1.00
H1118  H     0.06959   0.58798   0.85258   0.00000  Uiso   1.00
H1119  H     0.22650   0.50475   0.61386   0.00000  Uiso   1.00
H1120  H     0.21650   0.40630   0.90067   0.00000  Uiso   1.00
H1121  H     0.07654   0.59362   0.66475   0.00000  Uiso   1.00
H1122  H     0.00005   0.41369   0.51626   0.00000  Uiso   1.00
H1123  H     0.25093   0.62422   0.98391   0.00000  Uiso   1.00
H1124  H     0.10049   0.40760   0.65819   0.00000  Uiso   1.00
H1125  H     0.26409   0.59535   0.64664   0.00000  Uiso   1.00
H1126  H     0.25003   0.37000   0.79573   0.00000  Uiso   1.00
N1127  N     0.16667   0.61907   0.75000   0.00000  Uiso   1.00
N1128  N     0.16667   0.38093   0.75000   0.00000  Uiso   1.00
O1129  O     0.10559   0.53821   0.74999   0.00000  Uiso   1.00
O1130  O     0.27943   0.46197   0.92527   0.00000  Uiso   1.00
O1131  O     0.22907   0.41929   0.87356   0.00000  Uiso   1.00
O1132  O     0.06029   0.56675   0.57758   0.00000  Uiso   1.00
O1133  O     0.05194   0.51236   0.63864   0.00000  Uiso   1.00
O1134  O     0.10108   0.57951   0.65095   0.00000  Uiso   1.00
O1135  O     0.05749   0.43508   0.58217   0.00000  Uiso   1.00
O1136  O     0.01175   0.49523   0.55240   0.00000  Uiso   1.00
O1137  O     0.02567   0.42505   0.50295   0.00000  Uiso   1.00
O1138  O     0.31588   0.53698   0.96138   0.00000  Uiso   1.00
O1139  O     0.26611   0.57314   0.90931   0.00000  Uiso   1.00
O1140  O     0.22774   0.46179   0.75000   0.00000  Uiso   1.00
O1141  O     0.27846   0.60959   0.98725   0.00000  Uiso   1.00
O1142  O     0.06685   0.38068   0.73271   0.00000  Uiso   1.00
O1143  O     0.01712   0.39102   0.67051   0.00000  Uiso   1.00
O1144  O     0.08515   0.43473   0.66854   0.00000  Uiso   1.00
O1145  O     0.26855   0.61745   0.74407   0.00000  Uiso   1.00
O1146  O     0.32752   0.61468   0.69411   0.00000  Uiso   1.00
O1147  O     0.26183   0.57146   0.66982   0.00000  Uiso   1.00
O1148  O     0.26875   0.38689   0.70994   0.00000  Uiso   1.00
O1149  O     0.32597   0.36571   0.76028   0.00000  Uiso   1.00
O1150  O     0.26249   0.40042   0.79567   0.00000  Uiso   1.00
O1151  O     0.22774   0.53821   0.75000   0.00000  Uiso   1.00
O1152  O     0.06062   0.61712   0.76020   0.00000  Uiso   1.00
O1153  O     0.00164   0.60841   0.80942   0.00000  Uiso   1.00
O1154  O     0.06871   0.56385   0.82960   0.00000  Uiso   1.00
O1155  O     0.10559   0.46179   0.74999   0.00000  Uiso   1.00
O1156  O     0.16666   0.53823   0.68392   0.00000  Uiso   1.00
O1157  O     0.16667   0.46177   0.81607   0.00000  Uiso   1.00
O1158  O     0.16667   0.53823   0.81607   0.00000  Uiso   1.00
O1159  O     0.16666   0.46177   0.68392   0.00000  Uiso   1.00
O1160  O     0.26509   0.49356   0.85030   0.00000  Uiso   1.00
S1161  S     0.24674   0.46997   0.88975   0.00000  Uiso   1.00
S1162  S     0.08231   0.54116   0.61471   0.00000  Uiso   1.00
S1163  S     0.04486   0.46147   0.54101   0.00000  Uiso   1.00
S1164  S     0.27511   0.56137   0.95763   0.00000  Uiso   1.00
S1165  S     0.04763   0.41452   0.70062   0.00000  Uiso   1.00
S1166  S     0.29255   0.58796   0.71261   0.00000  Uiso   1.00
S1167  S     0.29302   0.40069   0.75091   0.00000  Uiso   1.00
S1168  S     0.03748   0.58423   0.78847   0.00000  Uiso   1.00
Zn1169 Zn    0.16667   0.55104   0.75000   0.00000  Uiso   1.00
Zn1170 Zn    0.16667   0.44896   0.75000   0.00000  Uiso   1.00
C1171  C     0.41999   0.50004   0.74908   0.00000  Uiso   1.00
C1172  C     0.37593   0.49930   0.74539   0.00000  Uiso   1.00
C1173  C     0.48789   0.35734   0.78689   0.00000  Uiso   1.00
C1174  C     0.51105   0.64276   0.71273   0.00000  Uiso   1.00
C1175  C     0.51116   0.35713   0.71277   0.00000  Uiso   1.00
C1176  C     0.48812   0.64290   0.78698   0.00000  Uiso   1.00
C1177  C     0.49601   0.50037   0.66363   0.00000  Uiso   1.00
C1178  C     0.50103   0.49997   0.83659   0.00000  Uiso   1.00
C1179  C     0.53729   0.50165   0.90972   0.00000  Uiso   1.00
C1180  C     0.45623   0.50726   0.59169   0.00000  Uiso   1.00
C1181  C     0.50048   0.50055   0.88449   0.00000  Uiso   1.00
C1182  C     0.58012   0.49936   0.74764   0.00000  Uiso   1.00
C1183  C     0.49392   0.50187   0.61569   0.00000  Uiso   1.00
C1184  C     0.46232   0.50123   0.90466   0.00000  Uiso   1.00
C1185  C     0.53135   0.50467   0.59423   0.00000  Uiso   1.00
C1186  C     0.46029   0.50106   0.95104   0.00000  Uiso   1.00
C1187  C     0.53191   0.51106   0.54836   0.00000  Uiso   1.00
C1188  C     0.49670   0.50692   0.97657   0.00000  Uiso   1.00
C1189  C     0.49505   0.50627   0.52325   0.00000  Uiso   1.00
C1190  C     0.53499   0.51258   0.95531   0.00000  Uiso   1.00
C1191  C     0.45688   0.50048   0.54490   0.00000  Uiso   1.00
C1192  C     0.42294   0.49301   0.97193   0.00000  Uiso   1.00
C1193  C     0.42130   0.48968   0.51866   0.00000  Uiso   1.00
C1194  C     0.56824   0.52375   0.52749   0.00000  Uiso   1.00
C1195  C     0.56929   0.52749   0.98088   0.00000  Uiso   1.00
C1196  C     0.35586   0.45898   0.73172   0.00000  Uiso   1.00
C1197  C     0.64544   0.53912   0.74139   0.00000  Uiso   1.00
C1198  C     0.64735   0.45590   0.74114   0.00000  Uiso   1.00
C1199  C     0.35280   0.53869   0.75468   0.00000  Uiso   1.00
C1200  C     0.62446   0.49768   0.74298   0.00000  Uiso   1.00
F1201  F     0.38865   0.48526   0.94643   0.00000  Uiso   1.00
F1202  F     0.60154   0.53585   0.55272   0.00000  Uiso   1.00
F1203  F     0.47465   0.37963   0.82367   0.00000  Uiso   1.00
F1204  F     0.52200   0.62072   0.67499   0.00000  Uiso   1.00
F1205  F     0.52245   0.37909   0.67512   0.00000  Uiso   1.00
F1206  F     0.47567   0.62093   0.82413   0.00000  Uiso   1.00
H1207  H     0.43458   0.49873   0.88406   0.00000  Uiso   1.00
H1208  H     0.40292   0.58798   0.85258   0.00000  Uiso   1.00
H1209  H     0.55984   0.50475   0.61386   0.00000  Uiso   1.00
H1210  H     0.54983   0.40630   0.90067   0.00000  Uiso   1.00
H1211  H     0.40988   0.59362   0.66475   0.00000  Uiso   1.00
H1212  H     0.33338   0.41369   0.51626   0.00000  Uiso   1.00
H1213  H     0.58427   0.62422   0.98391   0.00000  Uiso   1.00
H1214  H     0.43382   0.40760   0.65819   0.00000  Uiso   1.00
H1215  H     0.59742   0.59535   0.64664   0.00000  Uiso   1.00
H1216  H     0.58336   0.37000   0.79573   0.00000  Uiso   1.00
N1217  N     0.50000   0.61907   0.75000   0.00000  Uiso   1.00
N1218  N     0.50000   0.38093   0.75000   0.00000  Uiso   1.00
O1219  O     0.43892   0.53821   0.74999   0.00000  Uiso   1.00
O1220  O     0.61277   0.46197   0.92527   0.00000  Uiso   1.00
O1221  O     0.56241   0.41929   0.87356   0.00000  Uiso   1.00
O1222  O     0.39362   0.56675   0.57758   0.00000  Uiso   1.00
O1223  O     0.38527   0.51236   0.63864   0.00000  Uiso   1.00
O1224  O     0.43441   0.57951   0.65095   0.00000  Uiso   1.00
O1225  O     0.39082   0.43508   0.58217   0.00000  Uiso   1.00
O1226  O     0.34509   0.49523   0.55240   0.00000  Uiso   1.00
O1227  O     0.35901   0.42505   0.50295   0.00000  Uiso   1.00
O1228  O     0.64921   0.53698   0.96138   0.00000  Uiso   1.00
O1229  O     0.59944   0.57314   0.90931   0.00000  Uiso   1.00
O1230  O     0.56108   0.46179   0.75000   0.00000  Uiso   1.00
O1231  O     0.61179   0.60959   0.98725   0.00000  Uiso   1.00
O1232  O     0.40018   0.38068   0.73271   0.00000  Uiso   1.00
O1233  O     0.35045   0.39102   0.67051   0.00000  Uiso   1.00
O1234  O     0.41848   0.43473   0.66854   0.00000  Uiso   1.00
O1235  O     0.60188   0.61745   0.74407   0.00000  Uiso   1.00
O1236  O     0.66085   0.61468   0.69411   0.00000  Uiso   1.00
O1237  O     0.59516   0.57146   0.66982   0.00000  Uiso   1.00
O1238  O     0.60209   0.38689   0.70994   0.00000  Uiso   1.00
O1239  O     0.65931   0.36571   0.76028   0.00000  Uiso   1.00
O1240  O     0.59582   0.40042   0.79567   0.00000  Uiso   1.00
O1241  O     0.56108   0.53821   0.75000   0.00000  Uiso   1.00
O1242  O     0.39396   0.61712   0.76020   0.00000  Uiso   1.00
O1243  O     0.33497   0.60841   0.80942   0.00000  Uiso   1.00
O1244  O     0.40204   0.56385   0.82960   0.00000  Uiso   1.00
O1245  O     0.43892   0.46179   0.74999   0.00000  Uiso   1.00
O1246  O     0.49999   0.53823   0.68392   0.00000  Uiso   1.00
O1247  O     0.50001   0.46177   0.81607   0.00000  Uiso   1.00
O1248  O     0.50001   0.53823   0.81607   0.00000  Uiso   1.00
O1249  O     0.49999   0.46177   0.68392   0.00000  Uiso   1.00
O1250  O     0.59843   0.49356   0.85030   0.00000  Uiso   1.00
S1251  S     0.58007   0.46997   0.88975   0.00000  Uiso   1.00
S1252  S     0.41565   0.54116   0.61471   0.00000  Uiso   1.00
S1253  S     0.37820   0.46147   0.54101   0.00000  Uiso   1.00
S1254  S     0.60844   0.56137   0.95763   0.00000  Uiso   1.00
S1255  S     0.38096   0.41452   0.70062   0.00000  Uiso   1.00
S1256  S     0.62588   0.58796   0.71261   0.00000  Uiso   1.00
S1257  S     0.62635   0.40069   0.75091   0.00000  Uiso   1.00
S1258  S     0.37082   0.58423   0.78847   0.00000  Uiso   1.00
Zn1259 Zn    0.50000   0.55104   0.75000   0.00000  Uiso   1.00
Zn1260 Zn    0.50000   0.44896   0.75000   0.00000  Uiso   1.00
C1261  C     0.75332   0.50004   0.74908   0.00000  Uiso   1.00
C1262  C     0.70926   0.49930   0.74539   0.00000  Uiso   1.00
C1263  C     0.82122   0.35734   0.78689   0.00000  Uiso   1.00
C1264  C     0.84438   0.64276   0.71273   0.00000  Uiso   1.00
C1265  C     0.84449   0.35713   0.71277   0.00000  Uiso   1.00
C1266  C     0.82145   0.64290   0.78698   0.00000  Uiso   1.00
C1267  C     0.82934   0.50037   0.66363   0.00000  Uiso   1.00
C1268  C     0.83437   0.49997   0.83659   0.00000  Uiso   1.00
C1269  C     0.87062   0.50165   0.90972   0.00000  Uiso   1.00
C1270  C     0.78956   0.50726   0.59169   0.00000  Uiso   1.00
C1271  C     0.83382   0.50055   0.88449   0.00000  Uiso   1.00
C1272  C     0.91345   0.49936   0.74764   0.00000  Uiso   1.00
C1273  C     0.82725   0.50187   0.61569   0.00000  Uiso   1.00
C1274  C     0.79565   0.50123   0.90466   0.00000  Uiso   1.00
C1275  C     0.86469   0.50467   0.59423   0.00000  Uiso   1.00
C1276  C     0.79363   0.50106   0.95104   0.00000  Uiso   1.00
C1277  C     0.86524   0.51106   0.54836   0.00000  Uiso   1.00
C1278  C     0.83003   0.50692   0.97657   0.00000  Uiso   1.00
C1279  C     0.82839   0.50627   0.52325   0.00000  Uiso   1.00
C1280  C     0.86832   0.51258   0.95531   0.00000  Uiso   1.00
C1281  C     0.79022   0.50048   0.54490   0.00000  Uiso   1.00
C1282  C     0.75627   0.49301   0.97193   0.00000  Uiso   1.00
C1283  C     0.75463   0.48968   0.51866   0.00000  Uiso   1.00
C1284  C     0.90157   0.52375   0.52749   0.00000  Uiso   1.00
C1285  C     0.90262   0.52749   0.98088   0.00000  Uiso   1.00
C1286  C     0.68920   0.45898   0.73172   0.00000  Uiso   1.00
C1287  C     0.97877   0.53912   0.74139   0.00000  Uiso   1.00
C1288  C     0.98068   0.45590   0.74114   0.00000  Uiso   1.00
C1289  C     0.68614   0.53869   0.75468   0.00000  Uiso   1.00
C1290  C     0.95779   0.49768   0.74298   0.00000  Uiso   1.00
F1291  F     0.72198   0.48526   0.94643   0.00000  Uiso   1.00
F1292  F     0.93487   0.53585   0.55272   0.00000  Uiso   1.00
F1293  F     0.80798   0.37963   0.82367   0.00000  Uiso   1.00
F1294  F     0.85534   0.62072   0.67499   0.00000  Uiso   1.00
F1295  F     0.85579   0.37909   0.67512   0.00000  Uiso   1.00
F1296  F     0.80900   0.62093   0.82413   0.00000  Uiso   1.00
H1297  H     0.76791   0.49873   0.88406   0.00000  Uiso   1.00
H1298  H     0.73626   0.58798   0.85258   0.00000  Uiso   1.00
H1299  H     0.89317   0.50475   0.61386   0.00000  Uiso   1.00
H1300  H     0.88317   0.40630   0.90067   0.00000  Uiso   1.00
H1301  H     0.74321   0.59362   0.66475   0.00000  Uiso   1.00
H1302  H     0.66671   0.41369   0.51626   0.00000  Uiso   1.00
H1303  H     0.91760   0.62422   0.98391   0.00000  Uiso   1.00
H1304  H     0.76716   0.40760   0.65819   0.00000  Uiso   1.00
H1305  H     0.93075   0.59535   0.64664   0.00000  Uiso   1.00
H1306  H     0.91670   0.37000   0.79573   0.00000  Uiso   1.00
N1307  N     0.83333   0.61907   0.75000   0.00000  Uiso   1.00
N1308  N     0.83333   0.38093   0.75000   0.00000  Uiso   1.00
O1309  O     0.77226   0.53821   0.74999   0.00000  Uiso   1.00
O1310  O     0.94610   0.46197   0.92527   0.00000  Uiso   1.00
O1311  O     0.89574   0.41929   0.87356   0.00000  Uiso   1.00
O1312  O     0.72695   0.56675   0.57758   0.00000  Uiso   1.00
O1313  O     0.71861   0.51236   0.63864   0.00000  Uiso   1.00
O1314  O     0.76774   0.57951   0.65095   0.00000  Uiso   1.00
O1315  O     0.72416   0.43508   0.58217   0.00000  Uiso   1.00
O1316  O     0.67842   0.49523   0.55240   0.00000  Uiso   1.00
O1317  O     0.69234   0.42505   0.50295   0.00000  Uiso   1.00
O1318  O     0.98255   0.53698   0.96138   0.00000  Uiso   1.00
O1319  O     0.93277   0.57314   0.90931   0.00000  Uiso   1.00
O1320  O     0.89441   0.46179   0.75000   0.00000  Uiso   1.00
O1321  O     0.94512   0.60959   0.98725   0.00000  Uiso   1.00
O1322  O     0.73351   0.38068   0.73271   0.00000  Uiso   1.00
O1323  O     0.68379   0.39102   0.67051   0.00000  Uiso   1.00
O1324  O     0.75181   0.43473   0.66854   0.00000  Uiso   1.00
O1325  O     0.93522   0.61745   0.74407   0.00000  Uiso   1.00
O1326  O     0.99419   0.61468   0.69411   0.00000  Uiso   1.00
O1327  O     0.92850   0.57146   0.66982   0.00000  Uiso   1.00
O1328  O     0.93542   0.38689   0.70994   0.00000  Uiso   1.00
O1329  O     0.99264   0.36571   0.76028   0.00000  Uiso   1.00
O1330  O     0.92915   0.40042   0.79567   0.00000  Uiso   1.00
O1331  O     0.89441   0.53821   0.75000   0.00000  Uiso   1.00
O1332  O     0.72729   0.61712   0.76020   0.00000  Uiso   1.00
O1333  O     0.66831   0.60841   0.80942   0.00000  Uiso   1.00
O1334  O     0.73537   0.56385   0.82960   0.00000  Uiso   1.00
O1335  O     0.77226   0.46179   0.74999   0.00000  Uiso   1.00
O1336  O     0.83333   0.53823   0.68392   0.00000  Uiso   1.00
O1337  O     0.83334   0.46177   0.81607   0.00000  Uiso   1.00
O1338  O     0.83334   0.53823   0.81607   0.00000  Uiso   1.00
O1339  O     0.83333   0.46177   0.68392   0.00000  Uiso   1.00
O1340  O     0.93176   0.49356   0.85030   0.00000  Uiso   1.00
S1341  S     0.91340   0.46997   0.88975   0.00000  Uiso   1.00
S1342  S     0.74898   0.54116   0.61471   0.00000  Uiso   1.00
S1343  S     0.71153   0.46147   0.54101   0.00000  Uiso   1.00
S1344  S     0.94178   0.56137   0.95763   0.00000  Uiso   1.00
S1345  S     0.71429   0.41452   0.70062   0.00000  Uiso   1.00
S1346  S     0.95921   0.58796   0.71261   0.00000  Uiso   1.00
S1347  S     0.95969   0.40069   0.75091   0.00000  Uiso   1.00
S1348  S     0.70415   0.58423   0.78847   0.00000  Uiso   1.00
Zn1349 Zn    0.83333   0.55104   0.75000   0.00000  Uiso   1.00
Zn1350 Zn    0.83333   0.44896   0.75000   0.00000  Uiso   1.00
C1351  C     0.08665   0.83337   0.74908   0.00000  Uiso   1.00
C1352  C     0.04260   0.83263   0.74539   0.00000  Uiso   1.00
C1353  C     0.15455   0.69068   0.78689   0.00000  Uiso   1.00
C1354  C     0.17772   0.97609   0.71273   0.00000  Uiso   1.00
C1355  C     0.17783   0.69047   0.71277   0.00000  Uiso   1.00
C1356  C     0.15479   0.97623   0.78698   0.00000  Uiso   1.00
C1357  C     0.16268   0.83371   0.66363   0.00000  Uiso   1.00
C1358  C     0.16770   0.83330   0.83659   0.00000  Uiso   1.00
C1359  C     0.20395   0.83499   0.90972   0.00000  Uiso   1.00
C1360  C     0.12289   0.84060   0.59169   0.00000  Uiso   1.00
C1361  C     0.16715   0.83388   0.88449   0.00000  Uiso   1.00
C1362  C     0.24679   0.83270   0.74764   0.00000  Uiso   1.00
C1363  C     0.16058   0.83521   0.61569   0.00000  Uiso   1.00
C1364  C     0.12898   0.83456   0.90466   0.00000  Uiso   1.00
C1365  C     0.19802   0.83800   0.59423   0.00000  Uiso   1.00
C1366  C     0.12696   0.83440   0.95104   0.00000  Uiso   1.00
C1367  C     0.19858   0.84440   0.54836   0.00000  Uiso   1.00
C1368  C     0.16336   0.84026   0.97657   0.00000  Uiso   1.00
C1369  C     0.16172   0.83961   0.52325   0.00000  Uiso   1.00
C1370  C     0.20166   0.84592   0.95531   0.00000  Uiso   1.00
C1371  C     0.12355   0.83382   0.54490   0.00000  Uiso   1.00
C1372  C     0.08961   0.82634   0.97193   0.00000  Uiso   1.00
C1373  C     0.08797   0.82301   0.51866   0.00000  Uiso   1.00
C1374  C     0.23491   0.85708   0.52749   0.00000  Uiso   1.00
C1375  C     0.23595   0.86082   0.98088   0.00000  Uiso   1.00
C1376  C     0.02253   0.79231   0.73172   0.00000  Uiso   1.00
C1377  C     0.31210   0.87245   0.74139   0.00000  Uiso   1.00
C1378  C     0.31401   0.78923   0.74114   0.00000  Uiso   1.00
C1379  C     0.01947   0.87203   0.75468   0.00000  Uiso   1.00
C1380  C     0.29112   0.83101   0.74298   0.00000  Uiso   1.00
F1381  F     0.05531   0.81859   0.94643   0.00000  Uiso   1.00
F1382  F     0.26821   0.86918   0.55272   0.00000  Uiso   1.00
F1383  F     0.14132   0.71296   0.82367   0.00000  Uiso   1.00
F1384  F     0.18867   0.95406   0.67499   0.00000  Uiso   1.00
F1385  F     0.18912   0.71242   0.67512   0.00000  Uiso   1.00
F1386  F     0.14233   0.95426   0.82413   0.00000  Uiso   1.00
H1387  H     0.10124   0.83206   0.88406   0.00000  Uiso   1.00
H1388  H     0.06959   0.92132   0.85258   0.00000  Uiso   1.00
H1389  H     0.22650   0.83808   0.61386   0.00000  Uiso   1.00
H1390  H     0.21650   0.73963   0.90067   0.00000  Uiso   1.00
H1391  H     0.07654   0.92695   0.66475   0.00000  Uiso   1.00
H1392  H     0.00005   0.74703   0.51626   0.00000  Uiso   1.00
H1393  H     0.25093   0.95756   0.98391   0.00000  Uiso   1.00
H1394  H     0.10049   0.74094   0.65819   0.00000  Uiso   1.00
H1395  H     0.26409   0.92868   0.64664   0.00000  Uiso   1.00
H1396  H     0.25003   0.70333   0.79573   0.00000  Uiso   1.00
N1397  N     0.16667   0.95240   0.75000   0.00000  Uiso   1.00
N1398  N     0.16667   0.71427   0.75000   0.00000  Uiso   1.00
O1399  O     0.10559   0.87154   0.74999   0.00000  Uiso   1.00
O1400  O     0.27943   0.79531   0.92527   0.00000  Uiso   1.00
O1401  O     0.22907   0.75262   0.87356   0.00000  Uiso   1.00
O1402  O     0.06029   0.90009   0.57758   0.00000  Uiso   1.00
O1403  O     0.05194   0.84570   0.63864   0.00000  Uiso   1.00
O1404  O     0.10108   0.91285   0.65095   0.00000  Uiso   1.00
O1405  O     0.05749   0.76842   0.58217   0.00000  Uiso   1.00
O1406  O     0.01175   0.82856   0.55240   0.00000  Uiso   1.00
O1407  O     0.02567   0.75839   0.50295   0.00000  Uiso   1.00
O1408  O     0.31588   0.87031   0.96138   0.00000  Uiso   1.00
O1409  O     0.26611   0.90647   0.90931   0.00000  Uiso   1.00
O1410  O     0.22774   0.79513   0.75000   0.00000  Uiso   1.00
O1411  O     0.27846   0.94293   0.98725   0.00000  Uiso   1.00
O1412  O     0.06685   0.71402   0.73271   0.00000  Uiso   1.00
O1413  O     0.01712   0.72435   0.67051   0.00000  Uiso   1.00
O1414  O     0.08515   0.76806   0.66854   0.00000  Uiso   1.00
O1415  O     0.26855   0.95079   0.74407   0.00000  Uiso   1.00
O1416  O     0.32752   0.94802   0.69411   0.00000  Uiso   1.00
O1417  O     0.26183   0.90479   0.66982   0.00000  Uiso   1.00
O1418  O     0.26875   0.72023   0.70994   0.00000  Uiso   1.00
O1419  O     0.32597   0.69905   0.76028   0.00000  Uiso   1.00
O1420  O     0.26249   0.73376   0.79567   0.00000  Uiso   1.00
O1421  O     0.22774   0.87154   0.75000   0.00000  Uiso   1.00
O1422  O     0.06062   0.95046   0.76020   0.00000  Uiso   1.00
O1423  O     0.00164   0.94175   0.80942   0.00000  Uiso   1.00
O1424  O     0.06871   0.89718   0.82960   0.00000  Uiso   1.00
O1425  O     0.10559   0.79513   0.74999   0.00000  Uiso   1.00
O1426  O     0.16666   0.87156   0.68392   0.00000  Uiso   1.00
O1427  O     0.16667   0.79511   0.81607   0.00000  Uiso   1.00
O1428  O     0.16667   0.87156   0.81607   0.00000  Uiso   1.00
O1429  O     0.16666   0.79511   0.68392   0.00000  Uiso   1.00
O1430  O     0.26509   0.82689   0.85030   0.00000  Uiso   1.00
S1431  S     0.24674   0.80330   0.88975   0.00000  Uiso   1.00
S1432  S     0.08231   0.87450   0.61471   0.00000  Uiso   1.00
S1433  S     0.04486   0.79480   0.54101   0.00000  Uiso   1.00
S1434  S     0.27511   0.89470   0.95763   0.00000  Uiso   1.00
S1435  S     0.04763   0.74785   0.70062   0.00000  Uiso   1.00
S1436  S     0.29255   0.92130   0.71261   0.00000  Uiso   1.00
S1437  S     0.29302   0.73402   0.75091   0.00000  Uiso   1.00
S1438  S     0.03748   0.91757   0.78847   0.00000  Uiso   1.00
Zn1439 Zn    0.16667   0.88437   0.75000   0.00000  Uiso   1.00
Zn1440 Zn    0.16667   0.78229   0.75000   0.00000  Uiso   1.00
C1441  C     0.41999   0.83337   0.74908   0.00000  Uiso   1.00
C1442  C     0.37593   0.83263   0.74539   0.00000  Uiso   1.00
C1443  C     0.48789   0.69068   0.78689   0.00000  Uiso   1.00
C1444  C     0.51105   0.97609   0.71273   0.00000  Uiso   1.00
C1445  C     0.51116   0.69047   0.71277   0.00000  Uiso   1.00
C1446  C     0.48812   0.97623   0.78698   0.00000  Uiso   1.00
C1447  C     0.49601   0.83371   0.66363   0.00000  Uiso   1.00
C1448  C     0.50103   0.83330   0.83659   0.00000  Uiso   1.00
C1449  C     0.53729   0.83499   0.90972   0.00000  Uiso   1.00
C1450  C     0.45623   0.84060   0.59169   0.00000  Uiso   1.00
C1451  C     0.50048   0.83388   0.88449   0.00000  Uiso   1.00
C1452  C     0.58012   0.83270   0.74764   0.00000  Uiso   1.00
C1453  C     0.49392   0.83521   0.61569   0.00000  Uiso   1.00
C1454  C     0.46232   0.83456   0.90466   0.00000  Uiso   1.00
C1455  C     0.53135   0.83800   0.59423   0.00000  Uiso   1.00
C1456  C     0.46029   0.83440   0.95104   0.00000  Uiso   1.00
C1457  C     0.53191   0.84440   0.54836   0.00000  Uiso   1.00
C1458  C     0.49670   0.84026   0.97657   0.00000  Uiso   1.00
C1459  C     0.49505   0.83961   0.52325   0.00000  Uiso   1.00
C1460  C     0.53499   0.84592   0.95531   0.00000  Uiso   1.00
C1461  C     0.45688   0.83382   0.54490   0.00000  Uiso   1.00
C1462  C     0.42294   0.82634   0.97193   0.00000  Uiso   1.00
C1463  C     0.42130   0.82301   0.51866   0.00000  Uiso   1.00
C1464  C     0.56824   0.85708   0.52749   0.00000  Uiso   1.00
C1465  C     0.56929   0.86082   0.98088   0.00000  Uiso   1.00
C1466  C     0.35586   0.79231   0.73172   0.00000  Uiso   1.00
C1467  C     0.64544   0.87245   0.74139   0.00000  Uiso   1.00
C1468  C     0.64735   0.78923   0.74114   0.00000  Uiso   1.00
C1469  C     0.35280   0.87203   0.75468   0.00000  Uiso   1.00
C1470  C     0.62446   0.83101   0.74298   0.00000  Uiso   1.00
F1471  F     0.38865   0.81859   0.94643   0.00000  Uiso   1.00
F1472  F     0.60154   0.86918   0.55272   0.00000  Uiso   1.00
F1473  F     0.47465   0.71296   0.82367   0.00000  Uiso   1.00
F1474  F     0.52200   0.95406   0.67499   0.00000  Uiso   1.00
F1475  F     0.52245   0.71242   0.67512   0.00000  Uiso   1.00
F1476  F     0.47567   0.95426   0.82413   0.00000  Uiso   1.00
H1477  H     0.43458   0.83206   0.88406   0.00000  Uiso   1.00
H1478  H     0.40292   0.92132   0.85258   0.00000  Uiso   1.00
H1479  H     0.55984   0.83808   0.61386   0.00000  Uiso   1.00
H1480  H     0.54983   0.73963   0.90067   0.00000  Uiso   1.00
H1481  H     0.40988   0.92695   0.66475   0.00000  Uiso   1.00
H1482  H     0.33338   0.74703   0.51626   0.00000  Uiso   1.00
H1483  H     0.58427   0.95756   0.98391   0.00000  Uiso   1.00
H1484  H     0.43382   0.74094   0.65819   0.00000  Uiso   1.00
H1485  H     0.59742   0.92868   0.64664   0.00000  Uiso   1.00
H1486  H     0.58336   0.70333   0.79573   0.00000  Uiso   1.00
N1487  N     0.50000   0.95240   0.75000   0.00000  Uiso   1.00
N1488  N     0.50000   0.71427   0.75000   0.00000  Uiso   1.00
O1489  O     0.43892   0.87154   0.74999   0.00000  Uiso   1.00
O1490  O     0.61277   0.79531   0.92527   0.00000  Uiso   1.00
O1491  O     0.56241   0.75262   0.87356   0.00000  Uiso   1.00
O1492  O     0.39362   0.90009   0.57758   0.00000  Uiso   1.00
O1493  O     0.38527   0.84570   0.63864   0.00000  Uiso   1.00
O1494  O     0.43441   0.91285   0.65095   0.00000  Uiso   1.00
O1495  O     0.39082   0.76842   0.58217   0.00000  Uiso   1.00
O1496  O     0.34509   0.82856   0.55240   0.00000  Uiso   1.00
O1497  O     0.35901   0.75839   0.50295   0.00000  Uiso   1.00
O1498  O     0.64921   0.87031   0.96138   0.00000  Uiso   1.00
O1499  O     0.59944   0.90647   0.90931   0.00000  Uiso   1.00
O1500  O     0.56108   0.79513   0.75000   0.00000  Uiso   1.00
O1501  O     0.61179   0.94293   0.98725   0.00000  Uiso   1.00
O1502  O     0.40018   0.71402   0.73271   0.00000  Uiso   1.00
O1503  O     0.35045   0.72435   0.67051   0.00000  Uiso   1.00
O1504  O     0.41848   0.76806   0.66854   0.00000  Uiso   1.00
O1505  O     0.60188   0.95079   0.74407   0.00000  Uiso   1.00
O1506  O     0.66085   0.94802   0.69411   0.00000  Uiso   1.00
O1507  O     0.59516   0.90479   0.66982   0.00000  Uiso   1.00
O1508  O     0.60209   0.72023   0.70994   0.00000  Uiso   1.00
O1509  O     0.65931   0.69905   0.76028   0.00000  Uiso   1.00
O1510  O     0.59582   0.73376   0.79567   0.00000  Uiso   1.00
O1511  O     0.56108   0.87154   0.75000   0.00000  Uiso   1.00
O1512  O     0.39396   0.95046   0.76020   0.00000  Uiso   1.00
O1513  O     0.33497   0.94175   0.80942   0.00000  Uiso   1.00
O1514  O     0.40204   0.89718   0.82960   0.00000  Uiso   1.00
O1515  O     0.43892   0.79513   0.74999   0.00000  Uiso   1.00
O1516  O     0.49999   0.87156   0.68392   0.00000  Uiso   1.00
O1517  O     0.50001   0.79511   0.81607   0.00000  Uiso   1.00
O1518  O     0.50001   0.87156   0.81607   0.00000  Uiso   1.00
O1519  O     0.49999   0.79511   0.68392   0.00000  Uiso   1.00
O1520  O     0.59843   0.82689   0.85030   0.00000  Uiso   1.00
S1521  S     0.58007   0.80330   0.88975   0.00000  Uiso   1.00
S1522  S     0.41565   0.87450   0.61471   0.00000  Uiso   1.00
S1523  S     0.37820   0.79480   0.54101   0.00000  Uiso   1.00
S1524  S     0.60844   0.89470   0.95763   0.00000  Uiso   1.00
S1525  S     0.38096   0.74785   0.70062   0.00000  Uiso   1.00
S1526  S     0.62588   0.92130   0.71261   0.00000  Uiso   1.00
S1527  S     0.62635   0.73402   0.75091   0.00000  Uiso   1.00
S1528  S     0.37082   0.91757   0.78847   0.00000  Uiso   1.00
Zn1529 Zn    0.50000   0.88437   0.75000   0.00000  Uiso   1.00
Zn1530 Zn    0.50000   0.78229   0.75000   0.00000  Uiso   1.00
C1531  C     0.75332   0.83337   0.74908   0.00000  Uiso   1.00
C1532  C     0.70926   0.83263   0.74539   0.00000  Uiso   1.00
C1533  C     0.82122   0.69068   0.78689   0.00000  Uiso   1.00
C1534  C     0.84438   0.97609   0.71273   0.00000  Uiso   1.00
C1535  C     0.84449   0.69047   0.71277   0.00000  Uiso   1.00
C1536  C     0.82145   0.97623   0.78698   0.00000  Uiso   1.00
C1537  C     0.82934   0.83371   0.66363   0.00000  Uiso   1.00
C1538  C     0.83437   0.83330   0.83659   0.00000  Uiso   1.00
C1539  C     0.87062   0.83499   0.90972   0.00000  Uiso   1.00
C1540  C     0.78956   0.84060   0.59169   0.00000  Uiso   1.00
C1541  C     0.83382   0.83388   0.88449   0.00000  Uiso   1.00
C1542  C     0.91345   0.83270   0.74764   0.00000  Uiso   1.00
C1543  C     0.82725   0.83521   0.61569   0.00000  Uiso   1.00
C1544  C     0.79565   0.83456   0.90466   0.00000  Uiso   1.00
C1545  C     0.86469   0.83800   0.59423   0.00000  Uiso   1.00
C1546  C     0.79363   0.83440   0.95104   0.00000  Uiso   1.00
C1547  C     0.86524   0.84440   0.54836   0.00000  Uiso   1.00
C1548  C     0.83003   0.84026   0.97657   0.00000  Uiso   1.00
C1549  C     0.82839   0.83961   0.52325   0.00000  Uiso   1.00
C1550  C     0.86832   0.84592   0.95531   0.00000  Uiso   1.00
C1551  C     0.79022   0.83382   0.54490   0.00000  Uiso   1.00
C1552  C     0.75627   0.82634   0.97193   0.00000  Uiso   1.00
C1553  C     0.75463   0.82301   0.51866   0.00000  Uiso   1.00
C1554  C     0.90157   0.85708   0.52749   0.00000  Uiso   1.00
C1555  C     0.90262   0.86082   0.98088   0.00000  Uiso   1.00
C1556  C     0.68920   0.79231   0.73172   0.00000  Uiso   1.00
C1557  C     0.97877   0.87245   0.74139   0.00000  Uiso   1.00
C1558  C     0.98068   0.78923   0.74114   0.00000  Uiso   1.00
C1559  C     0.68614   0.87203   0.75468   0.00000  Uiso   1.00
C1560  C     0.95779   0.83101   0.74298   0.00000  Uiso   1.00
F1561  F     0.72198   0.81859   0.94643   0.00000  Uiso   1.00
F1562  F     0.93487   0.86918   0.55272   0.00000  Uiso   1.00
F1563  F     0.80798   0.71296   0.82367   0.00000  Uiso   1.00
F1564  F     0.85534   0.95406   0.67499   0.00000  Uiso   1.00
F1565  F     0.85579   0.71242   0.67512   0.00000  Uiso   1.00
F1566  F     0.80900   0.95426   0.82413   0.00000  Uiso   1.00
H1567  H     0.76791   0.83206   0.88406   0.00000  Uiso   1.00
H1568  H     0.73626   0.92132   0.85258   0.00000  Uiso   1.00
H1569  H     0.89317   0.83808   0.61386   0.00000  Uiso   1.00
H1570  H     0.88317   0.73963   0.90067   0.00000  Uiso   1.00
H1571  H     0.74321   0.92695   0.66475   0.00000  Uiso   1.00
H1572  H     0.66671   0.74703   0.51626   0.00000  Uiso   1.00
H1573  H     0.91760   0.95756   0.98391   0.00000  Uiso   1.00
H1574  H     0.76716   0.74094   0.65819   0.00000  Uiso   1.00
H1575  H     0.93075   0.92868   0.64664   0.00000  Uiso   1.00
H1576  H     0.91670   0.70333   0.79573   0.00000  Uiso   1.00
N1577  N     0.83333   0.95240   0.75000   0.00000  Uiso   1.00
N1578  N     0.83333   0.71427   0.75000   0.00000  Uiso   1.00
O1579  O     0.77226   0.87154   0.74999   0.00000  Uiso   1.00
O1580  O     0.94610   0.79531   0.92527   0.00000  Uiso   1.00
O1581  O     0.89574   0.75262   0.87356   0.00000  Uiso   1.00
O1582  O     0.72695   0.90009   0.57758   0.00000  Uiso   1.00
O1583  O     0.71861   0.84570   0.63864   0.00000  Uiso   1.00
O1584  O     0.76774   0.91285   0.65095   0.00000  Uiso   1.00
O1585  O     0.72416   0.76842   0.58217   0.00000  Uiso   1.00
O1586  O     0.67842   0.82856   0.55240   0.00000  Uiso   1.00
O1587  O     0.69234   0.75839   0.50295   0.00000  Uiso   1.00
O1588  O     0.98255   0.87031   0.96138   0.00000  Uiso   1.00
O1589  O     0.93277   0.90647   0.90931   0.00000  Uiso   1.00
O1590  O     0.89441   0.79513   0.75000   0.00000  Uiso   1.00
O1591  O     0.94512   0.94293   0.98725   0.00000  Uiso   1.00
O1592  O     0.73351   0.71402   0.73271   0.00000  Uiso   1.00
O1593  O     0.68379   0.72435   0.67051   0.00000  Uiso   1.00
O1594  O     0.75181   0.76806   0.66854   0.00000  Uiso   1.00
O1595  O     0.93522   0.95079   0.74407   0.00000  Uiso   1.00
O1596  O     0.99419   0.94802   0.69411   0.00000  Uiso   1.00
O1597  O     0.92850   0.90479   0.66982   0.00000  Uiso   1.00
O1598  O     0.93542   0.72023   0.70994   0.00000  Uiso   1.00
O1599  O     0.99264   0.69905   0.76028   0.00000  Uiso   1.00
O1600  O     0.92915   0.73376   0.79567   0.00000  Uiso   1.00
O1601  O     0.89441   0.87154   0.75000   0.00000  Uiso   1.00
O1602  O     0.72729   0.95046   0.76020   0.00000  Uiso   1.00
O1603  O     0.66831   0.94175   0.80942   0.00000  Uiso   1.00
O1604  O     0.73537   0.89718   0.82960   0.00000  Uiso   1.00
O1605  O     0.77226   0.79513   0.74999   0.00000  Uiso   1.00
O1606  O     0.83333   0.87156   0.68392   0.00000  Uiso   1.00
O1607  O     0.83334   0.79511   0.81607   0.00000  Uiso   1.00
O1608  O     0.83334   0.87156   0.81607   0.00000  Uiso   1.00
O1609  O     0.83333   0.79511   0.68392   0.00000  Uiso   1.00
O1610  O     0.93176   0.82689   0.85030   0.00000  Uiso   1.00
S1611  S     0.91340   0.80330   0.88975   0.00000  Uiso   1.00
S1612  S     0.74898   0.87450   0.61471   0.00000  Uiso   1.00
S1613  S     0.71153   0.79480   0.54101   0.00000  Uiso   1.00
S1614  S     0.94178   0.89470   0.95763   0.00000  Uiso   1.00
S1615  S     0.71429   0.74785   0.70062   0.00000  Uiso   1.00
S1616  S     0.95921   0.92130   0.71261   0.00000  Uiso   1.00
S1617  S     0.95969   0.73402   0.75091   0.00000  Uiso   1.00
S1618  S     0.70415   0.91757   0.78847   0.00000  Uiso   1.00
Zn1619 Zn    0.83333   0.88437   0.75000   0.00000  Uiso   1.00
Zn1620 Zn    0.83333   0.78229   0.75000   0.00000  Uiso   1.00
loop_
_geom_bond_atom_site_label_1
_geom_bond_atom_site_label_2
_geom_bond_distance
_geom_bond_site_symmetry_2
_ccdc_geom_bond_type
C1     C2      1.434   .     S
C1     O75     1.279   .     A
C1     O49     1.292   .     A
C2     C29     1.407   .     A
C2     C26     1.423   .     A
C3     F33     1.354   .     S
C3     N48     1.367   .     A
C3     C546    1.411   1_545 S
C4     F34     1.352   .     S
C4     N47     1.367   .     A
C4     C275    1.409   .     S
C5     N48     1.367   .     A
C5     F35     1.353   .     S
C5     C544    1.409   1_545 S
C6     N47     1.368   .     A
C6     F36     1.353   .     S
C6     C273    1.411   .     S
C7     O79     1.293   .     A
C7     O76     1.280   .     A
C7     C13     1.430   .     S
C8     O78     1.283   .     A
C8     O77     1.285   .     A
C8     C11     1.428   .     S
C9     C20     1.400   .     A
C9     C11     1.402   .     A
C9     S81     1.777   .     S
C10    C21     1.410   .     A
C10    S82     1.792   .     S
C10    C13     1.414   .     A
C11    C14     1.387   .     A
C12    O71     1.299   .     A
C12    C30     1.449   .     S
C12    O60     1.280   .     A
C13    C15     1.387   .     A
C14    C16     1.385   .     A
C14    H37     1.085   .     S
C15    H39     1.086   .     S
C15    C17     1.380   .     A
C16    C22     1.396   .     A
C16    C18     1.408   .     A
C17    C24     1.399   .     A
C17    C19     1.409   .     A
C18    C20     1.418   .     A
C18    C829    1.393   .     S
C19    C21     1.420   .     A
C19    C828    1.393   1_554 S
C20    C25     1.414   .     A
C21    C23     1.424   .     A
C22    F31     1.360   .     S
C22    C833    1.398   .     S
C23    S83     1.778   .     S
C23    C832    1.398   1_554 S
C24    F32     1.359   .     S
C24    C835    1.394   1_554 S
C25    S84     1.778   .     S
C25    C834    1.394   .     S
C26    S85     1.803   .     S
C26    C208    1.397   1_455 S
C27    C30     1.410   .     A
C27    S86     1.781   .     S
C27    C119    1.373   .     S
C28    S87     1.801   .     S
C28    C30     1.434   .     A
C28    C116    1.397   .     S
C29    S88     1.782   .     S
C29    C207    1.373   1_455 S
H38    O74     0.990   .     S
H40    O51     0.990   .     S
H41    O54     0.990   .     S
H42    O57     0.991   .     S
H43    O61     0.991   .     S
H44    O64     0.991   .     S
H45    O67     0.990   .     S
H46    O70     0.991   .     S
N47    Zn89    2.010   .     S
N48    Zn90    2.010   .     S
O49    Zn89    2.025   .     S
O50    S81     1.502   .     D
O51    S81     1.680   .     S
O52    S82     1.503   .     D
O53    S82     1.500   .     D
O54    S82     1.680   .     S
O55    S83     1.499   .     D
O56    S83     1.501   .     D
O57    S83     1.683   .     S
O58    S84     1.501   .     D
O59    S84     1.503   .     D
O60    Zn90    2.025   .     S
O61    S84     1.681   .     S
O62    S85     1.503   .     D
O63    S85     1.503   .     D
O64    S85     1.677   .     S
O65    S86     1.502   .     D
O66    S86     1.504   .     D
O67    S86     1.682   .     S
O68    S87     1.502   .     D
O69    S87     1.500   .     D
O70    S87     1.676   .     S
O71    Zn89    2.015   .     S
O72    S88     1.502   .     D
O73    S88     1.504   .     D
O74    S88     1.682   .     S
O75    Zn90    2.015   .     S
O76    Zn89    2.006   .     S
O77    Zn90    2.006   .     S
O78    Zn89    2.004   .     S
O79    Zn90    2.004   .     S
O80    S81     1.502   .     D
C91    C92     1.434   .     S
C91    O165    1.279   .     A
C91    O139    1.292   .     A
C92    C119    1.407   .     A
C92    C116    1.423   .     A
C93    F123    1.354   .     S
C93    N138    1.367   .     A
C93    C636    1.411   1_545 S
C94    F124    1.352   .     S
C94    N137    1.367   .     A
C94    C365    1.409   .     S
C95    N138    1.367   .     A
C95    F125    1.353   .     S
C95    C634    1.409   1_545 S
C96    N137    1.368   .     A
C96    F126    1.353   .     S
C96    C363    1.411   .     S
C97    O169    1.293   .     A
C97    O166    1.280   .     A
C97    C103    1.430   .     S
C98    O168    1.283   .     A
C98    O167    1.285   .     A
C98    C101    1.428   .     S
C99    C110    1.400   .     A
C99    C101    1.402   .     A
C99    S171    1.777   .     S
C100   C111    1.410   .     A
C100   S172    1.792   .     S
C100   C103    1.414   .     A
C101   C104    1.387   .     A
C102   O161    1.299   .     A
C102   C120    1.449   .     S
C102   O150    1.280   .     A
C103   C105    1.387   .     A
C104   C106    1.385   .     A
C104   H127    1.085   .     S
C105   H129    1.086   .     S
C105   C107    1.380   .     A
C106   C112    1.396   .     A
C106   C108    1.408   .     A
C107   C114    1.399   .     A
C107   C109    1.409   .     A
C108   C110    1.418   .     A
C108   C919    1.393   .     S
C109   C111    1.420   .     A
C109   C918    1.393   1_554 S
C110   C115    1.414   .     A
C111   C113    1.424   .     A
C112   F121    1.360   .     S
C112   C923    1.398   .     S
C113   S173    1.778   .     S
C113   C922    1.398   1_554 S
C114   F122    1.359   .     S
C114   C925    1.394   1_554 S
C115   S174    1.778   .     S
C115   C924    1.394   .     S
C116   S175    1.803   .     S
C117   C120    1.410   .     A
C117   S176    1.781   .     S
C117   C209    1.373   .     S
C118   S177    1.801   .     S
C118   C120    1.434   .     A
C118   C206    1.397   .     S
C119   S178    1.782   .     S
H128   O164    0.990   .     S
H130   O141    0.990   .     S
H131   O144    0.990   .     S
H132   O147    0.991   .     S
H133   O151    0.991   .     S
H134   O154    0.991   .     S
H135   O157    0.990   .     S
H136   O160    0.991   .     S
N137   Zn179   2.010   .     S
N138   Zn180   2.010   .     S
O139   Zn179   2.025   .     S
O140   S171    1.502   .     D
O141   S171    1.680   .     S
O142   S172    1.503   .     D
O143   S172    1.500   .     D
O144   S172    1.680   .     S
O145   S173    1.499   .     D
O146   S173    1.501   .     D
O147   S173    1.683   .     S
O148   S174    1.501   .     D
O149   S174    1.503   .     D
O150   Zn180   2.025   .     S
O151   S174    1.681   .     S
O152   S175    1.503   .     D
O153   S175    1.503   .     D
O154   S175    1.677   .     S
O155   S176    1.502   .     D
O156   S176    1.504   .     D
O157   S176    1.682   .     S
O158   S177    1.502   .     D
O159   S177    1.500   .     D
O160   S177    1.676   .     S
O161   Zn179   2.015   .     S
O162   S178    1.502   .     D
O163   S178    1.504   .     D
O164   S178    1.682   .     S
O165   Zn180   2.015   .     S
O166   Zn179   2.006   .     S
O167   Zn180   2.006   .     S
O168   Zn179   2.004   .     S
O169   Zn180   2.004   .     S
O170   S171    1.502   .     D
C181   C182    1.434   .     S
C181   O255    1.279   .     A
C181   O229    1.292   .     A
C182   C209    1.407   .     A
C182   C206    1.423   .     A
C183   F213    1.354   .     S
C183   N228    1.367   .     A
C183   C726    1.411   1_545 S
C184   F214    1.352   .     S
C184   N227    1.367   .     A
C184   C455    1.409   .     S
C185   N228    1.367   .     A
C185   F215    1.353   .     S
C185   C724    1.409   1_545 S
C186   N227    1.368   .     A
C186   F216    1.353   .     S
C186   C453    1.411   .     S
C187   O259    1.293   .     A
C187   O256    1.280   .     A
C187   C193    1.430   .     S
C188   O258    1.283   .     A
C188   O257    1.285   .     A
C188   C191    1.428   .     S
C189   C200    1.400   .     A
C189   C191    1.402   .     A
C189   S261    1.777   .     S
C190   C201    1.410   .     A
C190   S262    1.792   .     S
C190   C193    1.414   .     A
C191   C194    1.387   .     A
C192   O251    1.299   .     A
C192   C210    1.449   .     S
C192   O240    1.280   .     A
C193   C195    1.387   .     A
C194   C196    1.385   .     A
C194   H217    1.085   .     S
C195   H219    1.086   .     S
C195   C197    1.380   .     A
C196   C202    1.396   .     A
C196   C198    1.408   .     A
C197   C204    1.399   .     A
C197   C199    1.409   .     A
C198   C200    1.418   .     A
C198   C1009   1.393   .     S
C199   C201    1.420   .     A
C199   C1008   1.393   1_554 S
C200   C205    1.414   .     A
C201   C203    1.424   .     A
C202   F211    1.360   .     S
C202   C1013   1.398   .     S
C203   S263    1.778   .     S
C203   C1012   1.398   1_554 S
C204   F212    1.359   .     S
C204   C1015   1.394   1_554 S
C205   S264    1.778   .     S
C205   C1014   1.394   .     S
C206   S265    1.803   .     S
C207   C210    1.410   .     A
C207   S266    1.781   .     S
C207   C29     1.373   1_655 S
C208   S267    1.801   .     S
C208   C210    1.434   .     A
C208   C26     1.397   1_655 S
C209   S268    1.782   .     S
H218   O254    0.990   .     S
H220   O231    0.990   .     S
H221   O234    0.990   .     S
H222   O237    0.991   .     S
H223   O241    0.991   .     S
H224   O244    0.991   .     S
H225   O247    0.990   .     S
H226   O250    0.991   .     S
N227   Zn269   2.010   .     S
N228   Zn270   2.010   .     S
O229   Zn269   2.025   .     S
O230   S261    1.502   .     D
O231   S261    1.680   .     S
O232   S262    1.503   .     D
O233   S262    1.500   .     D
O234   S262    1.680   .     S
O235   S263    1.499   .     D
O236   S263    1.501   .     D
O237   S263    1.683   .     S
O238   S264    1.501   .     D
O239   S264    1.503   .     D
O240   Zn270   2.025   .     S
O241   S264    1.681   .     S
O242   S265    1.503   .     D
O243   S265    1.503   .     D
O244   S265    1.677   .     S
O245   S266    1.502   .     D
O246   S266    1.504   .     D
O247   S266    1.682   .     S
O248   S267    1.502   .     D
O249   S267    1.500   .     D
O250   S267    1.676   .     S
O251   Zn269   2.015   .     S
O252   S268    1.502   .     D
O253   S268    1.504   .     D
O254   S268    1.682   .     S
O255   Zn270   2.015   .     S
O256   Zn269   2.006   .     S
O257   Zn270   2.006   .     S
O258   Zn269   2.004   .     S
O259   Zn270   2.004   .     S
O260   S261    1.502   .     D
C271   C272    1.434   .     S
C271   O345    1.279   .     A
C271   O319    1.292   .     A
C272   C299    1.407   .     A
C272   C296    1.423   .     A
C273   F303    1.354   .     S
C273   N318    1.367   .     A
C274   F304    1.352   .     S
C274   N317    1.367   .     A
C274   C545    1.409   .     S
C275   N318    1.367   .     A
C275   F305    1.353   .     S
C276   N317    1.368   .     A
C276   F306    1.353   .     S
C276   C543    1.411   .     S
C277   O349    1.293   .     A
C277   O346    1.280   .     A
C277   C283    1.430   .     S
C278   O348    1.283   .     A
C278   O347    1.285   .     A
C278   C281    1.428   .     S
C279   C290    1.400   .     A
C279   C281    1.402   .     A
C279   S351    1.777   .     S
C280   C291    1.410   .     A
C280   S352    1.792   .     S
C280   C283    1.414   .     A
C281   C284    1.387   .     A
C282   O341    1.299   .     A
C282   C300    1.449   .     S
C282   O330    1.280   .     A
C283   C285    1.387   .     A
C284   C286    1.385   .     A
C284   H307    1.085   .     S
C285   H309    1.086   .     S
C285   C287    1.380   .     A
C286   C292    1.396   .     A
C286   C288    1.408   .     A
C287   C294    1.399   .     A
C287   C289    1.409   .     A
C288   C290    1.418   .     A
C288   C1099   1.393   .     S
C289   C291    1.420   .     A
C289   C1098   1.393   1_554 S
C290   C295    1.414   .     A
C291   C293    1.424   .     A
C292   F301    1.360   .     S
C292   C1103   1.398   .     S
C293   S353    1.778   .     S
C293   C1102   1.398   1_554 S
C294   F302    1.359   .     S
C294   C1105   1.394   1_554 S
C295   S354    1.778   .     S
C295   C1104   1.394   .     S
C296   S355    1.803   .     S
C296   C478    1.397   1_455 S
C297   C300    1.410   .     A
C297   S356    1.781   .     S
C297   C389    1.373   .     S
C298   S357    1.801   .     S
C298   C300    1.434   .     A
C298   C386    1.397   .     S
C299   S358    1.782   .     S
C299   C477    1.373   1_455 S
H308   O344    0.990   .     S
H310   O321    0.990   .     S
H311   O324    0.990   .     S
H312   O327    0.991   .     S
H313   O331    0.991   .     S
H314   O334    0.991   .     S
H315   O337    0.990   .     S
H316   O340    0.991   .     S
N317   Zn359   2.010   .     S
N318   Zn360   2.010   .     S
O319   Zn359   2.025   .     S
O320   S351    1.502   .     D
O321   S351    1.680   .     S
O322   S352    1.503   .     D
O323   S352    1.500   .     D
O324   S352    1.680   .     S
O325   S353    1.499   .     D
O326   S353    1.501   .     D
O327   S353    1.683   .     S
O328   S354    1.501   .     D
O329   S354    1.503   .     D
O330   Zn360   2.025   .     S
O331   S354    1.681   .     S
O332   S355    1.503   .     D
O333   S355    1.503   .     D
O334   S355    1.677   .     S
O335   S356    1.502   .     D
O336   S356    1.504   .     D
O337   S356    1.682   .     S
O338   S357    1.502   .     D
O339   S357    1.500   .     D
O340   S357    1.676   .     S
O341   Zn359   2.015   .     S
O342   S358    1.502   .     D
O343   S358    1.504   .     D
O344   S358    1.682   .     S
O345   Zn360   2.015   .     S
O346   Zn359   2.006   .     S
O347   Zn360   2.006   .     S
O348   Zn359   2.004   .     S
O349   Zn360   2.004   .     S
O350   S351    1.502   .     D
C361   C362    1.434   .     S
C361   O435    1.279   .     A
C361   O409    1.292   .     A
C362   C389    1.407   .     A
C362   C386    1.423   .     A
C363   F393    1.354   .     S
C363   N408    1.367   .     A
C364   F394    1.352   .     S
C364   N407    1.367   .     A
C364   C635    1.409   .     S
C365   N408    1.367   .     A
C365   F395    1.353   .     S
C366   N407    1.368   .     A
C366   F396    1.353   .     S
C366   C633    1.411   .     S
C367   O439    1.293   .     A
C367   O436    1.280   .     A
C367   C373    1.430   .     S
C368   O438    1.283   .     A
C368   O437    1.285   .     A
C368   C371    1.428   .     S
C369   C380    1.400   .     A
C369   C371    1.402   .     A
C369   S441    1.777   .     S
C370   C381    1.410   .     A
C370   S442    1.792   .     S
C370   C373    1.414   .     A
C371   C374    1.387   .     A
C372   O431    1.299   .     A
C372   C390    1.449   .     S
C372   O420    1.280   .     A
C373   C375    1.387   .     A
C374   C376    1.385   .     A
C374   H397    1.085   .     S
C375   H399    1.086   .     S
C375   C377    1.380   .     A
C376   C382    1.396   .     A
C376   C378    1.408   .     A
C377   C384    1.399   .     A
C377   C379    1.409   .     A
C378   C380    1.418   .     A
C378   C1189   1.393   .     S
C379   C381    1.420   .     A
C379   C1188   1.393   1_554 S
C380   C385    1.414   .     A
C381   C383    1.424   .     A
C382   F391    1.360   .     S
C382   C1193   1.398   .     S
C383   S443    1.778   .     S
C383   C1192   1.398   1_554 S
C384   F392    1.359   .     S
C384   C1195   1.394   1_554 S
C385   S444    1.778   .     S
C385   C1194   1.394   .     S
C386   S445    1.803   .     S
C387   C390    1.410   .     A
C387   S446    1.781   .     S
C387   C479    1.373   .     S
C388   S447    1.801   .     S
C388   C390    1.434   .     A
C388   C476    1.397   .     S
C389   S448    1.782   .     S
H398   O434    0.990   .     S
H400   O411    0.990   .     S
H401   O414    0.990   .     S
H402   O417    0.991   .     S
H403   O421    0.991   .     S
H404   O424    0.991   .     S
H405   O427    0.990   .     S
H406   O430    0.991   .     S
N407   Zn449   2.010   .     S
N408   Zn450   2.010   .     S
O409   Zn449   2.025   .     S
O410   S441    1.502   .     D
O411   S441    1.680   .     S
O412   S442    1.503   .     D
O413   S442    1.500   .     D
O414   S442    1.680   .     S
O415   S443    1.499   .     D
O416   S443    1.501   .     D
O417   S443    1.683   .     S
O418   S444    1.501   .     D
O419   S444    1.503   .     D
O420   Zn450   2.025   .     S
O421   S444    1.681   .     S
O422   S445    1.503   .     D
O423   S445    1.503   .     D
O424   S445    1.677   .     S
O425   S446    1.502   .     D
O426   S446    1.504   .     D
O427   S446    1.682   .     S
O428   S447    1.502   .     D
O429   S447    1.500   .     D
O430   S447    1.676   .     S
O431   Zn449   2.015   .     S
O432   S448    1.502   .     D
O433   S448    1.504   .     D
O434   S448    1.682   .     S
O435   Zn450   2.015   .     S
O436   Zn449   2.006   .     S
O437   Zn450   2.006   .     S
O438   Zn449   2.004   .     S
O439   Zn450   2.004   .     S
O440   S441    1.502   .     D
C451   C452    1.434   .     S
C451   O525    1.279   .     A
C451   O499    1.292   .     A
C452   C479    1.407   .     A
C452   C476    1.423   .     A
C453   F483    1.354   .     S
C453   N498    1.367   .     A
C454   F484    1.352   .     S
C454   N497    1.367   .     A
C454   C725    1.409   .     S
C455   N498    1.367   .     A
C455   F485    1.353   .     S
C456   N497    1.368   .     A
C456   F486    1.353   .     S
C456   C723    1.411   .     S
C457   O529    1.293   .     A
C457   O526    1.280   .     A
C457   C463    1.430   .     S
C458   O528    1.283   .     A
C458   O527    1.285   .     A
C458   C461    1.428   .     S
C459   C470    1.400   .     A
C459   C461    1.402   .     A
C459   S531    1.777   .     S
C460   C471    1.410   .     A
C460   S532    1.792   .     S
C460   C463    1.414   .     A
C461   C464    1.387   .     A
C462   O521    1.299   .     A
C462   C480    1.449   .     S
C462   O510    1.280   .     A
C463   C465    1.387   .     A
C464   C466    1.385   .     A
C464   H487    1.085   .     S
C465   H489    1.086   .     S
C465   C467    1.380   .     A
C466   C472    1.396   .     A
C466   C468    1.408   .     A
C467   C474    1.399   .     A
C467   C469    1.409   .     A
C468   C470    1.418   .     A
C468   C1279   1.393   .     S
C469   C471    1.420   .     A
C469   C1278   1.393   1_554 S
C470   C475    1.414   .     A
C471   C473    1.424   .     A
C472   F481    1.360   .     S
C472   C1283   1.398   .     S
C473   S533    1.778   .     S
C473   C1282   1.398   1_554 S
C474   F482    1.359   .     S
C474   C1285   1.394   1_554 S
C475   S534    1.778   .     S
C475   C1284   1.394   .     S
C476   S535    1.803   .     S
C477   C480    1.410   .     A
C477   S536    1.781   .     S
C477   C299    1.373   1_655 S
C478   S537    1.801   .     S
C478   C480    1.434   .     A
C478   C296    1.397   1_655 S
C479   S538    1.782   .     S
H488   O524    0.990   .     S
H490   O501    0.990   .     S
H491   O504    0.990   .     S
H492   O507    0.991   .     S
H493   O511    0.991   .     S
H494   O514    0.991   .     S
H495   O517    0.990   .     S
H496   O520    0.991   .     S
N497   Zn539   2.010   .     S
N498   Zn540   2.010   .     S
O499   Zn539   2.025   .     S
O500   S531    1.502   .     D
O501   S531    1.680   .     S
O502   S532    1.503   .     D
O503   S532    1.500   .     D
O504   S532    1.680   .     S
O505   S533    1.499   .     D
O506   S533    1.501   .     D
O507   S533    1.683   .     S
O508   S534    1.501   .     D
O509   S534    1.503   .     D
O510   Zn540   2.025   .     S
O511   S534    1.681   .     S
O512   S535    1.503   .     D
O513   S535    1.503   .     D
O514   S535    1.677   .     S
O515   S536    1.502   .     D
O516   S536    1.504   .     D
O517   S536    1.682   .     S
O518   S537    1.502   .     D
O519   S537    1.500   .     D
O520   S537    1.676   .     S
O521   Zn539   2.015   .     S
O522   S538    1.502   .     D
O523   S538    1.504   .     D
O524   S538    1.682   .     S
O525   Zn540   2.015   .     S
O526   Zn539   2.006   .     S
O527   Zn540   2.006   .     S
O528   Zn539   2.004   .     S
O529   Zn540   2.004   .     S
O530   S531    1.502   .     D
C541   C542    1.434   .     S
C541   O615    1.279   .     A
C541   O589    1.292   .     A
C542   C569    1.407   .     A
C542   C566    1.423   .     A
C543   F573    1.354   .     S
C543   N588    1.367   .     A
C544   F574    1.352   .     S
C544   N587    1.367   .     A
C544   C5      1.409   1_565 S
C545   N588    1.367   .     A
C545   F575    1.353   .     S
C546   N587    1.368   .     A
C546   F576    1.353   .     S
C546   C3      1.411   1_565 S
C547   O619    1.293   .     A
C547   O616    1.280   .     A
C547   C553    1.430   .     S
C548   O618    1.283   .     A
C548   O617    1.285   .     A
C548   C551    1.428   .     S
C549   C560    1.400   .     A
C549   C551    1.402   .     A
C549   S621    1.777   .     S
C550   C561    1.410   .     A
C550   S622    1.792   .     S
C550   C553    1.414   .     A
C551   C554    1.387   .     A
C552   O611    1.299   .     A
C552   C570    1.449   .     S
C552   O600    1.280   .     A
C553   C555    1.387   .     A
C554   C556    1.385   .     A
C554   H577    1.085   .     S
C555   H579    1.086   .     S
C555   C557    1.380   .     A
C556   C562    1.396   .     A
C556   C558    1.408   .     A
C557   C564    1.399   .     A
C557   C559    1.409   .     A
C558   C560    1.418   .     A
C558   C1369   1.393   .     S
C559   C561    1.420   .     A
C559   C1368   1.393   1_554 S
C560   C565    1.414   .     A
C561   C563    1.424   .     A
C562   F571    1.360   .     S
C562   C1373   1.398   .     S
C563   S623    1.778   .     S
C563   C1372   1.398   1_554 S
C564   F572    1.359   .     S
C564   C1375   1.394   1_554 S
C565   S624    1.778   .     S
C565   C1374   1.394   .     S
C566   S625    1.803   .     S
C566   C748    1.397   1_455 S
C567   C570    1.410   .     A
C567   S626    1.781   .     S
C567   C659    1.373   .     S
C568   S627    1.801   .     S
C568   C570    1.434   .     A
C568   C656    1.397   .     S
C569   S628    1.782   .     S
C569   C747    1.373   1_455 S
H578   O614    0.990   .     S
H580   O591    0.990   .     S
H581   O594    0.990   .     S
H582   O597    0.991   .     S
H583   O601    0.991   .     S
H584   O604    0.991   .     S
H585   O607    0.990   .     S
H586   O610    0.991   .     S
N587   Zn629   2.010   .     S
N588   Zn630   2.010   .     S
O589   Zn629   2.025   .     S
O590   S621    1.502   .     D
O591   S621    1.680   .     S
O592   S622    1.503   .     D
O593   S622    1.500   .     D
O594   S622    1.680   .     S
O595   S623    1.499   .     D
O596   S623    1.501   .     D
O597   S623    1.683   .     S
O598   S624    1.501   .     D
O599   S624    1.503   .     D
O600   Zn630   2.025   .     S
O601   S624    1.681   .     S
O602   S625    1.503   .     D
O603   S625    1.503   .     D
O604   S625    1.677   .     S
O605   S626    1.502   .     D
O606   S626    1.504   .     D
O607   S626    1.682   .     S
O608   S627    1.502   .     D
O609   S627    1.500   .     D
O610   S627    1.676   .     S
O611   Zn629   2.015   .     S
O612   S628    1.502   .     D
O613   S628    1.504   .     D
O614   S628    1.682   .     S
O615   Zn630   2.015   .     S
O616   Zn629   2.006   .     S
O617   Zn630   2.006   .     S
O618   Zn629   2.004   .     S
O619   Zn630   2.004   .     S
O620   S621    1.502   .     D
C631   C632    1.434   .     S
C631   O705    1.279   .     A
C631   O679    1.292   .     A
C632   C659    1.407   .     A
C632   C656    1.423   .     A
C633   F663    1.354   .     S
C633   N678    1.367   .     A
C634   F664    1.352   .     S
C634   N677    1.367   .     A
C634   C95     1.409   1_565 S
C635   N678    1.367   .     A
C635   F665    1.353   .     S
C636   N677    1.368   .     A
C636   F666    1.353   .     S
C636   C93     1.411   1_565 S
C637   O709    1.293   .     A
C637   O706    1.280   .     A
C637   C643    1.430   .     S
C638   O708    1.283   .     A
C638   O707    1.285   .     A
C638   C641    1.428   .     S
C639   C650    1.400   .     A
C639   C641    1.402   .     A
C639   S711    1.777   .     S
C640   C651    1.410   .     A
C640   S712    1.792   .     S
C640   C643    1.414   .     A
C641   C644    1.387   .     A
C642   O701    1.299   .     A
C642   C660    1.449   .     S
C642   O690    1.280   .     A
C643   C645    1.387   .     A
C644   C646    1.385   .     A
C644   H667    1.085   .     S
C645   H669    1.086   .     S
C645   C647    1.380   .     A
C646   C652    1.396   .     A
C646   C648    1.408   .     A
C647   C654    1.399   .     A
C647   C649    1.409   .     A
C648   C650    1.418   .     A
C648   C1459   1.393   .     S
C649   C651    1.420   .     A
C649   C1458   1.393   1_554 S
C650   C655    1.414   .     A
C651   C653    1.424   .     A
C652   F661    1.360   .     S
C652   C1463   1.398   .     S
C653   S713    1.778   .     S
C653   C1462   1.398   1_554 S
C654   F662    1.359   .     S
C654   C1465   1.394   1_554 S
C655   S714    1.778   .     S
C655   C1464   1.394   .     S
C656   S715    1.803   .     S
C657   C660    1.410   .     A
C657   S716    1.781   .     S
C657   C749    1.373   .     S
C658   S717    1.801   .     S
C658   C660    1.434   .     A
C658   C746    1.397   .     S
C659   S718    1.782   .     S
H668   O704    0.990   .     S
H670   O681    0.990   .     S
H671   O684    0.990   .     S
H672   O687    0.991   .     S
H673   O691    0.991   .     S
H674   O694    0.991   .     S
H675   O697    0.990   .     S
H676   O700    0.991   .     S
N677   Zn719   2.010   .     S
N678   Zn720   2.010   .     S
O679   Zn719   2.025   .     S
O680   S711    1.502   .     D
O681   S711    1.680   .     S
O682   S712    1.503   .     D
O683   S712    1.500   .     D
O684   S712    1.680   .     S
O685   S713    1.499   .     D
O686   S713    1.501   .     D
O687   S713    1.683   .     S
O688   S714    1.501   .     D
O689   S714    1.503   .     D
O690   Zn720   2.025   .     S
O691   S714    1.681   .     S
O692   S715    1.503   .     D
O693   S715    1.503   .     D
O694   S715    1.677   .     S
O695   S716    1.502   .     D
O696   S716    1.504   .     D
O697   S716    1.682   .     S
O698   S717    1.502   .     D
O699   S717    1.500   .     D
O700   S717    1.676   .     S
O701   Zn719   2.015   .     S
O702   S718    1.502   .     D
O703   S718    1.504   .     D
O704   S718    1.682   .     S
O705   Zn720   2.015   .     S
O706   Zn719   2.006   .     S
O707   Zn720   2.006   .     S
O708   Zn719   2.004   .     S
O709   Zn720   2.004   .     S
O710   S711    1.502   .     D
C721   C722    1.434   .     S
C721   O795    1.279   .     A
C721   O769    1.292   .     A
C722   C749    1.407   .     A
C722   C746    1.423   .     A
C723   F753    1.354   .     S
C723   N768    1.367   .     A
C724   F754    1.352   .     S
C724   N767    1.367   .     A
C724   C185    1.409   1_565 S
C725   N768    1.367   .     A
C725   F755    1.353   .     S
C726   N767    1.368   .     A
C726   F756    1.353   .     S
C726   C183    1.411   1_565 S
C727   O799    1.293   .     A
C727   O796    1.280   .     A
C727   C733    1.430   .     S
C728   O798    1.283   .     A
C728   O797    1.285   .     A
C728   C731    1.428   .     S
C729   C740    1.400   .     A
C729   C731    1.402   .     A
C729   S801    1.777   .     S
C730   C741    1.410   .     A
C730   S802    1.792   .     S
C730   C733    1.414   .     A
C731   C734    1.387   .     A
C732   O791    1.299   .     A
C732   C750    1.449   .     S
C732   O780    1.280   .     A
C733   C735    1.387   .     A
C734   C736    1.385   .     A
C734   H757    1.085   .     S
C735   H759    1.086   .     S
C735   C737    1.380   .     A
C736   C742    1.396   .     A
C736   C738    1.408   .     A
C737   C744    1.399   .     A
C737   C739    1.409   .     A
C738   C740    1.418   .     A
C738   C1549   1.393   .     S
C739   C741    1.420   .     A
C739   C1548   1.393   1_554 S
C740   C745    1.414   .     A
C741   C743    1.424   .     A
C742   F751    1.360   .     S
C742   C1553   1.398   .     S
C743   S803    1.778   .     S
C743   C1552   1.398   1_554 S
C744   F752    1.359   .     S
C744   C1555   1.394   1_554 S
C745   S804    1.778   .     S
C745   C1554   1.394   .     S
C746   S805    1.803   .     S
C747   C750    1.410   .     A
C747   S806    1.781   .     S
C747   C569    1.373   1_655 S
C748   S807    1.801   .     S
C748   C750    1.434   .     A
C748   C566    1.397   1_655 S
C749   S808    1.782   .     S
H758   O794    0.990   .     S
H760   O771    0.990   .     S
H761   O774    0.990   .     S
H762   O777    0.991   .     S
H763   O781    0.991   .     S
H764   O784    0.991   .     S
H765   O787    0.990   .     S
H766   O790    0.991   .     S
N767   Zn809   2.010   .     S
N768   Zn810   2.010   .     S
O769   Zn809   2.025   .     S
O770   S801    1.502   .     D
O771   S801    1.680   .     S
O772   S802    1.503   .     D
O773   S802    1.500   .     D
O774   S802    1.680   .     S
O775   S803    1.499   .     D
O776   S803    1.501   .     D
O777   S803    1.683   .     S
O778   S804    1.501   .     D
O779   S804    1.503   .     D
O780   Zn810   2.025   .     S
O781   S804    1.681   .     S
O782   S805    1.503   .     D
O783   S805    1.503   .     D
O784   S805    1.677   .     S
O785   S806    1.502   .     D
O786   S806    1.504   .     D
O787   S806    1.682   .     S
O788   S807    1.502   .     D
O789   S807    1.500   .     D
O790   S807    1.676   .     S
O791   Zn809   2.015   .     S
O792   S808    1.502   .     D
O793   S808    1.504   .     D
O794   S808    1.682   .     S
O795   Zn810   2.015   .     S
O796   Zn809   2.006   .     S
O797   Zn810   2.006   .     S
O798   Zn809   2.004   .     S
O799   Zn810   2.004   .     S
O800   S801    1.502   .     D
C811   C812    1.434   .     S
C811   O885    1.279   .     A
C811   O859    1.292   .     A
C812   C839    1.407   .     A
C812   C836    1.423   .     A
C813   F843    1.354   .     S
C813   N858    1.367   .     A
C813   C1356   1.411   1_545 S
C814   F844    1.352   .     S
C814   N857    1.367   .     A
C814   C1085   1.409   .     S
C815   N858    1.367   .     A
C815   F845    1.353   .     S
C815   C1354   1.409   1_545 S
C816   N857    1.368   .     A
C816   F846    1.353   .     S
C816   C1083   1.411   .     S
C817   O889    1.293   .     A
C817   O886    1.280   .     A
C817   C823    1.430   .     S
C818   O888    1.283   .     A
C818   O887    1.285   .     A
C818   C821    1.428   .     S
C819   C830    1.400   .     A
C819   C821    1.402   .     A
C819   S891    1.777   .     S
C820   C831    1.410   .     A
C820   S892    1.792   .     S
C820   C823    1.414   .     A
C821   C824    1.387   .     A
C822   O881    1.299   .     A
C822   C840    1.449   .     S
C822   O870    1.280   .     A
C823   C825    1.387   .     A
C824   C826    1.385   .     A
C824   H847    1.085   .     S
C825   H849    1.086   .     S
C825   C827    1.380   .     A
C826   C832    1.396   .     A
C826   C828    1.408   .     A
C827   C834    1.399   .     A
C827   C829    1.409   .     A
C828   C830    1.418   .     A
C828   C19     1.393   1_556 S
C829   C831    1.420   .     A
C830   C835    1.414   .     A
C831   C833    1.424   .     A
C832   F841    1.360   .     S
C832   C23     1.398   1_556 S
C833   S893    1.778   .     S
C834   F842    1.359   .     S
C835   S894    1.778   .     S
C835   C24     1.394   1_556 S
C836   S895    1.803   .     S
C836   C1018   1.397   1_455 S
C837   C840    1.410   .     A
C837   S896    1.781   .     S
C837   C929    1.373   .     S
C838   S897    1.801   .     S
C838   C840    1.434   .     A
C838   C926    1.397   .     S
C839   S898    1.782   .     S
C839   C1017   1.373   1_455 S
H848   O884    0.990   .     S
H850   O861    0.990   .     S
H851   O864    0.990   .     S
H852   O867    0.991   .     S
H853   O871    0.991   .     S
H854   O874    0.991   .     S
H855   O877    0.990   .     S
H856   O880    0.991   .     S
N857   Zn899   2.010   .     S
N858   Zn900   2.010   .     S
O859   Zn899   2.025   .     S
O860   S891    1.502   .     D
O861   S891    1.680   .     S
O862   S892    1.503   .     D
O863   S892    1.500   .     D
O864   S892    1.680   .     S
O865   S893    1.499   .     D
O866   S893    1.501   .     D
O867   S893    1.683   .     S
O868   S894    1.501   .     D
O869   S894    1.503   .     D
O870   Zn900   2.025   .     S
O871   S894    1.681   .     S
O872   S895    1.503   .     D
O873   S895    1.503   .     D
O874   S895    1.677   .     S
O875   S896    1.502   .     D
O876   S896    1.504   .     D
O877   S896    1.682   .     S
O878   S897    1.502   .     D
O879   S897    1.500   .     D
O880   S897    1.676   .     S
O881   Zn899   2.015   .     S
O882   S898    1.502   .     D
O883   S898    1.504   .     D
O884   S898    1.682   .     S
O885   Zn900   2.015   .     S
O886   Zn899   2.006   .     S
O887   Zn900   2.006   .     S
O888   Zn899   2.004   .     S
O889   Zn900   2.004   .     S
O890   S891    1.502   .     D
C901   C902    1.434   .     S
C901   O975    1.279   .     A
C901   O949    1.292   .     A
C902   C929    1.407   .     A
C902   C926    1.423   .     A
C903   F933    1.354   .     S
C903   N948    1.367   .     A
C903   C1446   1.411   1_545 S
C904   F934    1.352   .     S
C904   N947    1.367   .     A
C904   C1175   1.409   .     S
C905   N948    1.367   .     A
C905   F935    1.353   .     S
C905   C1444   1.409   1_545 S
C906   N947    1.368   .     A
C906   F936    1.353   .     S
C906   C1173   1.411   .     S
C907   O979    1.293   .     A
C907   O976    1.280   .     A
C907   C913    1.430   .     S
C908   O978    1.283   .     A
C908   O977    1.285   .     A
C908   C911    1.428   .     S
C909   C920    1.400   .     A
C909   C911    1.402   .     A
C909   S981    1.777   .     S
C910   C921    1.410   .     A
C910   S982    1.792   .     S
C910   C913    1.414   .     A
C911   C914    1.387   .     A
C912   O971    1.299   .     A
C912   C930    1.449   .     S
C912   O960    1.280   .     A
C913   C915    1.387   .     A
C914   C916    1.385   .     A
C914   H937    1.085   .     S
C915   H939    1.086   .     S
C915   C917    1.380   .     A
C916   C922    1.396   .     A
C916   C918    1.408   .     A
C917   C924    1.399   .     A
C917   C919    1.409   .     A
C918   C920    1.418   .     A
C918   C109    1.393   1_556 S
C919   C921    1.420   .     A
C920   C925    1.414   .     A
C921   C923    1.424   .     A
C922   F931    1.360   .     S
C922   C113    1.398   1_556 S
C923   S983    1.778   .     S
C924   F932    1.359   .     S
C925   S984    1.778   .     S
C925   C114    1.394   1_556 S
C926   S985    1.803   .     S
C927   C930    1.410   .     A
C927   S986    1.781   .     S
C927   C1019   1.373   .     S
C928   S987    1.801   .     S
C928   C930    1.434   .     A
C928   C1016   1.397   .     S
C929   S988    1.782   .     S
H938   O974    0.990   .     S
H940   O951    0.990   .     S
H941   O954    0.990   .     S
H942   O957    0.991   .     S
H943   O961    0.991   .     S
H944   O964    0.991   .     S
H945   O967    0.990   .     S
H946   O970    0.991   .     S
N947   Zn989   2.010   .     S
N948   Zn990   2.010   .     S
O949   Zn989   2.025   .     S
O950   S981    1.502   .     D
O951   S981    1.680   .     S
O952   S982    1.503   .     D
O953   S982    1.500   .     D
O954   S982    1.680   .     S
O955   S983    1.499   .     D
O956   S983    1.501   .     D
O957   S983    1.683   .     S
O958   S984    1.501   .     D
O959   S984    1.503   .     D
O960   Zn990   2.025   .     S
O961   S984    1.681   .     S
O962   S985    1.503   .     D
O963   S985    1.503   .     D
O964   S985    1.677   .     S
O965   S986    1.502   .     D
O966   S986    1.504   .     D
O967   S986    1.682   .     S
O968   S987    1.502   .     D
O969   S987    1.500   .     D
O970   S987    1.676   .     S
O971   Zn989   2.015   .     S
O972   S988    1.502   .     D
O973   S988    1.504   .     D
O974   S988    1.682   .     S
O975   Zn990   2.015   .     S
O976   Zn989   2.006   .     S
O977   Zn990   2.006   .     S
O978   Zn989   2.004   .     S
O979   Zn990   2.004   .     S
O980   S981    1.502   .     D
C991   C992    1.434   .     S
C991   O1065   1.279   .     A
C991   O1039   1.292   .     A
C992   C1019   1.407   .     A
C992   C1016   1.423   .     A
C993   F1023   1.354   .     S
C993   N1038   1.367   .     A
C993   C1536   1.411   1_545 S
C994   F1024   1.352   .     S
C994   N1037   1.367   .     A
C994   C1265   1.409   .     S
C995   N1038   1.367   .     A
C995   F1025   1.353   .     S
C995   C1534   1.409   1_545 S
C996   N1037   1.368   .     A
C996   F1026   1.353   .     S
C996   C1263   1.411   .     S
C997   O1069   1.293   .     A
C997   O1066   1.280   .     A
C997   C1003   1.430   .     S
C998   O1068   1.283   .     A
C998   O1067   1.285   .     A
C998   C1001   1.428   .     S
C999   C1010   1.400   .     A
C999   C1001   1.402   .     A
C999   S1071   1.777   .     S
C1000  C1011   1.410   .     A
C1000  S1072   1.792   .     S
C1000  C1003   1.414   .     A
C1001  C1004   1.387   .     A
C1002  O1061   1.299   .     A
C1002  C1020   1.449   .     S
C1002  O1050   1.280   .     A
C1003  C1005   1.387   .     A
C1004  C1006   1.385   .     A
C1004  H1027   1.085   .     S
C1005  H1029   1.086   .     S
C1005  C1007   1.380   .     A
C1006  C1012   1.396   .     A
C1006  C1008   1.408   .     A
C1007  C1014   1.399   .     A
C1007  C1009   1.409   .     A
C1008  C1010   1.418   .     A
C1008  C199    1.393   1_556 S
C1009  C1011   1.420   .     A
C1010  C1015   1.414   .     A
C1011  C1013   1.424   .     A
C1012  F1021   1.360   .     S
C1012  C203    1.398   1_556 S
C1013  S1073   1.778   .     S
C1014  F1022   1.359   .     S
C1015  S1074   1.778   .     S
C1015  C204    1.394   1_556 S
C1016  S1075   1.803   .     S
C1017  C1020   1.410   .     A
C1017  S1076   1.781   .     S
C1017  C839    1.373   1_655 S
C1018  S1077   1.801   .     S
C1018  C1020   1.434   .     A
C1018  C836    1.397   1_655 S
C1019  S1078   1.782   .     S
H1028  O1064   0.990   .     S
H1030  O1041   0.990   .     S
H1031  O1044   0.990   .     S
H1032  O1047   0.991   .     S
H1033  O1051   0.991   .     S
H1034  O1054   0.991   .     S
H1035  O1057   0.990   .     S
H1036  O1060   0.991   .     S
N1037  Zn1079  2.010   .     S
N1038  Zn1080  2.010   .     S
O1039  Zn1079  2.025   .     S
O1040  S1071   1.502   .     D
O1041  S1071   1.680   .     S
O1042  S1072   1.503   .     D
O1043  S1072   1.500   .     D
O1044  S1072   1.680   .     S
O1045  S1073   1.499   .     D
O1046  S1073   1.501   .     D
O1047  S1073   1.683   .     S
O1048  S1074   1.501   .     D
O1049  S1074   1.503   .     D
O1050  Zn1080  2.025   .     S
O1051  S1074   1.681   .     S
O1052  S1075   1.503   .     D
O1053  S1075   1.503   .     D
O1054  S1075   1.677   .     S
O1055  S1076   1.502   .     D
O1056  S1076   1.504   .     D
O1057  S1076   1.682   .     S
O1058  S1077   1.502   .     D
O1059  S1077   1.500   .     D
O1060  S1077   1.676   .     S
O1061  Zn1079  2.015   .     S
O1062  S1078   1.502   .     D
O1063  S1078   1.504   .     D
O1064  S1078   1.682   .     S
O1065  Zn1080  2.015   .     S
O1066  Zn1079  2.006   .     S
O1067  Zn1080  2.006   .     S
O1068  Zn1079  2.004   .     S
O1069  Zn1080  2.004   .     S
O1070  S1071   1.502   .     D
C1081  C1082   1.434   .     S
C1081  O1155   1.279   .     A
C1081  O1129   1.292   .     A
C1082  C1109   1.407   .     A
C1082  C1106   1.423   .     A
C1083  F1113   1.354   .     S
C1083  N1128   1.367   .     A
C1084  F1114   1.352   .     S
C1084  N1127   1.367   .     A
C1084  C1355   1.409   .     S
C1085  N1128   1.367   .     A
C1085  F1115   1.353   .     S
C1086  N1127   1.368   .     A
C1086  F1116   1.353   .     S
C1086  C1353   1.411   .     S
C1087  O1159   1.293   .     A
C1087  O1156   1.280   .     A
C1087  C1093   1.430   .     S
C1088  O1158   1.283   .     A
C1088  O1157   1.285   .     A
C1088  C1091   1.428   .     S
C1089  C1100   1.400   .     A
C1089  C1091   1.402   .     A
C1089  S1161   1.777   .     S
C1090  C1101   1.410   .     A
C1090  S1162   1.792   .     S
C1090  C1093   1.414   .     A
C1091  C1094   1.387   .     A
C1092  O1151   1.299   .     A
C1092  C1110   1.449   .     S
C1092  O1140   1.280   .     A
C1093  C1095   1.387   .     A
C1094  C1096   1.385   .     A
C1094  H1117   1.085   .     S
C1095  H1119   1.086   .     S
C1095  C1097   1.380   .     A
C1096  C1102   1.396   .     A
C1096  C1098   1.408   .     A
C1097  C1104   1.399   .     A
C1097  C1099   1.409   .     A
C1098  C1100   1.418   .     A
C1098  C289    1.393   1_556 S
C1099  C1101   1.420   .     A
C1100  C1105   1.414   .     A
C1101  C1103   1.424   .     A
C1102  F1111   1.360   .     S
C1102  C293    1.398   1_556 S
C1103  S1163   1.778   .     S
C1104  F1112   1.359   .     S
C1105  S1164   1.778   .     S
C1105  C294    1.394   1_556 S
C1106  S1165   1.803   .     S
C1106  C1288   1.397   1_455 S
C1107  C1110   1.410   .     A
C1107  S1166   1.781   .     S
C1107  C1199   1.373   .     S
C1108  S1167   1.801   .     S
C1108  C1110   1.434   .     A
C1108  C1196   1.397   .     S
C1109  S1168   1.782   .     S
C1109  C1287   1.373   1_455 S
H1118  O1154   0.990   .     S
H1120  O1131   0.990   .     S
H1121  O1134   0.990   .     S
H1122  O1137   0.991   .     S
H1123  O1141   0.991   .     S
H1124  O1144   0.991   .     S
H1125  O1147   0.990   .     S
H1126  O1150   0.991   .     S
N1127  Zn1169  2.010   .     S
N1128  Zn1170  2.010   .     S
O1129  Zn1169  2.025   .     S
O1130  S1161   1.502   .     D
O1131  S1161   1.680   .     S
O1132  S1162   1.503   .     D
O1133  S1162   1.500   .     D
O1134  S1162   1.680   .     S
O1135  S1163   1.499   .     D
O1136  S1163   1.501   .     D
O1137  S1163   1.683   .     S
O1138  S1164   1.501   .     D
O1139  S1164   1.503   .     D
O1140  Zn1170  2.025   .     S
O1141  S1164   1.681   .     S
O1142  S1165   1.503   .     D
O1143  S1165   1.503   .     D
O1144  S1165   1.677   .     S
O1145  S1166   1.502   .     D
O1146  S1166   1.504   .     D
O1147  S1166   1.682   .     S
O1148  S1167   1.502   .     D
O1149  S1167   1.500   .     D
O1150  S1167   1.676   .     S
O1151  Zn1169  2.015   .     S
O1152  S1168   1.502   .     D
O1153  S1168   1.504   .     D
O1154  S1168   1.682   .     S
O1155  Zn1170  2.015   .     S
O1156  Zn1169  2.006   .     S
O1157  Zn1170  2.006   .     S
O1158  Zn1169  2.004   .     S
O1159  Zn1170  2.004   .     S
O1160  S1161   1.502   .     D
C1171  C1172   1.434   .     S
C1171  O1245   1.279   .     A
C1171  O1219   1.292   .     A
C1172  C1199   1.407   .     A
C1172  C1196   1.423   .     A
C1173  F1203   1.354   .     S
C1173  N1218   1.367   .     A
C1174  F1204   1.352   .     S
C1174  N1217   1.367   .     A
C1174  C1445   1.409   .     S
C1175  N1218   1.367   .     A
C1175  F1205   1.353   .     S
C1176  N1217   1.368   .     A
C1176  F1206   1.353   .     S
C1176  C1443   1.411   .     S
C1177  O1249   1.293   .     A
C1177  O1246   1.280   .     A
C1177  C1183   1.430   .     S
C1178  O1248   1.283   .     A
C1178  O1247   1.285   .     A
C1178  C1181   1.428   .     S
C1179  C1190   1.400   .     A
C1179  C1181   1.402   .     A
C1179  S1251   1.777   .     S
C1180  C1191   1.410   .     A
C1180  S1252   1.792   .     S
C1180  C1183   1.414   .     A
C1181  C1184   1.387   .     A
C1182  O1241   1.299   .     A
C1182  C1200   1.449   .     S
C1182  O1230   1.280   .     A
C1183  C1185   1.387   .     A
C1184  C1186   1.385   .     A
C1184  H1207   1.085   .     S
C1185  H1209   1.086   .     S
C1185  C1187   1.380   .     A
C1186  C1192   1.396   .     A
C1186  C1188   1.408   .     A
C1187  C1194   1.399   .     A
C1187  C1189   1.409   .     A
C1188  C1190   1.418   .     A
C1188  C379    1.393   1_556 S
C1189  C1191   1.420   .     A
C1190  C1195   1.414   .     A
C1191  C1193   1.424   .     A
C1192  F1201   1.360   .     S
C1192  C383    1.398   1_556 S
C1193  S1253   1.778   .     S
C1194  F1202   1.359   .     S
C1195  S1254   1.778   .     S
C1195  C384    1.394   1_556 S
C1196  S1255   1.803   .     S
C1197  C1200   1.410   .     A
C1197  S1256   1.781   .     S
C1197  C1289   1.373   .     S
C1198  S1257   1.801   .     S
C1198  C1200   1.434   .     A
C1198  C1286   1.397   .     S
C1199  S1258   1.782   .     S
H1208  O1244   0.990   .     S
H1210  O1221   0.990   .     S
H1211  O1224   0.990   .     S
H1212  O1227   0.991   .     S
H1213  O1231   0.991   .     S
H1214  O1234   0.991   .     S
H1215  O1237   0.990   .     S
H1216  O1240   0.991   .     S
N1217  Zn1259  2.010   .     S
N1218  Zn1260  2.010   .     S
O1219  Zn1259  2.025   .     S
O1220  S1251   1.502   .     D
O1221  S1251   1.680   .     S
O1222  S1252   1.503   .     D
O1223  S1252   1.500   .     D
O1224  S1252   1.680   .     S
O1225  S1253   1.499   .     D
O1226  S1253   1.501   .     D
O1227  S1253   1.683   .     S
O1228  S1254   1.501   .     D
O1229  S1254   1.503   .     D
O1230  Zn1260  2.025   .     S
O1231  S1254   1.681   .     S
O1232  S1255   1.503   .     D
O1233  S1255   1.503   .     D
O1234  S1255   1.677   .     S
O1235  S1256   1.502   .     D
O1236  S1256   1.504   .     D
O1237  S1256   1.682   .     S
O1238  S1257   1.502   .     D
O1239  S1257   1.500   .     D
O1240  S1257   1.676   .     S
O1241  Zn1259  2.015   .     S
O1242  S1258   1.502   .     D
O1243  S1258   1.504   .     D
O1244  S1258   1.682   .     S
O1245  Zn1260  2.015   .     S
O1246  Zn1259  2.006   .     S
O1247  Zn1260  2.006   .     S
O1248  Zn1259  2.004   .     S
O1249  Zn1260  2.004   .     S
O1250  S1251   1.502   .     D
C1261  C1262   1.434   .     S
C1261  O1335   1.279   .     A
C1261  O1309   1.292   .     A
C1262  C1289   1.407   .     A
C1262  C1286   1.423   .     A
C1263  F1293   1.354   .     S
C1263  N1308   1.367   .     A
C1264  F1294   1.352   .     S
C1264  N1307   1.367   .     A
C1264  C1535   1.409   .     S
C1265  N1308   1.367   .     A
C1265  F1295   1.353   .     S
C1266  N1307   1.368   .     A
C1266  F1296   1.353   .     S
C1266  C1533   1.411   .     S
C1267  O1339   1.293   .     A
C1267  O1336   1.280   .     A
C1267  C1273   1.430   .     S
C1268  O1338   1.283   .     A
C1268  O1337   1.285   .     A
C1268  C1271   1.428   .     S
C1269  C1280   1.400   .     A
C1269  C1271   1.402   .     A
C1269  S1341   1.777   .     S
C1270  C1281   1.410   .     A
C1270  S1342   1.792   .     S
C1270  C1273   1.414   .     A
C1271  C1274   1.387   .     A
C1272  O1331   1.299   .     A
C1272  C1290   1.449   .     S
C1272  O1320   1.280   .     A
C1273  C1275   1.387   .     A
C1274  C1276   1.385   .     A
C1274  H1297   1.085   .     S
C1275  H1299   1.086   .     S
C1275  C1277   1.380   .     A
C1276  C1282   1.396   .     A
C1276  C1278   1.408   .     A
C1277  C1284   1.399   .     A
C1277  C1279   1.409   .     A
C1278  C1280   1.418   .     A
C1278  C469    1.393   1_556 S
C1279  C1281   1.420   .     A
C1280  C1285   1.414   .     A
C1281  C1283   1.424   .     A
C1282  F1291   1.360   .     S
C1282  C473    1.398   1_556 S
C1283  S1343   1.778   .     S
C1284  F1292   1.359   .     S
C1285  S1344   1.778   .     S
C1285  C474    1.394   1_556 S
C1286  S1345   1.803   .     S
C1287  C1290   1.410   .     A
C1287  S1346   1.781   .     S
C1287  C1109   1.373   1_655 S
C1288  S1347   1.801   .     S
C1288  C1290   1.434   .     A
C1288  C1106   1.397   1_655 S
C1289  S1348   1.782   .     S
H1298  O1334   0.990   .     S
H1300  O1311   0.990   .     S
H1301  O1314   0.990   .     S
H1302  O1317   0.991   .     S
H1303  O1321   0.991   .     S
H1304  O1324   0.991   .     S
H1305  O1327   0.990   .     S
H1306  O1330   0.991   .     S
N1307  Zn1349  2.010   .     S
N1308  Zn1350  2.010   .     S
O1309  Zn1349  2.025   .     S
O1310  S1341   1.502   .     D
O1311  S1341   1.680   .     S
O1312  S1342   1.503   .     D
O1313  S1342   1.500   .     D
O1314  S1342   1.680   .     S
O1315  S1343   1.499   .     D
O1316  S1343   1.501   .     D
O1317  S1343   1.683   .     S
O1318  S1344   1.501   .     D
O1319  S1344   1.503   .     D
O1320  Zn1350  2.025   .     S
O1321  S1344   1.681   .     S
O1322  S1345   1.503   .     D
O1323  S1345   1.503   .     D
O1324  S1345   1.677   .     S
O1325  S1346   1.502   .     D
O1326  S1346   1.504   .     D
O1327  S1346   1.682   .     S
O1328  S1347   1.502   .     D
O1329  S1347   1.500   .     D
O1330  S1347   1.676   .     S
O1331  Zn1349  2.015   .     S
O1332  S1348   1.502   .     D
O1333  S1348   1.504   .     D
O1334  S1348   1.682   .     S
O1335  Zn1350  2.015   .     S
O1336  Zn1349  2.006   .     S
O1337  Zn1350  2.006   .     S
O1338  Zn1349  2.004   .     S
O1339  Zn1350  2.004   .     S
O1340  S1341   1.502   .     D
C1351  C1352   1.434   .     S
C1351  O1425   1.279   .     A
C1351  O1399   1.292   .     A
C1352  C1379   1.407   .     A
C1352  C1376   1.423   .     A
C1353  F1383   1.354   .     S
C1353  N1398   1.367   .     A
C1354  F1384   1.352   .     S
C1354  N1397   1.367   .     A
C1354  C815    1.409   1_565 S
C1355  N1398   1.367   .     A
C1355  F1385   1.353   .     S
C1356  N1397   1.368   .     A
C1356  F1386   1.353   .     S
C1356  C813    1.411   1_565 S
C1357  O1429   1.293   .     A
C1357  O1426   1.280   .     A
C1357  C1363   1.430   .     S
C1358  O1428   1.283   .     A
C1358  O1427   1.285   .     A
C1358  C1361   1.428   .     S
C1359  C1370   1.400   .     A
C1359  C1361   1.402   .     A
C1359  S1431   1.777   .     S
C1360  C1371   1.410   .     A
C1360  S1432   1.792   .     S
C1360  C1363   1.414   .     A
C1361  C1364   1.387   .     A
C1362  O1421   1.299   .     A
C1362  C1380   1.449   .     S
C1362  O1410   1.280   .     A
C1363  C1365   1.387   .     A
C1364  C1366   1.385   .     A
C1364  H1387   1.085   .     S
C1365  H1389   1.086   .     S
C1365  C1367   1.380   .     A
C1366  C1372   1.396   .     A
C1366  C1368   1.408   .     A
C1367  C1374   1.399   .     A
C1367  C1369   1.409   .     A
C1368  C1370   1.418   .     A
C1368  C559    1.393   1_556 S
C1369  C1371   1.420   .     A
C1370  C1375   1.414   .     A
C1371  C1373   1.424   .     A
C1372  F1381   1.360   .     S
C1372  C563    1.398   1_556 S
C1373  S1433   1.778   .     S
C1374  F1382   1.359   .     S
C1375  S1434   1.778   .     S
C1375  C564    1.394   1_556 S
C1376  S1435   1.803   .     S
C1376  C1558   1.397   1_455 S
C1377  C1380   1.410   .     A
C1377  S1436   1.781   .     S
C1377  C1469   1.373   .     S
C1378  S1437   1.801   .     S
C1378  C1380   1.434   .     A
C1378  C1466   1.397   .     S
C1379  S1438   1.782   .     S
C1379  C1557   1.373   1_455 S
H1388  O1424   0.990   .     S
H1390  O1401   0.990   .     S
H1391  O1404   0.990   .     S
H1392  O1407   0.991   .     S
H1393  O1411   0.991   .     S
H1394  O1414   0.991   .     S
H1395  O1417   0.990   .     S
H1396  O1420   0.991   .     S
N1397  Zn1439  2.010   .     S
N1398  Zn1440  2.010   .     S
O1399  Zn1439  2.025   .     S
O1400  S1431   1.502   .     D
O1401  S1431   1.680   .     S
O1402  S1432   1.503   .     D
O1403  S1432   1.500   .     D
O1404  S1432   1.680   .     S
O1405  S1433   1.499   .     D
O1406  S1433   1.501   .     D
O1407  S1433   1.683   .     S
O1408  S1434   1.501   .     D
O1409  S1434   1.503   .     D
O1410  Zn1440  2.025   .     S
O1411  S1434   1.681   .     S
O1412  S1435   1.503   .     D
O1413  S1435   1.503   .     D
O1414  S1435   1.677   .     S
O1415  S1436   1.502   .     D
O1416  S1436   1.504   .     D
O1417  S1436   1.682   .     S
O1418  S1437   1.502   .     D
O1419  S1437   1.500   .     D
O1420  S1437   1.676   .     S
O1421  Zn1439  2.015   .     S
O1422  S1438   1.502   .     D
O1423  S1438   1.504   .     D
O1424  S1438   1.682   .     S
O1425  Zn1440  2.015   .     S
O1426  Zn1439  2.006   .     S
O1427  Zn1440  2.006   .     S
O1428  Zn1439  2.004   .     S
O1429  Zn1440  2.004   .     S
O1430  S1431   1.502   .     D
C1441  C1442   1.434   .     S
C1441  O1515   1.279   .     A
C1441  O1489   1.292   .     A
C1442  C1469   1.407   .     A
C1442  C1466   1.423   .     A
C1443  F1473   1.354   .     S
C1443  N1488   1.367   .     A
C1444  F1474   1.352   .     S
C1444  N1487   1.367   .     A
C1444  C905    1.409   1_565 S
C1445  N1488   1.367   .     A
C1445  F1475   1.353   .     S
C1446  N1487   1.368   .     A
C1446  F1476   1.353   .     S
C1446  C903    1.411   1_565 S
C1447  O1519   1.293   .     A
C1447  O1516   1.280   .     A
C1447  C1453   1.430   .     S
C1448  O1518   1.283   .     A
C1448  O1517   1.285   .     A
C1448  C1451   1.428   .     S
C1449  C1460   1.400   .     A
C1449  C1451   1.402   .     A
C1449  S1521   1.777   .     S
C1450  C1461   1.410   .     A
C1450  S1522   1.792   .     S
C1450  C1453   1.414   .     A
C1451  C1454   1.387   .     A
C1452  O1511   1.299   .     A
C1452  C1470   1.449   .     S
C1452  O1500   1.280   .     A
C1453  C1455   1.387   .     A
C1454  C1456   1.385   .     A
C1454  H1477   1.085   .     S
C1455  H1479   1.086   .     S
C1455  C1457   1.380   .     A
C1456  C1462   1.396   .     A
C1456  C1458   1.408   .     A
C1457  C1464   1.399   .     A
C1457  C1459   1.409   .     A
C1458  C1460   1.418   .     A
C1458  C649    1.393   1_556 S
C1459  C1461   1.420   .     A
C1460  C1465   1.414   .     A
C1461  C1463   1.424   .     A
C1462  F1471   1.360   .     S
C1462  C653    1.398   1_556 S
C1463  S1523   1.778   .     S
C1464  F1472   1.359   .     S
C1465  S1524   1.778   .     S
C1465  C654    1.394   1_556 S
C1466  S1525   1.803   .     S
C1467  C1470   1.410   .     A
C1467  S1526   1.781   .     S
C1467  C1559   1.373   .     S
C1468  S1527   1.801   .     S
C1468  C1470   1.434   .     A
C1468  C1556   1.397   .     S
C1469  S1528   1.782   .     S
H1478  O1514   0.990   .     S
H1480  O1491   0.990   .     S
H1481  O1494   0.990   .     S
H1482  O1497   0.991   .     S
H1483  O1501   0.991   .     S
H1484  O1504   0.991   .     S
H1485  O1507   0.990   .     S
H1486  O1510   0.991   .     S
N1487  Zn1529  2.010   .     S
N1488  Zn1530  2.010   .     S
O1489  Zn1529  2.025   .     S
O1490  S1521   1.502   .     D
O1491  S1521   1.680   .     S
O1492  S1522   1.503   .     D
O1493  S1522   1.500   .     D
O1494  S1522   1.680   .     S
O1495  S1523   1.499   .     D
O1496  S1523   1.501   .     D
O1497  S1523   1.683   .     S
O1498  S1524   1.501   .     D
O1499  S1524   1.503   .     D
O1500  Zn1530  2.025   .     S
O1501  S1524   1.681   .     S
O1502  S1525   1.503   .     D
O1503  S1525   1.503   .     D
O1504  S1525   1.677   .     S
O1505  S1526   1.502   .     D
O1506  S1526   1.504   .     D
O1507  S1526   1.682   .     S
O1508  S1527   1.502   .     D
O1509  S1527   1.500   .     D
O1510  S1527   1.676   .     S
O1511  Zn1529  2.015   .     S
O1512  S1528   1.502   .     D
O1513  S1528   1.504   .     D
O1514  S1528   1.682   .     S
O1515  Zn1530  2.015   .     S
O1516  Zn1529  2.006   .     S
O1517  Zn1530  2.006   .     S
O1518  Zn1529  2.004   .     S
O1519  Zn1530  2.004   .     S
O1520  S1521   1.502   .     D
C1531  C1532   1.434   .     S
C1531  O1605   1.279   .     A
C1531  O1579   1.292   .     A
C1532  C1559   1.407   .     A
C1532  C1556   1.423   .     A
C1533  F1563   1.354   .     S
C1533  N1578   1.367   .     A
C1534  F1564   1.352   .     S
C1534  N1577   1.367   .     A
C1534  C995    1.409   1_565 S
C1535  N1578   1.367   .     A
C1535  F1565   1.353   .     S
C1536  N1577   1.368   .     A
C1536  F1566   1.353   .     S
C1536  C993    1.411   1_565 S
C1537  O1609   1.293   .     A
C1537  O1606   1.280   .     A
C1537  C1543   1.430   .     S
C1538  O1608   1.283   .     A
C1538  O1607   1.285   .     A
C1538  C1541   1.428   .     S
C1539  C1550   1.400   .     A
C1539  C1541   1.402   .     A
C1539  S1611   1.777   .     S
C1540  C1551   1.410   .     A
C1540  S1612   1.792   .     S
C1540  C1543   1.414   .     A
C1541  C1544   1.387   .     A
C1542  O1601   1.299   .     A
C1542  C1560   1.449   .     S
C1542  O1590   1.280   .     A
C1543  C1545   1.387   .     A
C1544  C1546   1.385   .     A
C1544  H1567   1.085   .     S
C1545  H1569   1.086   .     S
C1545  C1547   1.380   .     A
C1546  C1552   1.396   .     A
C1546  C1548   1.408   .     A
C1547  C1554   1.399   .     A
C1547  C1549   1.409   .     A
C1548  C1550   1.418   .     A
C1548  C739    1.393   1_556 S
C1549  C1551   1.420   .     A
C1550  C1555   1.414   .     A
C1551  C1553   1.424   .     A
C1552  F1561   1.360   .     S
C1552  C743    1.398   1_556 S
C1553  S1613   1.778   .     S
C1554  F1562   1.359   .     S
C1555  S1614   1.778   .     S
C1555  C744    1.394   1_556 S
C1556  S1615   1.803   .     S
C1557  C1560   1.410   .     A
C1557  S1616   1.781   .     S
C1557  C1379   1.373   1_655 S
C1558  S1617   1.801   .     S
C1558  C1560   1.434   .     A
C1558  C1376   1.397   1_655 S
C1559  S1618   1.782   .     S
H1568  O1604   0.990   .     S
H1570  O1581   0.990   .     S
H1571  O1584   0.990   .     S
H1572  O1587   0.991   .     S
H1573  O1591   0.991   .     S
H1574  O1594   0.991   .     S
H1575  O1597   0.990   .     S
H1576  O1600   0.991   .     S
N1577  Zn1619  2.010   .     S
N1578  Zn1620  2.010   .     S
O1579  Zn1619  2.025   .     S
O1580  S1611   1.502   .     D
O1581  S1611   1.680   .     S
O1582  S1612   1.503   .     D
O1583  S1612   1.500   .     D
O1584  S1612   1.680   .     S
O1585  S1613   1.499   .     D
O1586  S1613   1.501   .     D
O1587  S1613   1.683   .     S
O1588  S1614   1.501   .     D
O1589  S1614   1.503   .     D
O1590  Zn1620  2.025   .     S
O1591  S1614   1.681   .     S
O1592  S1615   1.503   .     D
O1593  S1615   1.503   .     D
O1594  S1615   1.677   .     S
O1595  S1616   1.502   .     D
O1596  S1616   1.504   .     D
O1597  S1616   1.682   .     S
O1598  S1617   1.502   .     D
O1599  S1617   1.500   .     D
O1600  S1617   1.676   .     S
O1601  Zn1619  2.015   .     S
O1602  S1618   1.502   .     D
O1603  S1618   1.504   .     D
O1604  S1618   1.682   .     S
O1605  Zn1620  2.015   .     S
O1606  Zn1619  2.006   .     S
O1607  Zn1620  2.006   .     S
O1608  Zn1619  2.004   .     S
O1609  Zn1620  2.004   .     S
O1610  S1611   1.502   .     D
