data_str_m3_o1_o17_pcu_sym.47
_audit_creation_date              2020-01-03
_audit_creation_method            'Materials Studio'
_symmetry_space_group_name_H-M    'P1'
_symmetry_Int_Tables_number       1
_symmetry_cell_setting            triclinic
loop_
_symmetry_equiv_pos_as_xyz
  x,y,z
_cell_length_a                    32.1289
_cell_length_b                    30.0278
_cell_length_c                    29.8724
_cell_angle_alpha                 90.4324
_cell_angle_beta                  92.8746
_cell_angle_gamma                 90.0461
loop_
_atom_site_label
_atom_site_type_symbol
_atom_site_fract_x
_atom_site_fract_y
_atom_site_fract_z
_atom_site_U_iso_or_equiv
_atom_site_adp_type
_atom_site_occupancy
C1     C     0.08682   0.16666   0.25046   0.00000  Uiso   1.00
C2     C     0.04257   0.16666   0.25062   0.00000  Uiso   1.00
C3     C     0.19320   0.02402   0.27857   0.00000  Uiso   1.00
C4     C     0.14013   0.30931   0.22143   0.00000  Uiso   1.00
C5     C     0.14010   0.02360   0.22151   0.00000  Uiso   1.00
C6     C     0.19324   0.30973   0.27849   0.00000  Uiso   1.00
C7     C     0.16495   0.16649   0.16370   0.00000  Uiso   1.00
C8     C     0.16838   0.16684   0.33630   0.00000  Uiso   1.00
C9     C     0.20800   0.17076   0.40972   0.00000  Uiso   1.00
C10    C     0.12533   0.16258   0.09028   0.00000  Uiso   1.00
C11    C     0.16994   0.16716   0.38414   0.00000  Uiso   1.00
C12    C     0.24651   0.16667   0.24954   0.00000  Uiso   1.00
C13    C     0.16339   0.16617   0.11586   0.00000  Uiso   1.00
C14    C     0.13181   0.16507   0.40383   0.00000  Uiso   1.00
C15    C     0.20153   0.16826   0.09617   0.00000  Uiso   1.00
C16    C     0.13025   0.16599   0.44987   0.00000  Uiso   1.00
C17    C     0.20308   0.16734   0.05013   0.00000  Uiso   1.00
C18    C     0.16762   0.16703   0.47663   0.00000  Uiso   1.00
C19    C     0.16571   0.16630   0.02337   0.00000  Uiso   1.00
C20    C     0.20681   0.16874   0.45673   0.00000  Uiso   1.00
C21    C     0.12652   0.16460   0.04327   0.00000  Uiso   1.00
C22    C     0.09170   0.16604   0.46934   0.00000  Uiso   1.00
C23    C     0.08978   0.16607   0.01554   0.00000  Uiso   1.00
C24    C     0.24163   0.16729   0.03066   0.00000  Uiso   1.00
C25    C     0.24803   0.17881   0.38773   0.00000  Uiso   1.00
C26    C     0.08530   0.15452   0.11227   0.00000  Uiso   1.00
C27    C     0.24355   0.16727   0.48446   0.00000  Uiso   1.00
C28    C     0.02129   0.12608   0.25066   0.00000  Uiso   1.00
C29    C     0.31204   0.20726   0.24934   0.00000  Uiso   1.00
C30    C     0.31200   0.12608   0.24981   0.00000  Uiso   1.00
C31    C     0.02133   0.20726   0.25019   0.00000  Uiso   1.00
C32    C     0.29076   0.16667   0.24938   0.00000  Uiso   1.00
H33    H     0.10315   0.16341   0.38297   0.00000  Uiso   1.00
H34    H     0.03743   0.23896   0.25043   0.00000  Uiso   1.00
H35    H     0.30223   0.21292   0.38779   0.00000  Uiso   1.00
H36    H     0.03110   0.12041   0.11221   0.00000  Uiso   1.00
H37    H     0.23019   0.16992   0.11703   0.00000  Uiso   1.00
H38    H     0.06292   0.16642   0.44877   0.00000  Uiso   1.00
H39    H     0.27041   0.16691   0.05123   0.00000  Uiso   1.00
H40    H     0.05923   0.16803   0.02894   0.00000  Uiso   1.00
H41    H     0.27410   0.16530   0.47106   0.00000  Uiso   1.00
H42    H     0.03735   0.09438   0.25131   0.00000  Uiso   1.00
H43    H     0.29598   0.23895   0.24869   0.00000  Uiso   1.00
H44    H     0.29590   0.09438   0.24957   0.00000  Uiso   1.00
I45    I     0.23517   0.05816   0.32437   0.00000  Uiso   1.00
I46    I     0.09816   0.27518   0.17563   0.00000  Uiso   1.00
I47    I     0.09777   0.05734   0.17662   0.00000  Uiso   1.00
I48    I     0.23556   0.27599   0.32338   0.00000  Uiso   1.00
N49    N     0.16667   0.28573   0.25000   0.00000  Uiso   1.00
N50    N     0.16667   0.04760   0.25000   0.00000  Uiso   1.00
O51    O     0.10559   0.20487   0.24999   0.00000  Uiso   1.00
O52    O     0.27626   0.21056   0.40557   0.00000  Uiso   1.00
O53    O     0.07737   0.17467   0.14643   0.00000  Uiso   1.00
O54    O     0.05708   0.12277   0.09443   0.00000  Uiso   1.00
O55    O     0.22774   0.12846   0.25001   0.00000  Uiso   1.00
O56    O     0.22774   0.20487   0.25001   0.00000  Uiso   1.00
O57    O     0.10559   0.12846   0.24999   0.00000  Uiso   1.00
O58    O     0.16666   0.20489   0.18393   0.00000  Uiso   1.00
O59    O     0.16667   0.12844   0.31608   0.00000  Uiso   1.00
O60    O     0.16667   0.20489   0.31608   0.00000  Uiso   1.00
O61    O     0.16666   0.12844   0.18393   0.00000  Uiso   1.00
O62    O     0.25596   0.15867   0.35357   0.00000  Uiso   1.00
Zn63   Zn    0.16667   0.21771   0.25000   0.00000  Uiso   1.00
Zn64   Zn    0.16667   0.11563   0.25000   0.00000  Uiso   1.00
C65    C     0.42015   0.16666   0.25046   0.00000  Uiso   1.00
C66    C     0.37591   0.16666   0.25062   0.00000  Uiso   1.00
C67    C     0.52654   0.02402   0.27857   0.00000  Uiso   1.00
C68    C     0.47346   0.30931   0.22143   0.00000  Uiso   1.00
C69    C     0.47343   0.02360   0.22151   0.00000  Uiso   1.00
C70    C     0.52657   0.30973   0.27849   0.00000  Uiso   1.00
C71    C     0.49828   0.16649   0.16370   0.00000  Uiso   1.00
C72    C     0.50172   0.16684   0.33630   0.00000  Uiso   1.00
C73    C     0.54134   0.17076   0.40972   0.00000  Uiso   1.00
C74    C     0.45866   0.16258   0.09028   0.00000  Uiso   1.00
C75    C     0.50328   0.16716   0.38414   0.00000  Uiso   1.00
C76    C     0.57985   0.16667   0.24954   0.00000  Uiso   1.00
C77    C     0.49672   0.16617   0.11586   0.00000  Uiso   1.00
C78    C     0.46514   0.16507   0.40383   0.00000  Uiso   1.00
C79    C     0.53486   0.16826   0.09617   0.00000  Uiso   1.00
C80    C     0.46358   0.16599   0.44987   0.00000  Uiso   1.00
C81    C     0.53642   0.16734   0.05013   0.00000  Uiso   1.00
C82    C     0.50095   0.16703   0.47663   0.00000  Uiso   1.00
C83    C     0.49905   0.16630   0.02337   0.00000  Uiso   1.00
C84    C     0.54015   0.16874   0.45673   0.00000  Uiso   1.00
C85    C     0.45985   0.16460   0.04327   0.00000  Uiso   1.00
C86    C     0.42504   0.16604   0.46934   0.00000  Uiso   1.00
C87    C     0.42311   0.16607   0.01554   0.00000  Uiso   1.00
C88    C     0.57496   0.16729   0.03066   0.00000  Uiso   1.00
C89    C     0.58136   0.17881   0.38773   0.00000  Uiso   1.00
C90    C     0.41864   0.15452   0.11227   0.00000  Uiso   1.00
C91    C     0.57689   0.16727   0.48446   0.00000  Uiso   1.00
C92    C     0.35462   0.12608   0.25066   0.00000  Uiso   1.00
C93    C     0.64538   0.20726   0.24934   0.00000  Uiso   1.00
C94    C     0.64533   0.12608   0.24981   0.00000  Uiso   1.00
C95    C     0.35467   0.20726   0.25019   0.00000  Uiso   1.00
C96    C     0.62409   0.16667   0.24938   0.00000  Uiso   1.00
H97    H     0.43648   0.16341   0.38297   0.00000  Uiso   1.00
H98    H     0.37077   0.23896   0.25043   0.00000  Uiso   1.00
H99    H     0.63556   0.21292   0.38779   0.00000  Uiso   1.00
H100   H     0.36444   0.12041   0.11221   0.00000  Uiso   1.00
H101   H     0.56352   0.16992   0.11703   0.00000  Uiso   1.00
H102   H     0.39625   0.16642   0.44877   0.00000  Uiso   1.00
H103   H     0.60375   0.16691   0.05123   0.00000  Uiso   1.00
H104   H     0.39256   0.16803   0.02894   0.00000  Uiso   1.00
H105   H     0.60744   0.16530   0.47106   0.00000  Uiso   1.00
H106   H     0.37068   0.09438   0.25131   0.00000  Uiso   1.00
H107   H     0.62932   0.23895   0.24869   0.00000  Uiso   1.00
H108   H     0.62923   0.09438   0.24957   0.00000  Uiso   1.00
I109   I     0.56851   0.05816   0.32437   0.00000  Uiso   1.00
I110   I     0.43149   0.27518   0.17563   0.00000  Uiso   1.00
I111   I     0.43111   0.05734   0.17662   0.00000  Uiso   1.00
I112   I     0.56889   0.27599   0.32338   0.00000  Uiso   1.00
N113   N     0.50000   0.28573   0.25000   0.00000  Uiso   1.00
N114   N     0.50000   0.04760   0.25000   0.00000  Uiso   1.00
O115   O     0.43892   0.20487   0.24999   0.00000  Uiso   1.00
O116   O     0.60959   0.21056   0.40557   0.00000  Uiso   1.00
O117   O     0.41071   0.17467   0.14643   0.00000  Uiso   1.00
O118   O     0.39041   0.12277   0.09443   0.00000  Uiso   1.00
O119   O     0.56108   0.12846   0.25001   0.00000  Uiso   1.00
O120   O     0.56108   0.20487   0.25001   0.00000  Uiso   1.00
O121   O     0.43892   0.12846   0.24999   0.00000  Uiso   1.00
O122   O     0.49999   0.20489   0.18393   0.00000  Uiso   1.00
O123   O     0.50001   0.12844   0.31608   0.00000  Uiso   1.00
O124   O     0.50001   0.20489   0.31608   0.00000  Uiso   1.00
O125   O     0.49999   0.12844   0.18393   0.00000  Uiso   1.00
O126   O     0.58929   0.15867   0.35357   0.00000  Uiso   1.00
Zn127  Zn    0.50000   0.21771   0.25000   0.00000  Uiso   1.00
Zn128  Zn    0.50000   0.11563   0.25000   0.00000  Uiso   1.00
C129   C     0.75349   0.16666   0.25046   0.00000  Uiso   1.00
C130   C     0.70924   0.16666   0.25062   0.00000  Uiso   1.00
C131   C     0.85987   0.02402   0.27857   0.00000  Uiso   1.00
C132   C     0.80680   0.30931   0.22143   0.00000  Uiso   1.00
C133   C     0.80676   0.02360   0.22151   0.00000  Uiso   1.00
C134   C     0.85990   0.30973   0.27849   0.00000  Uiso   1.00
C135   C     0.83162   0.16649   0.16370   0.00000  Uiso   1.00
C136   C     0.83505   0.16684   0.33630   0.00000  Uiso   1.00
C137   C     0.87467   0.17076   0.40972   0.00000  Uiso   1.00
C138   C     0.79200   0.16258   0.09028   0.00000  Uiso   1.00
C139   C     0.83661   0.16716   0.38414   0.00000  Uiso   1.00
C140   C     0.91318   0.16667   0.24954   0.00000  Uiso   1.00
C141   C     0.83006   0.16617   0.11586   0.00000  Uiso   1.00
C142   C     0.79847   0.16507   0.40383   0.00000  Uiso   1.00
C143   C     0.86819   0.16826   0.09617   0.00000  Uiso   1.00
C144   C     0.79692   0.16599   0.44987   0.00000  Uiso   1.00
C145   C     0.86975   0.16734   0.05013   0.00000  Uiso   1.00
C146   C     0.83429   0.16703   0.47663   0.00000  Uiso   1.00
C147   C     0.83238   0.16630   0.02337   0.00000  Uiso   1.00
C148   C     0.87348   0.16874   0.45673   0.00000  Uiso   1.00
C149   C     0.79319   0.16460   0.04327   0.00000  Uiso   1.00
C150   C     0.75837   0.16604   0.46934   0.00000  Uiso   1.00
C151   C     0.75645   0.16607   0.01554   0.00000  Uiso   1.00
C152   C     0.90830   0.16729   0.03066   0.00000  Uiso   1.00
C153   C     0.91470   0.17881   0.38773   0.00000  Uiso   1.00
C154   C     0.75197   0.15452   0.11227   0.00000  Uiso   1.00
C155   C     0.91022   0.16727   0.48446   0.00000  Uiso   1.00
C156   C     0.68796   0.12608   0.25066   0.00000  Uiso   1.00
C157   C     0.97871   0.20726   0.24934   0.00000  Uiso   1.00
C158   C     0.97866   0.12608   0.24981   0.00000  Uiso   1.00
C159   C     0.68800   0.20726   0.25019   0.00000  Uiso   1.00
C160   C     0.95743   0.16667   0.24938   0.00000  Uiso   1.00
H161   H     0.76981   0.16341   0.38297   0.00000  Uiso   1.00
H162   H     0.70410   0.23896   0.25043   0.00000  Uiso   1.00
H163   H     0.96890   0.21292   0.38779   0.00000  Uiso   1.00
H164   H     0.69777   0.12041   0.11221   0.00000  Uiso   1.00
H165   H     0.89685   0.16992   0.11703   0.00000  Uiso   1.00
H166   H     0.72959   0.16642   0.44877   0.00000  Uiso   1.00
H167   H     0.93708   0.16691   0.05123   0.00000  Uiso   1.00
H168   H     0.72590   0.16803   0.02894   0.00000  Uiso   1.00
H169   H     0.94077   0.16530   0.47106   0.00000  Uiso   1.00
H170   H     0.70402   0.09438   0.25131   0.00000  Uiso   1.00
H171   H     0.96265   0.23895   0.24869   0.00000  Uiso   1.00
H172   H     0.96257   0.09438   0.24957   0.00000  Uiso   1.00
I173   I     0.90184   0.05816   0.32437   0.00000  Uiso   1.00
I174   I     0.76483   0.27518   0.17563   0.00000  Uiso   1.00
I175   I     0.76444   0.05734   0.17662   0.00000  Uiso   1.00
I176   I     0.90223   0.27599   0.32338   0.00000  Uiso   1.00
N177   N     0.83333   0.28573   0.25000   0.00000  Uiso   1.00
N178   N     0.83333   0.04760   0.25000   0.00000  Uiso   1.00
O179   O     0.77226   0.20487   0.24999   0.00000  Uiso   1.00
O180   O     0.94293   0.21056   0.40557   0.00000  Uiso   1.00
O181   O     0.74404   0.17467   0.14643   0.00000  Uiso   1.00
O182   O     0.72374   0.12277   0.09443   0.00000  Uiso   1.00
O183   O     0.89441   0.12846   0.25001   0.00000  Uiso   1.00
O184   O     0.89441   0.20487   0.25001   0.00000  Uiso   1.00
O185   O     0.77226   0.12846   0.24999   0.00000  Uiso   1.00
O186   O     0.83333   0.20489   0.18393   0.00000  Uiso   1.00
O187   O     0.83334   0.12844   0.31608   0.00000  Uiso   1.00
O188   O     0.83334   0.20489   0.31608   0.00000  Uiso   1.00
O189   O     0.83333   0.12844   0.18393   0.00000  Uiso   1.00
O190   O     0.92262   0.15867   0.35357   0.00000  Uiso   1.00
Zn191  Zn    0.83333   0.21771   0.25000   0.00000  Uiso   1.00
Zn192  Zn    0.83333   0.11563   0.25000   0.00000  Uiso   1.00
C193   C     0.08682   0.49999   0.25046   0.00000  Uiso   1.00
C194   C     0.04257   0.49999   0.25062   0.00000  Uiso   1.00
C195   C     0.19320   0.35736   0.27857   0.00000  Uiso   1.00
C196   C     0.14013   0.64265   0.22143   0.00000  Uiso   1.00
C197   C     0.14010   0.35693   0.22151   0.00000  Uiso   1.00
C198   C     0.19324   0.64307   0.27849   0.00000  Uiso   1.00
C199   C     0.16495   0.49982   0.16370   0.00000  Uiso   1.00
C200   C     0.16838   0.50018   0.33630   0.00000  Uiso   1.00
C201   C     0.20800   0.50409   0.40972   0.00000  Uiso   1.00
C202   C     0.12533   0.49591   0.09028   0.00000  Uiso   1.00
C203   C     0.16994   0.50050   0.38414   0.00000  Uiso   1.00
C204   C     0.24651   0.50001   0.24954   0.00000  Uiso   1.00
C205   C     0.16339   0.49950   0.11586   0.00000  Uiso   1.00
C206   C     0.13181   0.49841   0.40383   0.00000  Uiso   1.00
C207   C     0.20153   0.50159   0.09617   0.00000  Uiso   1.00
C208   C     0.13025   0.49933   0.44987   0.00000  Uiso   1.00
C209   C     0.20308   0.50067   0.05013   0.00000  Uiso   1.00
C210   C     0.16762   0.50037   0.47663   0.00000  Uiso   1.00
C211   C     0.16571   0.49963   0.02337   0.00000  Uiso   1.00
C212   C     0.20681   0.50207   0.45673   0.00000  Uiso   1.00
C213   C     0.12652   0.49793   0.04327   0.00000  Uiso   1.00
C214   C     0.09170   0.49937   0.46934   0.00000  Uiso   1.00
C215   C     0.08978   0.49940   0.01554   0.00000  Uiso   1.00
C216   C     0.24163   0.50063   0.03066   0.00000  Uiso   1.00
C217   C     0.24803   0.51214   0.38773   0.00000  Uiso   1.00
C218   C     0.08530   0.48786   0.11227   0.00000  Uiso   1.00
C219   C     0.24355   0.50060   0.48446   0.00000  Uiso   1.00
C220   C     0.02129   0.45941   0.25066   0.00000  Uiso   1.00
C221   C     0.31204   0.54059   0.24934   0.00000  Uiso   1.00
C222   C     0.31200   0.45941   0.24981   0.00000  Uiso   1.00
C223   C     0.02133   0.54059   0.25019   0.00000  Uiso   1.00
C224   C     0.29076   0.50001   0.24938   0.00000  Uiso   1.00
H225   H     0.10315   0.49674   0.38297   0.00000  Uiso   1.00
H226   H     0.03743   0.57229   0.25043   0.00000  Uiso   1.00
H227   H     0.30223   0.54625   0.38779   0.00000  Uiso   1.00
H228   H     0.03110   0.45374   0.11221   0.00000  Uiso   1.00
H229   H     0.23019   0.50326   0.11703   0.00000  Uiso   1.00
H230   H     0.06292   0.49975   0.44877   0.00000  Uiso   1.00
H231   H     0.27041   0.50025   0.05123   0.00000  Uiso   1.00
H232   H     0.05923   0.50136   0.02894   0.00000  Uiso   1.00
H233   H     0.27410   0.49863   0.47106   0.00000  Uiso   1.00
H234   H     0.03735   0.42772   0.25131   0.00000  Uiso   1.00
H235   H     0.29598   0.57228   0.24869   0.00000  Uiso   1.00
H236   H     0.29590   0.42771   0.24957   0.00000  Uiso   1.00
I237   I     0.23517   0.39149   0.32437   0.00000  Uiso   1.00
I238   I     0.09816   0.60851   0.17563   0.00000  Uiso   1.00
I239   I     0.09777   0.39068   0.17662   0.00000  Uiso   1.00
I240   I     0.23556   0.60932   0.32338   0.00000  Uiso   1.00
N241   N     0.16667   0.61907   0.25000   0.00000  Uiso   1.00
N242   N     0.16667   0.38093   0.25000   0.00000  Uiso   1.00
O243   O     0.10559   0.53821   0.24999   0.00000  Uiso   1.00
O244   O     0.27626   0.54389   0.40557   0.00000  Uiso   1.00
O245   O     0.07737   0.50800   0.14643   0.00000  Uiso   1.00
O246   O     0.05708   0.45610   0.09443   0.00000  Uiso   1.00
O247   O     0.22774   0.46179   0.25001   0.00000  Uiso   1.00
O248   O     0.22774   0.53821   0.25001   0.00000  Uiso   1.00
O249   O     0.10559   0.46179   0.24999   0.00000  Uiso   1.00
O250   O     0.16666   0.53823   0.18393   0.00000  Uiso   1.00
O251   O     0.16667   0.46177   0.31608   0.00000  Uiso   1.00
O252   O     0.16667   0.53823   0.31608   0.00000  Uiso   1.00
O253   O     0.16666   0.46177   0.18393   0.00000  Uiso   1.00
O254   O     0.25596   0.49200   0.35357   0.00000  Uiso   1.00
Zn255  Zn    0.16667   0.55104   0.25000   0.00000  Uiso   1.00
Zn256  Zn    0.16667   0.44896   0.25000   0.00000  Uiso   1.00
C257   C     0.42015   0.49999   0.25046   0.00000  Uiso   1.00
C258   C     0.37591   0.49999   0.25062   0.00000  Uiso   1.00
C259   C     0.52654   0.35736   0.27857   0.00000  Uiso   1.00
C260   C     0.47346   0.64265   0.22143   0.00000  Uiso   1.00
C261   C     0.47343   0.35693   0.22151   0.00000  Uiso   1.00
C262   C     0.52657   0.64307   0.27849   0.00000  Uiso   1.00
C263   C     0.49828   0.49982   0.16370   0.00000  Uiso   1.00
C264   C     0.50172   0.50018   0.33630   0.00000  Uiso   1.00
C265   C     0.54134   0.50409   0.40972   0.00000  Uiso   1.00
C266   C     0.45866   0.49591   0.09028   0.00000  Uiso   1.00
C267   C     0.50328   0.50050   0.38414   0.00000  Uiso   1.00
C268   C     0.57985   0.50001   0.24954   0.00000  Uiso   1.00
C269   C     0.49672   0.49950   0.11586   0.00000  Uiso   1.00
C270   C     0.46514   0.49841   0.40383   0.00000  Uiso   1.00
C271   C     0.53486   0.50159   0.09617   0.00000  Uiso   1.00
C272   C     0.46358   0.49933   0.44987   0.00000  Uiso   1.00
C273   C     0.53642   0.50067   0.05013   0.00000  Uiso   1.00
C274   C     0.50095   0.50037   0.47663   0.00000  Uiso   1.00
C275   C     0.49905   0.49963   0.02337   0.00000  Uiso   1.00
C276   C     0.54015   0.50207   0.45673   0.00000  Uiso   1.00
C277   C     0.45985   0.49793   0.04327   0.00000  Uiso   1.00
C278   C     0.42504   0.49937   0.46934   0.00000  Uiso   1.00
C279   C     0.42311   0.49940   0.01554   0.00000  Uiso   1.00
C280   C     0.57496   0.50063   0.03066   0.00000  Uiso   1.00
C281   C     0.58136   0.51214   0.38773   0.00000  Uiso   1.00
C282   C     0.41864   0.48786   0.11227   0.00000  Uiso   1.00
C283   C     0.57689   0.50060   0.48446   0.00000  Uiso   1.00
C284   C     0.35462   0.45941   0.25066   0.00000  Uiso   1.00
C285   C     0.64538   0.54059   0.24934   0.00000  Uiso   1.00
C286   C     0.64533   0.45941   0.24981   0.00000  Uiso   1.00
C287   C     0.35467   0.54059   0.25019   0.00000  Uiso   1.00
C288   C     0.62409   0.50001   0.24938   0.00000  Uiso   1.00
H289   H     0.43648   0.49674   0.38297   0.00000  Uiso   1.00
H290   H     0.37077   0.57229   0.25043   0.00000  Uiso   1.00
H291   H     0.63556   0.54625   0.38779   0.00000  Uiso   1.00
H292   H     0.36444   0.45374   0.11221   0.00000  Uiso   1.00
H293   H     0.56352   0.50326   0.11703   0.00000  Uiso   1.00
H294   H     0.39625   0.49975   0.44877   0.00000  Uiso   1.00
H295   H     0.60375   0.50025   0.05123   0.00000  Uiso   1.00
H296   H     0.39256   0.50136   0.02894   0.00000  Uiso   1.00
H297   H     0.60744   0.49863   0.47106   0.00000  Uiso   1.00
H298   H     0.37068   0.42772   0.25131   0.00000  Uiso   1.00
H299   H     0.62932   0.57228   0.24869   0.00000  Uiso   1.00
H300   H     0.62923   0.42771   0.24957   0.00000  Uiso   1.00
I301   I     0.56851   0.39149   0.32437   0.00000  Uiso   1.00
I302   I     0.43149   0.60851   0.17563   0.00000  Uiso   1.00
I303   I     0.43111   0.39068   0.17662   0.00000  Uiso   1.00
I304   I     0.56889   0.60932   0.32338   0.00000  Uiso   1.00
N305   N     0.50000   0.61907   0.25000   0.00000  Uiso   1.00
N306   N     0.50000   0.38093   0.25000   0.00000  Uiso   1.00
O307   O     0.43892   0.53821   0.24999   0.00000  Uiso   1.00
O308   O     0.60959   0.54389   0.40557   0.00000  Uiso   1.00
O309   O     0.41071   0.50800   0.14643   0.00000  Uiso   1.00
O310   O     0.39041   0.45610   0.09443   0.00000  Uiso   1.00
O311   O     0.56108   0.46179   0.25001   0.00000  Uiso   1.00
O312   O     0.56108   0.53821   0.25001   0.00000  Uiso   1.00
O313   O     0.43892   0.46179   0.24999   0.00000  Uiso   1.00
O314   O     0.49999   0.53823   0.18393   0.00000  Uiso   1.00
O315   O     0.50001   0.46177   0.31608   0.00000  Uiso   1.00
O316   O     0.50001   0.53823   0.31608   0.00000  Uiso   1.00
O317   O     0.49999   0.46177   0.18393   0.00000  Uiso   1.00
O318   O     0.58929   0.49200   0.35357   0.00000  Uiso   1.00
Zn319  Zn    0.50000   0.55104   0.25000   0.00000  Uiso   1.00
Zn320  Zn    0.50000   0.44896   0.25000   0.00000  Uiso   1.00
C321   C     0.75349   0.49999   0.25046   0.00000  Uiso   1.00
C322   C     0.70924   0.49999   0.25062   0.00000  Uiso   1.00
C323   C     0.85987   0.35736   0.27857   0.00000  Uiso   1.00
C324   C     0.80680   0.64265   0.22143   0.00000  Uiso   1.00
C325   C     0.80676   0.35693   0.22151   0.00000  Uiso   1.00
C326   C     0.85990   0.64307   0.27849   0.00000  Uiso   1.00
C327   C     0.83162   0.49982   0.16370   0.00000  Uiso   1.00
C328   C     0.83505   0.50018   0.33630   0.00000  Uiso   1.00
C329   C     0.87467   0.50409   0.40972   0.00000  Uiso   1.00
C330   C     0.79200   0.49591   0.09028   0.00000  Uiso   1.00
C331   C     0.83661   0.50050   0.38414   0.00000  Uiso   1.00
C332   C     0.91318   0.50001   0.24954   0.00000  Uiso   1.00
C333   C     0.83006   0.49950   0.11586   0.00000  Uiso   1.00
C334   C     0.79847   0.49841   0.40383   0.00000  Uiso   1.00
C335   C     0.86819   0.50159   0.09617   0.00000  Uiso   1.00
C336   C     0.79692   0.49933   0.44987   0.00000  Uiso   1.00
C337   C     0.86975   0.50067   0.05013   0.00000  Uiso   1.00
C338   C     0.83429   0.50037   0.47663   0.00000  Uiso   1.00
C339   C     0.83238   0.49963   0.02337   0.00000  Uiso   1.00
C340   C     0.87348   0.50207   0.45673   0.00000  Uiso   1.00
C341   C     0.79319   0.49793   0.04327   0.00000  Uiso   1.00
C342   C     0.75837   0.49937   0.46934   0.00000  Uiso   1.00
C343   C     0.75645   0.49940   0.01554   0.00000  Uiso   1.00
C344   C     0.90830   0.50063   0.03066   0.00000  Uiso   1.00
C345   C     0.91470   0.51214   0.38773   0.00000  Uiso   1.00
C346   C     0.75197   0.48786   0.11227   0.00000  Uiso   1.00
C347   C     0.91022   0.50060   0.48446   0.00000  Uiso   1.00
C348   C     0.68796   0.45941   0.25066   0.00000  Uiso   1.00
C349   C     0.97871   0.54059   0.24934   0.00000  Uiso   1.00
C350   C     0.97866   0.45941   0.24981   0.00000  Uiso   1.00
C351   C     0.68800   0.54059   0.25019   0.00000  Uiso   1.00
C352   C     0.95743   0.50001   0.24938   0.00000  Uiso   1.00
H353   H     0.76981   0.49674   0.38297   0.00000  Uiso   1.00
H354   H     0.70410   0.57229   0.25043   0.00000  Uiso   1.00
H355   H     0.96890   0.54625   0.38779   0.00000  Uiso   1.00
H356   H     0.69777   0.45374   0.11221   0.00000  Uiso   1.00
H357   H     0.89685   0.50326   0.11703   0.00000  Uiso   1.00
H358   H     0.72959   0.49975   0.44877   0.00000  Uiso   1.00
H359   H     0.93708   0.50025   0.05123   0.00000  Uiso   1.00
H360   H     0.72590   0.50136   0.02894   0.00000  Uiso   1.00
H361   H     0.94077   0.49863   0.47106   0.00000  Uiso   1.00
H362   H     0.70402   0.42772   0.25131   0.00000  Uiso   1.00
H363   H     0.96265   0.57228   0.24869   0.00000  Uiso   1.00
H364   H     0.96257   0.42771   0.24957   0.00000  Uiso   1.00
I365   I     0.90184   0.39149   0.32437   0.00000  Uiso   1.00
I366   I     0.76483   0.60851   0.17563   0.00000  Uiso   1.00
I367   I     0.76444   0.39068   0.17662   0.00000  Uiso   1.00
I368   I     0.90223   0.60932   0.32338   0.00000  Uiso   1.00
N369   N     0.83333   0.61907   0.25000   0.00000  Uiso   1.00
N370   N     0.83333   0.38093   0.25000   0.00000  Uiso   1.00
O371   O     0.77226   0.53821   0.24999   0.00000  Uiso   1.00
O372   O     0.94293   0.54389   0.40557   0.00000  Uiso   1.00
O373   O     0.74404   0.50800   0.14643   0.00000  Uiso   1.00
O374   O     0.72374   0.45610   0.09443   0.00000  Uiso   1.00
O375   O     0.89441   0.46179   0.25001   0.00000  Uiso   1.00
O376   O     0.89441   0.53821   0.25001   0.00000  Uiso   1.00
O377   O     0.77226   0.46179   0.24999   0.00000  Uiso   1.00
O378   O     0.83333   0.53823   0.18393   0.00000  Uiso   1.00
O379   O     0.83334   0.46177   0.31608   0.00000  Uiso   1.00
O380   O     0.83334   0.53823   0.31608   0.00000  Uiso   1.00
O381   O     0.83333   0.46177   0.18393   0.00000  Uiso   1.00
O382   O     0.92262   0.49200   0.35357   0.00000  Uiso   1.00
Zn383  Zn    0.83333   0.55104   0.25000   0.00000  Uiso   1.00
Zn384  Zn    0.83333   0.44896   0.25000   0.00000  Uiso   1.00
C385   C     0.08682   0.83333   0.25046   0.00000  Uiso   1.00
C386   C     0.04257   0.83333   0.25062   0.00000  Uiso   1.00
C387   C     0.19320   0.69069   0.27857   0.00000  Uiso   1.00
C388   C     0.14013   0.97598   0.22143   0.00000  Uiso   1.00
C389   C     0.14010   0.69027   0.22151   0.00000  Uiso   1.00
C390   C     0.19324   0.97640   0.27849   0.00000  Uiso   1.00
C391   C     0.16495   0.83316   0.16370   0.00000  Uiso   1.00
C392   C     0.16838   0.83351   0.33630   0.00000  Uiso   1.00
C393   C     0.20800   0.83742   0.40972   0.00000  Uiso   1.00
C394   C     0.12533   0.82924   0.09028   0.00000  Uiso   1.00
C395   C     0.16994   0.83383   0.38414   0.00000  Uiso   1.00
C396   C     0.24651   0.83334   0.24954   0.00000  Uiso   1.00
C397   C     0.16339   0.83284   0.11586   0.00000  Uiso   1.00
C398   C     0.13181   0.83174   0.40383   0.00000  Uiso   1.00
C399   C     0.20153   0.83493   0.09617   0.00000  Uiso   1.00
C400   C     0.13025   0.83266   0.44987   0.00000  Uiso   1.00
C401   C     0.20308   0.83401   0.05013   0.00000  Uiso   1.00
C402   C     0.16762   0.83370   0.47663   0.00000  Uiso   1.00
C403   C     0.16571   0.83296   0.02337   0.00000  Uiso   1.00
C404   C     0.20681   0.83540   0.45673   0.00000  Uiso   1.00
C405   C     0.12652   0.83126   0.04327   0.00000  Uiso   1.00
C406   C     0.09170   0.83270   0.46934   0.00000  Uiso   1.00
C407   C     0.08978   0.83273   0.01554   0.00000  Uiso   1.00
C408   C     0.24163   0.83396   0.03066   0.00000  Uiso   1.00
C409   C     0.24803   0.84548   0.38773   0.00000  Uiso   1.00
C410   C     0.08530   0.82119   0.11227   0.00000  Uiso   1.00
C411   C     0.24355   0.83393   0.48446   0.00000  Uiso   1.00
C412   C     0.02129   0.79274   0.25066   0.00000  Uiso   1.00
C413   C     0.31204   0.87392   0.24934   0.00000  Uiso   1.00
C414   C     0.31200   0.79275   0.24981   0.00000  Uiso   1.00
C415   C     0.02133   0.87392   0.25019   0.00000  Uiso   1.00
C416   C     0.29076   0.83334   0.24938   0.00000  Uiso   1.00
H417   H     0.10315   0.83008   0.38297   0.00000  Uiso   1.00
H418   H     0.03743   0.90562   0.25043   0.00000  Uiso   1.00
H419   H     0.30223   0.87959   0.38779   0.00000  Uiso   1.00
H420   H     0.03110   0.78708   0.11221   0.00000  Uiso   1.00
H421   H     0.23019   0.83659   0.11703   0.00000  Uiso   1.00
H422   H     0.06292   0.83308   0.44877   0.00000  Uiso   1.00
H423   H     0.27041   0.83358   0.05123   0.00000  Uiso   1.00
H424   H     0.05923   0.83470   0.02894   0.00000  Uiso   1.00
H425   H     0.27410   0.83197   0.47106   0.00000  Uiso   1.00
H426   H     0.03735   0.76105   0.25131   0.00000  Uiso   1.00
H427   H     0.29598   0.90562   0.24869   0.00000  Uiso   1.00
H428   H     0.29590   0.76104   0.24957   0.00000  Uiso   1.00
I429   I     0.23517   0.72482   0.32437   0.00000  Uiso   1.00
I430   I     0.09816   0.94185   0.17563   0.00000  Uiso   1.00
I431   I     0.09777   0.72401   0.17662   0.00000  Uiso   1.00
I432   I     0.23556   0.94266   0.32338   0.00000  Uiso   1.00
N433   N     0.16667   0.95240   0.25000   0.00000  Uiso   1.00
N434   N     0.16667   0.71427   0.25000   0.00000  Uiso   1.00
O435   O     0.10559   0.87154   0.24999   0.00000  Uiso   1.00
O436   O     0.27626   0.87723   0.40557   0.00000  Uiso   1.00
O437   O     0.07737   0.84133   0.14643   0.00000  Uiso   1.00
O438   O     0.05708   0.78944   0.09443   0.00000  Uiso   1.00
O439   O     0.22774   0.79513   0.25001   0.00000  Uiso   1.00
O440   O     0.22774   0.87154   0.25001   0.00000  Uiso   1.00
O441   O     0.10559   0.79513   0.24999   0.00000  Uiso   1.00
O442   O     0.16666   0.87156   0.18393   0.00000  Uiso   1.00
O443   O     0.16667   0.79511   0.31608   0.00000  Uiso   1.00
O444   O     0.16667   0.87156   0.31608   0.00000  Uiso   1.00
O445   O     0.16666   0.79511   0.18393   0.00000  Uiso   1.00
O446   O     0.25596   0.82534   0.35357   0.00000  Uiso   1.00
Zn447  Zn    0.16667   0.88437   0.25000   0.00000  Uiso   1.00
Zn448  Zn    0.16667   0.78229   0.25000   0.00000  Uiso   1.00
C449   C     0.42015   0.83333   0.25046   0.00000  Uiso   1.00
C450   C     0.37591   0.83333   0.25062   0.00000  Uiso   1.00
C451   C     0.52654   0.69069   0.27857   0.00000  Uiso   1.00
C452   C     0.47346   0.97598   0.22143   0.00000  Uiso   1.00
C453   C     0.47343   0.69027   0.22151   0.00000  Uiso   1.00
C454   C     0.52657   0.97640   0.27849   0.00000  Uiso   1.00
C455   C     0.49828   0.83316   0.16370   0.00000  Uiso   1.00
C456   C     0.50172   0.83351   0.33630   0.00000  Uiso   1.00
C457   C     0.54134   0.83742   0.40972   0.00000  Uiso   1.00
C458   C     0.45866   0.82924   0.09028   0.00000  Uiso   1.00
C459   C     0.50328   0.83383   0.38414   0.00000  Uiso   1.00
C460   C     0.57985   0.83334   0.24954   0.00000  Uiso   1.00
C461   C     0.49672   0.83284   0.11586   0.00000  Uiso   1.00
C462   C     0.46514   0.83174   0.40383   0.00000  Uiso   1.00
C463   C     0.53486   0.83493   0.09617   0.00000  Uiso   1.00
C464   C     0.46358   0.83266   0.44987   0.00000  Uiso   1.00
C465   C     0.53642   0.83401   0.05013   0.00000  Uiso   1.00
C466   C     0.50095   0.83370   0.47663   0.00000  Uiso   1.00
C467   C     0.49905   0.83296   0.02337   0.00000  Uiso   1.00
C468   C     0.54015   0.83540   0.45673   0.00000  Uiso   1.00
C469   C     0.45985   0.83126   0.04327   0.00000  Uiso   1.00
C470   C     0.42504   0.83270   0.46934   0.00000  Uiso   1.00
C471   C     0.42311   0.83273   0.01554   0.00000  Uiso   1.00
C472   C     0.57496   0.83396   0.03066   0.00000  Uiso   1.00
C473   C     0.58136   0.84548   0.38773   0.00000  Uiso   1.00
C474   C     0.41864   0.82119   0.11227   0.00000  Uiso   1.00
C475   C     0.57689   0.83393   0.48446   0.00000  Uiso   1.00
C476   C     0.35462   0.79274   0.25066   0.00000  Uiso   1.00
C477   C     0.64538   0.87392   0.24934   0.00000  Uiso   1.00
C478   C     0.64533   0.79275   0.24981   0.00000  Uiso   1.00
C479   C     0.35467   0.87392   0.25019   0.00000  Uiso   1.00
C480   C     0.62409   0.83334   0.24938   0.00000  Uiso   1.00
H481   H     0.43648   0.83008   0.38297   0.00000  Uiso   1.00
H482   H     0.37077   0.90562   0.25043   0.00000  Uiso   1.00
H483   H     0.63556   0.87959   0.38779   0.00000  Uiso   1.00
H484   H     0.36444   0.78708   0.11221   0.00000  Uiso   1.00
H485   H     0.56352   0.83659   0.11703   0.00000  Uiso   1.00
H486   H     0.39625   0.83308   0.44877   0.00000  Uiso   1.00
H487   H     0.60375   0.83358   0.05123   0.00000  Uiso   1.00
H488   H     0.39256   0.83470   0.02894   0.00000  Uiso   1.00
H489   H     0.60744   0.83197   0.47106   0.00000  Uiso   1.00
H490   H     0.37068   0.76105   0.25131   0.00000  Uiso   1.00
H491   H     0.62932   0.90562   0.24869   0.00000  Uiso   1.00
H492   H     0.62923   0.76104   0.24957   0.00000  Uiso   1.00
I493   I     0.56851   0.72482   0.32437   0.00000  Uiso   1.00
I494   I     0.43149   0.94185   0.17563   0.00000  Uiso   1.00
I495   I     0.43111   0.72401   0.17662   0.00000  Uiso   1.00
I496   I     0.56889   0.94266   0.32338   0.00000  Uiso   1.00
N497   N     0.50000   0.95240   0.25000   0.00000  Uiso   1.00
N498   N     0.50000   0.71427   0.25000   0.00000  Uiso   1.00
O499   O     0.43892   0.87154   0.24999   0.00000  Uiso   1.00
O500   O     0.60959   0.87723   0.40557   0.00000  Uiso   1.00
O501   O     0.41071   0.84133   0.14643   0.00000  Uiso   1.00
O502   O     0.39041   0.78944   0.09443   0.00000  Uiso   1.00
O503   O     0.56108   0.79513   0.25001   0.00000  Uiso   1.00
O504   O     0.56108   0.87154   0.25001   0.00000  Uiso   1.00
O505   O     0.43892   0.79513   0.24999   0.00000  Uiso   1.00
O506   O     0.49999   0.87156   0.18393   0.00000  Uiso   1.00
O507   O     0.50001   0.79511   0.31608   0.00000  Uiso   1.00
O508   O     0.50001   0.87156   0.31608   0.00000  Uiso   1.00
O509   O     0.49999   0.79511   0.18393   0.00000  Uiso   1.00
O510   O     0.58929   0.82534   0.35357   0.00000  Uiso   1.00
Zn511  Zn    0.50000   0.88437   0.25000   0.00000  Uiso   1.00
Zn512  Zn    0.50000   0.78229   0.25000   0.00000  Uiso   1.00
C513   C     0.75349   0.83333   0.25046   0.00000  Uiso   1.00
C514   C     0.70924   0.83333   0.25062   0.00000  Uiso   1.00
C515   C     0.85987   0.69069   0.27857   0.00000  Uiso   1.00
C516   C     0.80680   0.97598   0.22143   0.00000  Uiso   1.00
C517   C     0.80676   0.69027   0.22151   0.00000  Uiso   1.00
C518   C     0.85990   0.97640   0.27849   0.00000  Uiso   1.00
C519   C     0.83162   0.83316   0.16370   0.00000  Uiso   1.00
C520   C     0.83505   0.83351   0.33630   0.00000  Uiso   1.00
C521   C     0.87467   0.83742   0.40972   0.00000  Uiso   1.00
C522   C     0.79200   0.82924   0.09028   0.00000  Uiso   1.00
C523   C     0.83661   0.83383   0.38414   0.00000  Uiso   1.00
C524   C     0.91318   0.83334   0.24954   0.00000  Uiso   1.00
C525   C     0.83006   0.83284   0.11586   0.00000  Uiso   1.00
C526   C     0.79847   0.83174   0.40383   0.00000  Uiso   1.00
C527   C     0.86819   0.83493   0.09617   0.00000  Uiso   1.00
C528   C     0.79692   0.83266   0.44987   0.00000  Uiso   1.00
C529   C     0.86975   0.83401   0.05013   0.00000  Uiso   1.00
C530   C     0.83429   0.83370   0.47663   0.00000  Uiso   1.00
C531   C     0.83238   0.83296   0.02337   0.00000  Uiso   1.00
C532   C     0.87348   0.83540   0.45673   0.00000  Uiso   1.00
C533   C     0.79319   0.83126   0.04327   0.00000  Uiso   1.00
C534   C     0.75837   0.83270   0.46934   0.00000  Uiso   1.00
C535   C     0.75645   0.83273   0.01554   0.00000  Uiso   1.00
C536   C     0.90830   0.83396   0.03066   0.00000  Uiso   1.00
C537   C     0.91470   0.84548   0.38773   0.00000  Uiso   1.00
C538   C     0.75197   0.82119   0.11227   0.00000  Uiso   1.00
C539   C     0.91022   0.83393   0.48446   0.00000  Uiso   1.00
C540   C     0.68796   0.79274   0.25066   0.00000  Uiso   1.00
C541   C     0.97871   0.87392   0.24934   0.00000  Uiso   1.00
C542   C     0.97866   0.79275   0.24981   0.00000  Uiso   1.00
C543   C     0.68800   0.87392   0.25019   0.00000  Uiso   1.00
C544   C     0.95743   0.83334   0.24938   0.00000  Uiso   1.00
H545   H     0.76981   0.83008   0.38297   0.00000  Uiso   1.00
H546   H     0.70410   0.90562   0.25043   0.00000  Uiso   1.00
H547   H     0.96890   0.87959   0.38779   0.00000  Uiso   1.00
H548   H     0.69777   0.78708   0.11221   0.00000  Uiso   1.00
H549   H     0.89685   0.83659   0.11703   0.00000  Uiso   1.00
H550   H     0.72959   0.83308   0.44877   0.00000  Uiso   1.00
H551   H     0.93708   0.83358   0.05123   0.00000  Uiso   1.00
H552   H     0.72590   0.83470   0.02894   0.00000  Uiso   1.00
H553   H     0.94077   0.83197   0.47106   0.00000  Uiso   1.00
H554   H     0.70402   0.76105   0.25131   0.00000  Uiso   1.00
H555   H     0.96265   0.90562   0.24869   0.00000  Uiso   1.00
H556   H     0.96257   0.76104   0.24957   0.00000  Uiso   1.00
I557   I     0.90184   0.72482   0.32437   0.00000  Uiso   1.00
I558   I     0.76483   0.94185   0.17563   0.00000  Uiso   1.00
I559   I     0.76444   0.72401   0.17662   0.00000  Uiso   1.00
I560   I     0.90223   0.94266   0.32338   0.00000  Uiso   1.00
N561   N     0.83333   0.95240   0.25000   0.00000  Uiso   1.00
N562   N     0.83333   0.71427   0.25000   0.00000  Uiso   1.00
O563   O     0.77226   0.87154   0.24999   0.00000  Uiso   1.00
O564   O     0.94293   0.87723   0.40557   0.00000  Uiso   1.00
O565   O     0.74404   0.84133   0.14643   0.00000  Uiso   1.00
O566   O     0.72374   0.78944   0.09443   0.00000  Uiso   1.00
O567   O     0.89441   0.79513   0.25001   0.00000  Uiso   1.00
O568   O     0.89441   0.87154   0.25001   0.00000  Uiso   1.00
O569   O     0.77226   0.79513   0.24999   0.00000  Uiso   1.00
O570   O     0.83333   0.87156   0.18393   0.00000  Uiso   1.00
O571   O     0.83334   0.79511   0.31608   0.00000  Uiso   1.00
O572   O     0.83334   0.87156   0.31608   0.00000  Uiso   1.00
O573   O     0.83333   0.79511   0.18393   0.00000  Uiso   1.00
O574   O     0.92262   0.82534   0.35357   0.00000  Uiso   1.00
Zn575  Zn    0.83333   0.88437   0.25000   0.00000  Uiso   1.00
Zn576  Zn    0.83333   0.78229   0.25000   0.00000  Uiso   1.00
C577   C     0.08682   0.16666   0.75046   0.00000  Uiso   1.00
C578   C     0.04257   0.16666   0.75062   0.00000  Uiso   1.00
C579   C     0.19320   0.02402   0.77857   0.00000  Uiso   1.00
C580   C     0.14013   0.30931   0.72143   0.00000  Uiso   1.00
C581   C     0.14010   0.02360   0.72151   0.00000  Uiso   1.00
C582   C     0.19324   0.30973   0.77849   0.00000  Uiso   1.00
C583   C     0.16495   0.16649   0.66370   0.00000  Uiso   1.00
C584   C     0.16838   0.16684   0.83630   0.00000  Uiso   1.00
C585   C     0.20800   0.17076   0.90972   0.00000  Uiso   1.00
C586   C     0.12533   0.16258   0.59028   0.00000  Uiso   1.00
C587   C     0.16994   0.16716   0.88414   0.00000  Uiso   1.00
C588   C     0.24651   0.16667   0.74954   0.00000  Uiso   1.00
C589   C     0.16339   0.16617   0.61586   0.00000  Uiso   1.00
C590   C     0.13181   0.16507   0.90383   0.00000  Uiso   1.00
C591   C     0.20153   0.16826   0.59617   0.00000  Uiso   1.00
C592   C     0.13025   0.16599   0.94987   0.00000  Uiso   1.00
C593   C     0.20308   0.16734   0.55013   0.00000  Uiso   1.00
C594   C     0.16762   0.16703   0.97663   0.00000  Uiso   1.00
C595   C     0.16571   0.16630   0.52337   0.00000  Uiso   1.00
C596   C     0.20681   0.16874   0.95673   0.00000  Uiso   1.00
C597   C     0.12652   0.16460   0.54327   0.00000  Uiso   1.00
C598   C     0.09170   0.16604   0.96934   0.00000  Uiso   1.00
C599   C     0.08978   0.16607   0.51554   0.00000  Uiso   1.00
C600   C     0.24163   0.16729   0.53066   0.00000  Uiso   1.00
C601   C     0.24803   0.17881   0.88773   0.00000  Uiso   1.00
C602   C     0.08530   0.15452   0.61227   0.00000  Uiso   1.00
C603   C     0.24355   0.16727   0.98446   0.00000  Uiso   1.00
C604   C     0.02129   0.12608   0.75066   0.00000  Uiso   1.00
C605   C     0.31204   0.20726   0.74934   0.00000  Uiso   1.00
C606   C     0.31200   0.12608   0.74981   0.00000  Uiso   1.00
C607   C     0.02133   0.20726   0.75019   0.00000  Uiso   1.00
C608   C     0.29076   0.16667   0.74938   0.00000  Uiso   1.00
H609   H     0.10315   0.16341   0.88297   0.00000  Uiso   1.00
H610   H     0.03743   0.23896   0.75043   0.00000  Uiso   1.00
H611   H     0.30223   0.21292   0.88779   0.00000  Uiso   1.00
H612   H     0.03110   0.12041   0.61221   0.00000  Uiso   1.00
H613   H     0.23019   0.16992   0.61703   0.00000  Uiso   1.00
H614   H     0.06292   0.16642   0.94877   0.00000  Uiso   1.00
H615   H     0.27041   0.16691   0.55123   0.00000  Uiso   1.00
H616   H     0.05923   0.16803   0.52894   0.00000  Uiso   1.00
H617   H     0.27410   0.16530   0.97106   0.00000  Uiso   1.00
H618   H     0.03735   0.09438   0.75131   0.00000  Uiso   1.00
H619   H     0.29598   0.23895   0.74869   0.00000  Uiso   1.00
H620   H     0.29590   0.09438   0.74957   0.00000  Uiso   1.00
I621   I     0.23517   0.05816   0.82437   0.00000  Uiso   1.00
I622   I     0.09816   0.27518   0.67563   0.00000  Uiso   1.00
I623   I     0.09777   0.05734   0.67662   0.00000  Uiso   1.00
I624   I     0.23556   0.27599   0.82338   0.00000  Uiso   1.00
N625   N     0.16667   0.28573   0.75000   0.00000  Uiso   1.00
N626   N     0.16667   0.04760   0.75000   0.00000  Uiso   1.00
O627   O     0.10559   0.20487   0.74999   0.00000  Uiso   1.00
O628   O     0.27626   0.21056   0.90557   0.00000  Uiso   1.00
O629   O     0.07737   0.17467   0.64643   0.00000  Uiso   1.00
O630   O     0.05708   0.12277   0.59443   0.00000  Uiso   1.00
O631   O     0.22774   0.12846   0.75001   0.00000  Uiso   1.00
O632   O     0.22774   0.20487   0.75001   0.00000  Uiso   1.00
O633   O     0.10559   0.12846   0.74999   0.00000  Uiso   1.00
O634   O     0.16666   0.20489   0.68393   0.00000  Uiso   1.00
O635   O     0.16667   0.12844   0.81608   0.00000  Uiso   1.00
O636   O     0.16667   0.20489   0.81608   0.00000  Uiso   1.00
O637   O     0.16666   0.12844   0.68393   0.00000  Uiso   1.00
O638   O     0.25596   0.15867   0.85357   0.00000  Uiso   1.00
Zn639  Zn    0.16667   0.21771   0.75000   0.00000  Uiso   1.00
Zn640  Zn    0.16667   0.11563   0.75000   0.00000  Uiso   1.00
C641   C     0.42015   0.16666   0.75046   0.00000  Uiso   1.00
C642   C     0.37591   0.16666   0.75062   0.00000  Uiso   1.00
C643   C     0.52654   0.02402   0.77857   0.00000  Uiso   1.00
C644   C     0.47346   0.30931   0.72143   0.00000  Uiso   1.00
C645   C     0.47343   0.02360   0.72151   0.00000  Uiso   1.00
C646   C     0.52657   0.30973   0.77849   0.00000  Uiso   1.00
C647   C     0.49828   0.16649   0.66370   0.00000  Uiso   1.00
C648   C     0.50172   0.16684   0.83630   0.00000  Uiso   1.00
C649   C     0.54134   0.17076   0.90972   0.00000  Uiso   1.00
C650   C     0.45866   0.16258   0.59028   0.00000  Uiso   1.00
C651   C     0.50328   0.16716   0.88414   0.00000  Uiso   1.00
C652   C     0.57985   0.16667   0.74954   0.00000  Uiso   1.00
C653   C     0.49672   0.16617   0.61586   0.00000  Uiso   1.00
C654   C     0.46514   0.16507   0.90383   0.00000  Uiso   1.00
C655   C     0.53486   0.16826   0.59617   0.00000  Uiso   1.00
C656   C     0.46358   0.16599   0.94987   0.00000  Uiso   1.00
C657   C     0.53642   0.16734   0.55013   0.00000  Uiso   1.00
C658   C     0.50095   0.16703   0.97663   0.00000  Uiso   1.00
C659   C     0.49905   0.16630   0.52337   0.00000  Uiso   1.00
C660   C     0.54015   0.16874   0.95673   0.00000  Uiso   1.00
C661   C     0.45985   0.16460   0.54327   0.00000  Uiso   1.00
C662   C     0.42504   0.16604   0.96934   0.00000  Uiso   1.00
C663   C     0.42311   0.16607   0.51554   0.00000  Uiso   1.00
C664   C     0.57496   0.16729   0.53066   0.00000  Uiso   1.00
C665   C     0.58136   0.17881   0.88773   0.00000  Uiso   1.00
C666   C     0.41864   0.15452   0.61227   0.00000  Uiso   1.00
C667   C     0.57689   0.16727   0.98446   0.00000  Uiso   1.00
C668   C     0.35462   0.12608   0.75066   0.00000  Uiso   1.00
C669   C     0.64538   0.20726   0.74934   0.00000  Uiso   1.00
C670   C     0.64533   0.12608   0.74981   0.00000  Uiso   1.00
C671   C     0.35467   0.20726   0.75019   0.00000  Uiso   1.00
C672   C     0.62409   0.16667   0.74938   0.00000  Uiso   1.00
H673   H     0.43648   0.16341   0.88297   0.00000  Uiso   1.00
H674   H     0.37077   0.23896   0.75043   0.00000  Uiso   1.00
H675   H     0.63556   0.21292   0.88779   0.00000  Uiso   1.00
H676   H     0.36444   0.12041   0.61221   0.00000  Uiso   1.00
H677   H     0.56352   0.16992   0.61703   0.00000  Uiso   1.00
H678   H     0.39625   0.16642   0.94877   0.00000  Uiso   1.00
H679   H     0.60375   0.16691   0.55123   0.00000  Uiso   1.00
H680   H     0.39256   0.16803   0.52894   0.00000  Uiso   1.00
H681   H     0.60744   0.16530   0.97106   0.00000  Uiso   1.00
H682   H     0.37068   0.09438   0.75131   0.00000  Uiso   1.00
H683   H     0.62932   0.23895   0.74869   0.00000  Uiso   1.00
H684   H     0.62923   0.09438   0.74957   0.00000  Uiso   1.00
I685   I     0.56851   0.05816   0.82437   0.00000  Uiso   1.00
I686   I     0.43149   0.27518   0.67563   0.00000  Uiso   1.00
I687   I     0.43111   0.05734   0.67662   0.00000  Uiso   1.00
I688   I     0.56889   0.27599   0.82338   0.00000  Uiso   1.00
N689   N     0.50000   0.28573   0.75000   0.00000  Uiso   1.00
N690   N     0.50000   0.04760   0.75000   0.00000  Uiso   1.00
O691   O     0.43892   0.20487   0.74999   0.00000  Uiso   1.00
O692   O     0.60959   0.21056   0.90557   0.00000  Uiso   1.00
O693   O     0.41071   0.17467   0.64643   0.00000  Uiso   1.00
O694   O     0.39041   0.12277   0.59443   0.00000  Uiso   1.00
O695   O     0.56108   0.12846   0.75001   0.00000  Uiso   1.00
O696   O     0.56108   0.20487   0.75001   0.00000  Uiso   1.00
O697   O     0.43892   0.12846   0.74999   0.00000  Uiso   1.00
O698   O     0.49999   0.20489   0.68393   0.00000  Uiso   1.00
O699   O     0.50001   0.12844   0.81608   0.00000  Uiso   1.00
O700   O     0.50001   0.20489   0.81608   0.00000  Uiso   1.00
O701   O     0.49999   0.12844   0.68393   0.00000  Uiso   1.00
O702   O     0.58929   0.15867   0.85357   0.00000  Uiso   1.00
Zn703  Zn    0.50000   0.21771   0.75000   0.00000  Uiso   1.00
Zn704  Zn    0.50000   0.11563   0.75000   0.00000  Uiso   1.00
C705   C     0.75349   0.16666   0.75046   0.00000  Uiso   1.00
C706   C     0.70924   0.16666   0.75062   0.00000  Uiso   1.00
C707   C     0.85987   0.02402   0.77857   0.00000  Uiso   1.00
C708   C     0.80680   0.30931   0.72143   0.00000  Uiso   1.00
C709   C     0.80676   0.02360   0.72151   0.00000  Uiso   1.00
C710   C     0.85990   0.30973   0.77849   0.00000  Uiso   1.00
C711   C     0.83162   0.16649   0.66370   0.00000  Uiso   1.00
C712   C     0.83505   0.16684   0.83630   0.00000  Uiso   1.00
C713   C     0.87467   0.17076   0.90972   0.00000  Uiso   1.00
C714   C     0.79200   0.16258   0.59028   0.00000  Uiso   1.00
C715   C     0.83661   0.16716   0.88414   0.00000  Uiso   1.00
C716   C     0.91318   0.16667   0.74954   0.00000  Uiso   1.00
C717   C     0.83006   0.16617   0.61586   0.00000  Uiso   1.00
C718   C     0.79847   0.16507   0.90383   0.00000  Uiso   1.00
C719   C     0.86819   0.16826   0.59617   0.00000  Uiso   1.00
C720   C     0.79692   0.16599   0.94987   0.00000  Uiso   1.00
C721   C     0.86975   0.16734   0.55013   0.00000  Uiso   1.00
C722   C     0.83429   0.16703   0.97663   0.00000  Uiso   1.00
C723   C     0.83238   0.16630   0.52337   0.00000  Uiso   1.00
C724   C     0.87348   0.16874   0.95673   0.00000  Uiso   1.00
C725   C     0.79319   0.16460   0.54327   0.00000  Uiso   1.00
C726   C     0.75837   0.16604   0.96934   0.00000  Uiso   1.00
C727   C     0.75645   0.16607   0.51554   0.00000  Uiso   1.00
C728   C     0.90830   0.16729   0.53066   0.00000  Uiso   1.00
C729   C     0.91470   0.17881   0.88773   0.00000  Uiso   1.00
C730   C     0.75197   0.15452   0.61227   0.00000  Uiso   1.00
C731   C     0.91022   0.16727   0.98446   0.00000  Uiso   1.00
C732   C     0.68796   0.12608   0.75066   0.00000  Uiso   1.00
C733   C     0.97871   0.20726   0.74934   0.00000  Uiso   1.00
C734   C     0.97866   0.12608   0.74981   0.00000  Uiso   1.00
C735   C     0.68800   0.20726   0.75019   0.00000  Uiso   1.00
C736   C     0.95743   0.16667   0.74938   0.00000  Uiso   1.00
H737   H     0.76981   0.16341   0.88297   0.00000  Uiso   1.00
H738   H     0.70410   0.23896   0.75043   0.00000  Uiso   1.00
H739   H     0.96890   0.21292   0.88779   0.00000  Uiso   1.00
H740   H     0.69777   0.12041   0.61221   0.00000  Uiso   1.00
H741   H     0.89685   0.16992   0.61703   0.00000  Uiso   1.00
H742   H     0.72959   0.16642   0.94877   0.00000  Uiso   1.00
H743   H     0.93708   0.16691   0.55123   0.00000  Uiso   1.00
H744   H     0.72590   0.16803   0.52894   0.00000  Uiso   1.00
H745   H     0.94077   0.16530   0.97106   0.00000  Uiso   1.00
H746   H     0.70402   0.09438   0.75131   0.00000  Uiso   1.00
H747   H     0.96265   0.23895   0.74869   0.00000  Uiso   1.00
H748   H     0.96257   0.09438   0.74957   0.00000  Uiso   1.00
I749   I     0.90184   0.05816   0.82437   0.00000  Uiso   1.00
I750   I     0.76483   0.27518   0.67563   0.00000  Uiso   1.00
I751   I     0.76444   0.05734   0.67662   0.00000  Uiso   1.00
I752   I     0.90223   0.27599   0.82338   0.00000  Uiso   1.00
N753   N     0.83333   0.28573   0.75000   0.00000  Uiso   1.00
N754   N     0.83333   0.04760   0.75000   0.00000  Uiso   1.00
O755   O     0.77226   0.20487   0.74999   0.00000  Uiso   1.00
O756   O     0.94293   0.21056   0.90557   0.00000  Uiso   1.00
O757   O     0.74404   0.17467   0.64643   0.00000  Uiso   1.00
O758   O     0.72374   0.12277   0.59443   0.00000  Uiso   1.00
O759   O     0.89441   0.12846   0.75001   0.00000  Uiso   1.00
O760   O     0.89441   0.20487   0.75001   0.00000  Uiso   1.00
O761   O     0.77226   0.12846   0.74999   0.00000  Uiso   1.00
O762   O     0.83333   0.20489   0.68393   0.00000  Uiso   1.00
O763   O     0.83334   0.12844   0.81608   0.00000  Uiso   1.00
O764   O     0.83334   0.20489   0.81608   0.00000  Uiso   1.00
O765   O     0.83333   0.12844   0.68393   0.00000  Uiso   1.00
O766   O     0.92262   0.15867   0.85357   0.00000  Uiso   1.00
Zn767  Zn    0.83333   0.21771   0.75000   0.00000  Uiso   1.00
Zn768  Zn    0.83333   0.11563   0.75000   0.00000  Uiso   1.00
C769   C     0.08682   0.49999   0.75046   0.00000  Uiso   1.00
C770   C     0.04257   0.49999   0.75062   0.00000  Uiso   1.00
C771   C     0.19320   0.35736   0.77857   0.00000  Uiso   1.00
C772   C     0.14013   0.64265   0.72143   0.00000  Uiso   1.00
C773   C     0.14010   0.35693   0.72151   0.00000  Uiso   1.00
C774   C     0.19324   0.64307   0.77849   0.00000  Uiso   1.00
C775   C     0.16495   0.49982   0.66370   0.00000  Uiso   1.00
C776   C     0.16838   0.50018   0.83630   0.00000  Uiso   1.00
C777   C     0.20800   0.50409   0.90972   0.00000  Uiso   1.00
C778   C     0.12533   0.49591   0.59028   0.00000  Uiso   1.00
C779   C     0.16994   0.50050   0.88414   0.00000  Uiso   1.00
C780   C     0.24651   0.50001   0.74954   0.00000  Uiso   1.00
C781   C     0.16339   0.49950   0.61586   0.00000  Uiso   1.00
C782   C     0.13181   0.49841   0.90383   0.00000  Uiso   1.00
C783   C     0.20153   0.50159   0.59617   0.00000  Uiso   1.00
C784   C     0.13025   0.49933   0.94987   0.00000  Uiso   1.00
C785   C     0.20308   0.50067   0.55013   0.00000  Uiso   1.00
C786   C     0.16762   0.50037   0.97663   0.00000  Uiso   1.00
C787   C     0.16571   0.49963   0.52337   0.00000  Uiso   1.00
C788   C     0.20681   0.50207   0.95673   0.00000  Uiso   1.00
C789   C     0.12652   0.49793   0.54327   0.00000  Uiso   1.00
C790   C     0.09170   0.49937   0.96934   0.00000  Uiso   1.00
C791   C     0.08978   0.49940   0.51554   0.00000  Uiso   1.00
C792   C     0.24163   0.50063   0.53066   0.00000  Uiso   1.00
C793   C     0.24803   0.51214   0.88773   0.00000  Uiso   1.00
C794   C     0.08530   0.48786   0.61227   0.00000  Uiso   1.00
C795   C     0.24355   0.50060   0.98446   0.00000  Uiso   1.00
C796   C     0.02129   0.45941   0.75066   0.00000  Uiso   1.00
C797   C     0.31204   0.54059   0.74934   0.00000  Uiso   1.00
C798   C     0.31200   0.45941   0.74981   0.00000  Uiso   1.00
C799   C     0.02133   0.54059   0.75019   0.00000  Uiso   1.00
C800   C     0.29076   0.50001   0.74938   0.00000  Uiso   1.00
H801   H     0.10315   0.49674   0.88297   0.00000  Uiso   1.00
H802   H     0.03743   0.57229   0.75043   0.00000  Uiso   1.00
H803   H     0.30223   0.54625   0.88779   0.00000  Uiso   1.00
H804   H     0.03110   0.45374   0.61221   0.00000  Uiso   1.00
H805   H     0.23019   0.50326   0.61703   0.00000  Uiso   1.00
H806   H     0.06292   0.49975   0.94877   0.00000  Uiso   1.00
H807   H     0.27041   0.50025   0.55123   0.00000  Uiso   1.00
H808   H     0.05923   0.50136   0.52894   0.00000  Uiso   1.00
H809   H     0.27410   0.49863   0.97106   0.00000  Uiso   1.00
H810   H     0.03735   0.42772   0.75131   0.00000  Uiso   1.00
H811   H     0.29598   0.57228   0.74869   0.00000  Uiso   1.00
H812   H     0.29590   0.42771   0.74957   0.00000  Uiso   1.00
I813   I     0.23517   0.39149   0.82437   0.00000  Uiso   1.00
I814   I     0.09816   0.60851   0.67563   0.00000  Uiso   1.00
I815   I     0.09777   0.39068   0.67662   0.00000  Uiso   1.00
I816   I     0.23556   0.60932   0.82338   0.00000  Uiso   1.00
N817   N     0.16667   0.61907   0.75000   0.00000  Uiso   1.00
N818   N     0.16667   0.38093   0.75000   0.00000  Uiso   1.00
O819   O     0.10559   0.53821   0.74999   0.00000  Uiso   1.00
O820   O     0.27626   0.54389   0.90557   0.00000  Uiso   1.00
O821   O     0.07737   0.50800   0.64643   0.00000  Uiso   1.00
O822   O     0.05708   0.45610   0.59443   0.00000  Uiso   1.00
O823   O     0.22774   0.46179   0.75001   0.00000  Uiso   1.00
O824   O     0.22774   0.53821   0.75001   0.00000  Uiso   1.00
O825   O     0.10559   0.46179   0.74999   0.00000  Uiso   1.00
O826   O     0.16666   0.53823   0.68393   0.00000  Uiso   1.00
O827   O     0.16667   0.46177   0.81608   0.00000  Uiso   1.00
O828   O     0.16667   0.53823   0.81608   0.00000  Uiso   1.00
O829   O     0.16666   0.46177   0.68393   0.00000  Uiso   1.00
O830   O     0.25596   0.49200   0.85357   0.00000  Uiso   1.00
Zn831  Zn    0.16667   0.55104   0.75000   0.00000  Uiso   1.00
Zn832  Zn    0.16667   0.44896   0.75000   0.00000  Uiso   1.00
C833   C     0.42015   0.49999   0.75046   0.00000  Uiso   1.00
C834   C     0.37591   0.49999   0.75062   0.00000  Uiso   1.00
C835   C     0.52654   0.35736   0.77857   0.00000  Uiso   1.00
C836   C     0.47346   0.64265   0.72143   0.00000  Uiso   1.00
C837   C     0.47343   0.35693   0.72151   0.00000  Uiso   1.00
C838   C     0.52657   0.64307   0.77849   0.00000  Uiso   1.00
C839   C     0.49828   0.49982   0.66370   0.00000  Uiso   1.00
C840   C     0.50172   0.50018   0.83630   0.00000  Uiso   1.00
C841   C     0.54134   0.50409   0.90972   0.00000  Uiso   1.00
C842   C     0.45866   0.49591   0.59028   0.00000  Uiso   1.00
C843   C     0.50328   0.50050   0.88414   0.00000  Uiso   1.00
C844   C     0.57985   0.50001   0.74954   0.00000  Uiso   1.00
C845   C     0.49672   0.49950   0.61586   0.00000  Uiso   1.00
C846   C     0.46514   0.49841   0.90383   0.00000  Uiso   1.00
C847   C     0.53486   0.50159   0.59617   0.00000  Uiso   1.00
C848   C     0.46358   0.49933   0.94987   0.00000  Uiso   1.00
C849   C     0.53642   0.50067   0.55013   0.00000  Uiso   1.00
C850   C     0.50095   0.50037   0.97663   0.00000  Uiso   1.00
C851   C     0.49905   0.49963   0.52337   0.00000  Uiso   1.00
C852   C     0.54015   0.50207   0.95673   0.00000  Uiso   1.00
C853   C     0.45985   0.49793   0.54327   0.00000  Uiso   1.00
C854   C     0.42504   0.49937   0.96934   0.00000  Uiso   1.00
C855   C     0.42311   0.49940   0.51554   0.00000  Uiso   1.00
C856   C     0.57496   0.50063   0.53066   0.00000  Uiso   1.00
C857   C     0.58136   0.51214   0.88773   0.00000  Uiso   1.00
C858   C     0.41864   0.48786   0.61227   0.00000  Uiso   1.00
C859   C     0.57689   0.50060   0.98446   0.00000  Uiso   1.00
C860   C     0.35462   0.45941   0.75066   0.00000  Uiso   1.00
C861   C     0.64538   0.54059   0.74934   0.00000  Uiso   1.00
C862   C     0.64533   0.45941   0.74981   0.00000  Uiso   1.00
C863   C     0.35467   0.54059   0.75019   0.00000  Uiso   1.00
C864   C     0.62409   0.50001   0.74938   0.00000  Uiso   1.00
H865   H     0.43648   0.49674   0.88297   0.00000  Uiso   1.00
H866   H     0.37077   0.57229   0.75043   0.00000  Uiso   1.00
H867   H     0.63556   0.54625   0.88779   0.00000  Uiso   1.00
H868   H     0.36444   0.45374   0.61221   0.00000  Uiso   1.00
H869   H     0.56352   0.50326   0.61703   0.00000  Uiso   1.00
H870   H     0.39625   0.49975   0.94877   0.00000  Uiso   1.00
H871   H     0.60375   0.50025   0.55123   0.00000  Uiso   1.00
H872   H     0.39256   0.50136   0.52894   0.00000  Uiso   1.00
H873   H     0.60744   0.49863   0.97106   0.00000  Uiso   1.00
H874   H     0.37068   0.42772   0.75131   0.00000  Uiso   1.00
H875   H     0.62932   0.57228   0.74869   0.00000  Uiso   1.00
H876   H     0.62923   0.42771   0.74957   0.00000  Uiso   1.00
I877   I     0.56851   0.39149   0.82437   0.00000  Uiso   1.00
I878   I     0.43149   0.60851   0.67563   0.00000  Uiso   1.00
I879   I     0.43111   0.39068   0.67662   0.00000  Uiso   1.00
I880   I     0.56889   0.60932   0.82338   0.00000  Uiso   1.00
N881   N     0.50000   0.61907   0.75000   0.00000  Uiso   1.00
N882   N     0.50000   0.38093   0.75000   0.00000  Uiso   1.00
O883   O     0.43892   0.53821   0.74999   0.00000  Uiso   1.00
O884   O     0.60959   0.54389   0.90557   0.00000  Uiso   1.00
O885   O     0.41071   0.50800   0.64643   0.00000  Uiso   1.00
O886   O     0.39041   0.45610   0.59443   0.00000  Uiso   1.00
O887   O     0.56108   0.46179   0.75001   0.00000  Uiso   1.00
O888   O     0.56108   0.53821   0.75001   0.00000  Uiso   1.00
O889   O     0.43892   0.46179   0.74999   0.00000  Uiso   1.00
O890   O     0.49999   0.53823   0.68393   0.00000  Uiso   1.00
O891   O     0.50001   0.46177   0.81608   0.00000  Uiso   1.00
O892   O     0.50001   0.53823   0.81608   0.00000  Uiso   1.00
O893   O     0.49999   0.46177   0.68393   0.00000  Uiso   1.00
O894   O     0.58929   0.49200   0.85357   0.00000  Uiso   1.00
Zn895  Zn    0.50000   0.55104   0.75000   0.00000  Uiso   1.00
Zn896  Zn    0.50000   0.44896   0.75000   0.00000  Uiso   1.00
C897   C     0.75349   0.49999   0.75046   0.00000  Uiso   1.00
C898   C     0.70924   0.49999   0.75062   0.00000  Uiso   1.00
C899   C     0.85987   0.35736   0.77857   0.00000  Uiso   1.00
C900   C     0.80680   0.64265   0.72143   0.00000  Uiso   1.00
C901   C     0.80676   0.35693   0.72151   0.00000  Uiso   1.00
C902   C     0.85990   0.64307   0.77849   0.00000  Uiso   1.00
C903   C     0.83162   0.49982   0.66370   0.00000  Uiso   1.00
C904   C     0.83505   0.50018   0.83630   0.00000  Uiso   1.00
C905   C     0.87467   0.50409   0.90972   0.00000  Uiso   1.00
C906   C     0.79200   0.49591   0.59028   0.00000  Uiso   1.00
C907   C     0.83661   0.50050   0.88414   0.00000  Uiso   1.00
C908   C     0.91318   0.50001   0.74954   0.00000  Uiso   1.00
C909   C     0.83006   0.49950   0.61586   0.00000  Uiso   1.00
C910   C     0.79847   0.49841   0.90383   0.00000  Uiso   1.00
C911   C     0.86819   0.50159   0.59617   0.00000  Uiso   1.00
C912   C     0.79692   0.49933   0.94987   0.00000  Uiso   1.00
C913   C     0.86975   0.50067   0.55013   0.00000  Uiso   1.00
C914   C     0.83429   0.50037   0.97663   0.00000  Uiso   1.00
C915   C     0.83238   0.49963   0.52337   0.00000  Uiso   1.00
C916   C     0.87348   0.50207   0.95673   0.00000  Uiso   1.00
C917   C     0.79319   0.49793   0.54327   0.00000  Uiso   1.00
C918   C     0.75837   0.49937   0.96934   0.00000  Uiso   1.00
C919   C     0.75645   0.49940   0.51554   0.00000  Uiso   1.00
C920   C     0.90830   0.50063   0.53066   0.00000  Uiso   1.00
C921   C     0.91470   0.51214   0.88773   0.00000  Uiso   1.00
C922   C     0.75197   0.48786   0.61227   0.00000  Uiso   1.00
C923   C     0.91022   0.50060   0.98446   0.00000  Uiso   1.00
C924   C     0.68796   0.45941   0.75066   0.00000  Uiso   1.00
C925   C     0.97871   0.54059   0.74934   0.00000  Uiso   1.00
C926   C     0.97866   0.45941   0.74981   0.00000  Uiso   1.00
C927   C     0.68800   0.54059   0.75019   0.00000  Uiso   1.00
C928   C     0.95743   0.50001   0.74938   0.00000  Uiso   1.00
H929   H     0.76981   0.49674   0.88297   0.00000  Uiso   1.00
H930   H     0.70410   0.57229   0.75043   0.00000  Uiso   1.00
H931   H     0.96890   0.54625   0.88779   0.00000  Uiso   1.00
H932   H     0.69777   0.45374   0.61221   0.00000  Uiso   1.00
H933   H     0.89685   0.50326   0.61703   0.00000  Uiso   1.00
H934   H     0.72959   0.49975   0.94877   0.00000  Uiso   1.00
H935   H     0.93708   0.50025   0.55123   0.00000  Uiso   1.00
H936   H     0.72590   0.50136   0.52894   0.00000  Uiso   1.00
H937   H     0.94077   0.49863   0.97106   0.00000  Uiso   1.00
H938   H     0.70402   0.42772   0.75131   0.00000  Uiso   1.00
H939   H     0.96265   0.57228   0.74869   0.00000  Uiso   1.00
H940   H     0.96257   0.42771   0.74957   0.00000  Uiso   1.00
I941   I     0.90184   0.39149   0.82437   0.00000  Uiso   1.00
I942   I     0.76483   0.60851   0.67563   0.00000  Uiso   1.00
I943   I     0.76444   0.39068   0.67662   0.00000  Uiso   1.00
I944   I     0.90223   0.60932   0.82338   0.00000  Uiso   1.00
N945   N     0.83333   0.61907   0.75000   0.00000  Uiso   1.00
N946   N     0.83333   0.38093   0.75000   0.00000  Uiso   1.00
O947   O     0.77226   0.53821   0.74999   0.00000  Uiso   1.00
O948   O     0.94293   0.54389   0.90557   0.00000  Uiso   1.00
O949   O     0.74404   0.50800   0.64643   0.00000  Uiso   1.00
O950   O     0.72374   0.45610   0.59443   0.00000  Uiso   1.00
O951   O     0.89441   0.46179   0.75001   0.00000  Uiso   1.00
O952   O     0.89441   0.53821   0.75001   0.00000  Uiso   1.00
O953   O     0.77226   0.46179   0.74999   0.00000  Uiso   1.00
O954   O     0.83333   0.53823   0.68393   0.00000  Uiso   1.00
O955   O     0.83334   0.46177   0.81608   0.00000  Uiso   1.00
O956   O     0.83334   0.53823   0.81608   0.00000  Uiso   1.00
O957   O     0.83333   0.46177   0.68393   0.00000  Uiso   1.00
O958   O     0.92262   0.49200   0.85357   0.00000  Uiso   1.00
Zn959  Zn    0.83333   0.55104   0.75000   0.00000  Uiso   1.00
Zn960  Zn    0.83333   0.44896   0.75000   0.00000  Uiso   1.00
C961   C     0.08682   0.83333   0.75046   0.00000  Uiso   1.00
C962   C     0.04257   0.83333   0.75062   0.00000  Uiso   1.00
C963   C     0.19320   0.69069   0.77857   0.00000  Uiso   1.00
C964   C     0.14013   0.97598   0.72143   0.00000  Uiso   1.00
C965   C     0.14010   0.69027   0.72151   0.00000  Uiso   1.00
C966   C     0.19324   0.97640   0.77849   0.00000  Uiso   1.00
C967   C     0.16495   0.83316   0.66370   0.00000  Uiso   1.00
C968   C     0.16838   0.83351   0.83630   0.00000  Uiso   1.00
C969   C     0.20800   0.83742   0.90972   0.00000  Uiso   1.00
C970   C     0.12533   0.82924   0.59028   0.00000  Uiso   1.00
C971   C     0.16994   0.83383   0.88414   0.00000  Uiso   1.00
C972   C     0.24651   0.83334   0.74954   0.00000  Uiso   1.00
C973   C     0.16339   0.83284   0.61586   0.00000  Uiso   1.00
C974   C     0.13181   0.83174   0.90383   0.00000  Uiso   1.00
C975   C     0.20153   0.83493   0.59617   0.00000  Uiso   1.00
C976   C     0.13025   0.83266   0.94987   0.00000  Uiso   1.00
C977   C     0.20308   0.83401   0.55013   0.00000  Uiso   1.00
C978   C     0.16762   0.83370   0.97663   0.00000  Uiso   1.00
C979   C     0.16571   0.83296   0.52337   0.00000  Uiso   1.00
C980   C     0.20681   0.83540   0.95673   0.00000  Uiso   1.00
C981   C     0.12652   0.83126   0.54327   0.00000  Uiso   1.00
C982   C     0.09170   0.83270   0.96934   0.00000  Uiso   1.00
C983   C     0.08978   0.83273   0.51554   0.00000  Uiso   1.00
C984   C     0.24163   0.83396   0.53066   0.00000  Uiso   1.00
C985   C     0.24803   0.84548   0.88773   0.00000  Uiso   1.00
C986   C     0.08530   0.82119   0.61227   0.00000  Uiso   1.00
C987   C     0.24355   0.83393   0.98446   0.00000  Uiso   1.00
C988   C     0.02129   0.79274   0.75066   0.00000  Uiso   1.00
C989   C     0.31204   0.87392   0.74934   0.00000  Uiso   1.00
C990   C     0.31200   0.79275   0.74981   0.00000  Uiso   1.00
C991   C     0.02133   0.87392   0.75019   0.00000  Uiso   1.00
C992   C     0.29076   0.83334   0.74938   0.00000  Uiso   1.00
H993   H     0.10315   0.83008   0.88297   0.00000  Uiso   1.00
H994   H     0.03743   0.90562   0.75043   0.00000  Uiso   1.00
H995   H     0.30223   0.87959   0.88779   0.00000  Uiso   1.00
H996   H     0.03110   0.78708   0.61221   0.00000  Uiso   1.00
H997   H     0.23019   0.83659   0.61703   0.00000  Uiso   1.00
H998   H     0.06292   0.83308   0.94877   0.00000  Uiso   1.00
H999   H     0.27041   0.83358   0.55123   0.00000  Uiso   1.00
H1000  H     0.05923   0.83470   0.52894   0.00000  Uiso   1.00
H1001  H     0.27410   0.83197   0.97106   0.00000  Uiso   1.00
H1002  H     0.03735   0.76105   0.75131   0.00000  Uiso   1.00
H1003  H     0.29598   0.90562   0.74869   0.00000  Uiso   1.00
H1004  H     0.29590   0.76104   0.74957   0.00000  Uiso   1.00
I1005  I     0.23517   0.72482   0.82437   0.00000  Uiso   1.00
I1006  I     0.09816   0.94185   0.67563   0.00000  Uiso   1.00
I1007  I     0.09777   0.72401   0.67662   0.00000  Uiso   1.00
I1008  I     0.23556   0.94266   0.82338   0.00000  Uiso   1.00
N1009  N     0.16667   0.95240   0.75000   0.00000  Uiso   1.00
N1010  N     0.16667   0.71427   0.75000   0.00000  Uiso   1.00
O1011  O     0.10559   0.87154   0.74999   0.00000  Uiso   1.00
O1012  O     0.27626   0.87723   0.90557   0.00000  Uiso   1.00
O1013  O     0.07737   0.84133   0.64643   0.00000  Uiso   1.00
O1014  O     0.05708   0.78944   0.59443   0.00000  Uiso   1.00
O1015  O     0.22774   0.79513   0.75001   0.00000  Uiso   1.00
O1016  O     0.22774   0.87154   0.75001   0.00000  Uiso   1.00
O1017  O     0.10559   0.79513   0.74999   0.00000  Uiso   1.00
O1018  O     0.16666   0.87156   0.68393   0.00000  Uiso   1.00
O1019  O     0.16667   0.79511   0.81608   0.00000  Uiso   1.00
O1020  O     0.16667   0.87156   0.81608   0.00000  Uiso   1.00
O1021  O     0.16666   0.79511   0.68393   0.00000  Uiso   1.00
O1022  O     0.25596   0.82534   0.85357   0.00000  Uiso   1.00
Zn1023 Zn    0.16667   0.88437   0.75000   0.00000  Uiso   1.00
Zn1024 Zn    0.16667   0.78229   0.75000   0.00000  Uiso   1.00
C1025  C     0.42015   0.83333   0.75046   0.00000  Uiso   1.00
C1026  C     0.37591   0.83333   0.75062   0.00000  Uiso   1.00
C1027  C     0.52654   0.69069   0.77857   0.00000  Uiso   1.00
C1028  C     0.47346   0.97598   0.72143   0.00000  Uiso   1.00
C1029  C     0.47343   0.69027   0.72151   0.00000  Uiso   1.00
C1030  C     0.52657   0.97640   0.77849   0.00000  Uiso   1.00
C1031  C     0.49828   0.83316   0.66370   0.00000  Uiso   1.00
C1032  C     0.50172   0.83351   0.83630   0.00000  Uiso   1.00
C1033  C     0.54134   0.83742   0.90972   0.00000  Uiso   1.00
C1034  C     0.45866   0.82924   0.59028   0.00000  Uiso   1.00
C1035  C     0.50328   0.83383   0.88414   0.00000  Uiso   1.00
C1036  C     0.57985   0.83334   0.74954   0.00000  Uiso   1.00
C1037  C     0.49672   0.83284   0.61586   0.00000  Uiso   1.00
C1038  C     0.46514   0.83174   0.90383   0.00000  Uiso   1.00
C1039  C     0.53486   0.83493   0.59617   0.00000  Uiso   1.00
C1040  C     0.46358   0.83266   0.94987   0.00000  Uiso   1.00
C1041  C     0.53642   0.83401   0.55013   0.00000  Uiso   1.00
C1042  C     0.50095   0.83370   0.97663   0.00000  Uiso   1.00
C1043  C     0.49905   0.83296   0.52337   0.00000  Uiso   1.00
C1044  C     0.54015   0.83540   0.95673   0.00000  Uiso   1.00
C1045  C     0.45985   0.83126   0.54327   0.00000  Uiso   1.00
C1046  C     0.42504   0.83270   0.96934   0.00000  Uiso   1.00
C1047  C     0.42311   0.83273   0.51554   0.00000  Uiso   1.00
C1048  C     0.57496   0.83396   0.53066   0.00000  Uiso   1.00
C1049  C     0.58136   0.84548   0.88773   0.00000  Uiso   1.00
C1050  C     0.41864   0.82119   0.61227   0.00000  Uiso   1.00
C1051  C     0.57689   0.83393   0.98446   0.00000  Uiso   1.00
C1052  C     0.35462   0.79274   0.75066   0.00000  Uiso   1.00
C1053  C     0.64538   0.87392   0.74934   0.00000  Uiso   1.00
C1054  C     0.64533   0.79275   0.74981   0.00000  Uiso   1.00
C1055  C     0.35467   0.87392   0.75019   0.00000  Uiso   1.00
C1056  C     0.62409   0.83334   0.74938   0.00000  Uiso   1.00
H1057  H     0.43648   0.83008   0.88297   0.00000  Uiso   1.00
H1058  H     0.37077   0.90562   0.75043   0.00000  Uiso   1.00
H1059  H     0.63556   0.87959   0.88779   0.00000  Uiso   1.00
H1060  H     0.36444   0.78708   0.61221   0.00000  Uiso   1.00
H1061  H     0.56352   0.83659   0.61703   0.00000  Uiso   1.00
H1062  H     0.39625   0.83308   0.94877   0.00000  Uiso   1.00
H1063  H     0.60375   0.83358   0.55123   0.00000  Uiso   1.00
H1064  H     0.39256   0.83470   0.52894   0.00000  Uiso   1.00
H1065  H     0.60744   0.83197   0.97106   0.00000  Uiso   1.00
H1066  H     0.37068   0.76105   0.75131   0.00000  Uiso   1.00
H1067  H     0.62932   0.90562   0.74869   0.00000  Uiso   1.00
H1068  H     0.62923   0.76104   0.74957   0.00000  Uiso   1.00
I1069  I     0.56851   0.72482   0.82437   0.00000  Uiso   1.00
I1070  I     0.43149   0.94185   0.67563   0.00000  Uiso   1.00
I1071  I     0.43111   0.72401   0.67662   0.00000  Uiso   1.00
I1072  I     0.56889   0.94266   0.82338   0.00000  Uiso   1.00
N1073  N     0.50000   0.95240   0.75000   0.00000  Uiso   1.00
N1074  N     0.50000   0.71427   0.75000   0.00000  Uiso   1.00
O1075  O     0.43892   0.87154   0.74999   0.00000  Uiso   1.00
O1076  O     0.60959   0.87723   0.90557   0.00000  Uiso   1.00
O1077  O     0.41071   0.84133   0.64643   0.00000  Uiso   1.00
O1078  O     0.39041   0.78944   0.59443   0.00000  Uiso   1.00
O1079  O     0.56108   0.79513   0.75001   0.00000  Uiso   1.00
O1080  O     0.56108   0.87154   0.75001   0.00000  Uiso   1.00
O1081  O     0.43892   0.79513   0.74999   0.00000  Uiso   1.00
O1082  O     0.49999   0.87156   0.68393   0.00000  Uiso   1.00
O1083  O     0.50001   0.79511   0.81608   0.00000  Uiso   1.00
O1084  O     0.50001   0.87156   0.81608   0.00000  Uiso   1.00
O1085  O     0.49999   0.79511   0.68393   0.00000  Uiso   1.00
O1086  O     0.58929   0.82534   0.85357   0.00000  Uiso   1.00
Zn1087 Zn    0.50000   0.88437   0.75000   0.00000  Uiso   1.00
Zn1088 Zn    0.50000   0.78229   0.75000   0.00000  Uiso   1.00
C1089  C     0.75349   0.83333   0.75046   0.00000  Uiso   1.00
C1090  C     0.70924   0.83333   0.75062   0.00000  Uiso   1.00
C1091  C     0.85987   0.69069   0.77857   0.00000  Uiso   1.00
C1092  C     0.80680   0.97598   0.72143   0.00000  Uiso   1.00
C1093  C     0.80676   0.69027   0.72151   0.00000  Uiso   1.00
C1094  C     0.85990   0.97640   0.77849   0.00000  Uiso   1.00
C1095  C     0.83162   0.83316   0.66370   0.00000  Uiso   1.00
C1096  C     0.83505   0.83351   0.83630   0.00000  Uiso   1.00
C1097  C     0.87467   0.83742   0.90972   0.00000  Uiso   1.00
C1098  C     0.79200   0.82924   0.59028   0.00000  Uiso   1.00
C1099  C     0.83661   0.83383   0.88414   0.00000  Uiso   1.00
C1100  C     0.91318   0.83334   0.74954   0.00000  Uiso   1.00
C1101  C     0.83006   0.83284   0.61586   0.00000  Uiso   1.00
C1102  C     0.79847   0.83174   0.90383   0.00000  Uiso   1.00
C1103  C     0.86819   0.83493   0.59617   0.00000  Uiso   1.00
C1104  C     0.79692   0.83266   0.94987   0.00000  Uiso   1.00
C1105  C     0.86975   0.83401   0.55013   0.00000  Uiso   1.00
C1106  C     0.83429   0.83370   0.97663   0.00000  Uiso   1.00
C1107  C     0.83238   0.83296   0.52337   0.00000  Uiso   1.00
C1108  C     0.87348   0.83540   0.95673   0.00000  Uiso   1.00
C1109  C     0.79319   0.83126   0.54327   0.00000  Uiso   1.00
C1110  C     0.75837   0.83270   0.96934   0.00000  Uiso   1.00
C1111  C     0.75645   0.83273   0.51554   0.00000  Uiso   1.00
C1112  C     0.90830   0.83396   0.53066   0.00000  Uiso   1.00
C1113  C     0.91470   0.84548   0.88773   0.00000  Uiso   1.00
C1114  C     0.75197   0.82119   0.61227   0.00000  Uiso   1.00
C1115  C     0.91022   0.83393   0.98446   0.00000  Uiso   1.00
C1116  C     0.68796   0.79274   0.75066   0.00000  Uiso   1.00
C1117  C     0.97871   0.87392   0.74934   0.00000  Uiso   1.00
C1118  C     0.97866   0.79275   0.74981   0.00000  Uiso   1.00
C1119  C     0.68800   0.87392   0.75019   0.00000  Uiso   1.00
C1120  C     0.95743   0.83334   0.74938   0.00000  Uiso   1.00
H1121  H     0.76981   0.83008   0.88297   0.00000  Uiso   1.00
H1122  H     0.70410   0.90562   0.75043   0.00000  Uiso   1.00
H1123  H     0.96890   0.87959   0.88779   0.00000  Uiso   1.00
H1124  H     0.69777   0.78708   0.61221   0.00000  Uiso   1.00
H1125  H     0.89685   0.83659   0.61703   0.00000  Uiso   1.00
H1126  H     0.72959   0.83308   0.94877   0.00000  Uiso   1.00
H1127  H     0.93708   0.83358   0.55123   0.00000  Uiso   1.00
H1128  H     0.72590   0.83470   0.52894   0.00000  Uiso   1.00
H1129  H     0.94077   0.83197   0.97106   0.00000  Uiso   1.00
H1130  H     0.70402   0.76105   0.75131   0.00000  Uiso   1.00
H1131  H     0.96265   0.90562   0.74869   0.00000  Uiso   1.00
H1132  H     0.96257   0.76104   0.74957   0.00000  Uiso   1.00
I1133  I     0.90184   0.72482   0.82437   0.00000  Uiso   1.00
I1134  I     0.76483   0.94185   0.67563   0.00000  Uiso   1.00
I1135  I     0.76444   0.72401   0.67662   0.00000  Uiso   1.00
I1136  I     0.90223   0.94266   0.82338   0.00000  Uiso   1.00
N1137  N     0.83333   0.95240   0.75000   0.00000  Uiso   1.00
N1138  N     0.83333   0.71427   0.75000   0.00000  Uiso   1.00
O1139  O     0.77226   0.87154   0.74999   0.00000  Uiso   1.00
O1140  O     0.94293   0.87723   0.90557   0.00000  Uiso   1.00
O1141  O     0.74404   0.84133   0.64643   0.00000  Uiso   1.00
O1142  O     0.72374   0.78944   0.59443   0.00000  Uiso   1.00
O1143  O     0.89441   0.79513   0.75001   0.00000  Uiso   1.00
O1144  O     0.89441   0.87154   0.75001   0.00000  Uiso   1.00
O1145  O     0.77226   0.79513   0.74999   0.00000  Uiso   1.00
O1146  O     0.83333   0.87156   0.68393   0.00000  Uiso   1.00
O1147  O     0.83334   0.79511   0.81608   0.00000  Uiso   1.00
O1148  O     0.83334   0.87156   0.81608   0.00000  Uiso   1.00
O1149  O     0.83333   0.79511   0.68393   0.00000  Uiso   1.00
O1150  O     0.92262   0.82534   0.85357   0.00000  Uiso   1.00
Zn1151 Zn    0.83333   0.88437   0.75000   0.00000  Uiso   1.00
Zn1152 Zn    0.83333   0.78229   0.75000   0.00000  Uiso   1.00
loop_
_geom_bond_atom_site_label_1
_geom_bond_atom_site_label_2
_geom_bond_distance
_geom_bond_site_symmetry_2
_ccdc_geom_bond_type
C1     O57     1.297   .     A
C1     O51     1.296   .     A
C1     C2      1.422   .     S
C2     C31     1.397   .     A
C2     C28     1.397   .     A
C3     N50     1.376   .     A
C3     I45     2.129   .     S
C3     C390    1.430   1_545 S
C4     N49     1.376   .     A
C4     I46     2.129   .     S
C4     C197    1.430   .     S
C5     I47     2.125   .     S
C5     N50     1.374   .     A
C5     C388    1.430   1_545 S
C6     I48     2.125   .     S
C6     N49     1.375   .     A
C6     C195    1.430   .     S
C7     O58     1.298   .     A
C7     C13     1.427   .     S
C7     O61     1.296   .     A
C8     O59     1.298   .     A
C8     O60     1.296   .     A
C8     C11     1.427   .     S
C9     C25     1.493   .     S
C9     C11     1.413   .     A
C9     C20     1.409   .     A
C10    C26     1.493   .     S
C10    C21     1.409   .     A
C10    C13     1.413   .     A
C11    C14     1.387   .     A
C12    O56     1.297   .     A
C12    O55     1.296   .     A
C12    C32     1.422   .     S
C13    C15     1.387   .     A
C14    H33     1.087   .     S
C14    C16     1.379   .     A
C15    H37     1.087   .     S
C15    C17     1.379   .     A
C16    C22     1.394   .     A
C16    C18     1.409   .     A
C17    C24     1.394   .     A
C17    C19     1.409   .     A
C18    C20     1.420   .     A
C18    C595    1.401   .     S
C19    C21     1.420   .     A
C19    C594    1.401   1_554 S
C20    C27     1.409   .     A
C21    C23     1.409   .     A
C22    H38     1.084   .     S
C22    C599    1.385   .     S
C23    H40     1.080   .     S
C23    C598    1.385   1_554 S
C24    H39     1.084   .     S
C24    C603    1.385   1_554 S
C25    O62     1.220   .     D
C25    O52     1.399   .     S
C26    O54     1.399   .     S
C26    O53     1.220   .     D
C27    H41     1.080   .     S
C27    C600    1.385   .     S
C28    H42     1.083   .     S
C28    C158    1.368   1_455 S
C29    C32     1.397   .     A
C29    H43     1.083   .     S
C29    C95     1.368   .     S
C30    C32     1.397   .     A
C30    H44     1.083   .     S
C30    C92     1.368   .     S
C31    H34     1.083   .     S
C31    C157    1.368   1_455 S
H35    O52     1.014   .     S
H36    O54     1.014   .     S
N49    Zn63    2.043   .     S
N50    Zn64    2.043   .     S
O51    Zn63    1.999   .     S
O55    Zn64    1.999   .     S
O56    Zn63    2.000   .     S
O57    Zn64    2.000   .     S
O58    Zn63    2.008   .     S
O59    Zn64    2.008   .     S
O60    Zn63    2.014   .     S
O61    Zn64    2.014   .     S
C65    O121    1.297   .     A
C65    O115    1.296   .     A
C65    C66     1.422   .     S
C66    C95     1.397   .     A
C66    C92     1.397   .     A
C67    N114    1.376   .     A
C67    I109    2.129   .     S
C67    C454    1.430   1_545 S
C68    N113    1.376   .     A
C68    I110    2.129   .     S
C68    C261    1.430   .     S
C69    I111    2.125   .     S
C69    N114    1.374   .     A
C69    C452    1.430   1_545 S
C70    I112    2.125   .     S
C70    N113    1.375   .     A
C70    C259    1.430   .     S
C71    O122    1.298   .     A
C71    C77     1.427   .     S
C71    O125    1.296   .     A
C72    O123    1.298   .     A
C72    O124    1.296   .     A
C72    C75     1.427   .     S
C73    C89     1.493   .     S
C73    C75     1.413   .     A
C73    C84     1.409   .     A
C74    C90     1.493   .     S
C74    C85     1.409   .     A
C74    C77     1.413   .     A
C75    C78     1.387   .     A
C76    O120    1.297   .     A
C76    O119    1.296   .     A
C76    C96     1.422   .     S
C77    C79     1.387   .     A
C78    H97     1.087   .     S
C78    C80     1.379   .     A
C79    H101    1.087   .     S
C79    C81     1.379   .     A
C80    C86     1.394   .     A
C80    C82     1.409   .     A
C81    C88     1.394   .     A
C81    C83     1.409   .     A
C82    C84     1.420   .     A
C82    C659    1.401   .     S
C83    C85     1.420   .     A
C83    C658    1.401   1_554 S
C84    C91     1.409   .     A
C85    C87     1.409   .     A
C86    H102    1.084   .     S
C86    C663    1.385   .     S
C87    H104    1.080   .     S
C87    C662    1.385   1_554 S
C88    H103    1.084   .     S
C88    C667    1.385   1_554 S
C89    O126    1.220   .     D
C89    O116    1.399   .     S
C90    O118    1.399   .     S
C90    O117    1.220   .     D
C91    H105    1.080   .     S
C91    C664    1.385   .     S
C92    H106    1.083   .     S
C93    C96     1.397   .     A
C93    H107    1.083   .     S
C93    C159    1.368   .     S
C94    C96     1.397   .     A
C94    H108    1.083   .     S
C94    C156    1.368   .     S
C95    H98     1.083   .     S
H99    O116    1.014   .     S
H100   O118    1.014   .     S
N113   Zn127   2.043   .     S
N114   Zn128   2.043   .     S
O115   Zn127   1.999   .     S
O119   Zn128   1.999   .     S
O120   Zn127   2.000   .     S
O121   Zn128   2.000   .     S
O122   Zn127   2.008   .     S
O123   Zn128   2.008   .     S
O124   Zn127   2.014   .     S
O125   Zn128   2.014   .     S
C129   O185    1.297   .     A
C129   O179    1.296   .     A
C129   C130    1.422   .     S
C130   C159    1.397   .     A
C130   C156    1.397   .     A
C131   N178    1.376   .     A
C131   I173    2.129   .     S
C131   C518    1.430   1_545 S
C132   N177    1.376   .     A
C132   I174    2.129   .     S
C132   C325    1.430   .     S
C133   I175    2.125   .     S
C133   N178    1.374   .     A
C133   C516    1.430   1_545 S
C134   I176    2.125   .     S
C134   N177    1.375   .     A
C134   C323    1.430   .     S
C135   O186    1.298   .     A
C135   C141    1.427   .     S
C135   O189    1.296   .     A
C136   O187    1.298   .     A
C136   O188    1.296   .     A
C136   C139    1.427   .     S
C137   C153    1.493   .     S
C137   C139    1.413   .     A
C137   C148    1.409   .     A
C138   C154    1.493   .     S
C138   C149    1.409   .     A
C138   C141    1.413   .     A
C139   C142    1.387   .     A
C140   O184    1.297   .     A
C140   O183    1.296   .     A
C140   C160    1.422   .     S
C141   C143    1.387   .     A
C142   H161    1.087   .     S
C142   C144    1.379   .     A
C143   H165    1.087   .     S
C143   C145    1.379   .     A
C144   C150    1.394   .     A
C144   C146    1.409   .     A
C145   C152    1.394   .     A
C145   C147    1.409   .     A
C146   C148    1.420   .     A
C146   C723    1.401   .     S
C147   C149    1.420   .     A
C147   C722    1.401   1_554 S
C148   C155    1.409   .     A
C149   C151    1.409   .     A
C150   H166    1.084   .     S
C150   C727    1.385   .     S
C151   H168    1.080   .     S
C151   C726    1.385   1_554 S
C152   H167    1.084   .     S
C152   C731    1.385   1_554 S
C153   O190    1.220   .     D
C153   O180    1.399   .     S
C154   O182    1.399   .     S
C154   O181    1.220   .     D
C155   H169    1.080   .     S
C155   C728    1.385   .     S
C156   H170    1.083   .     S
C157   C160    1.397   .     A
C157   H171    1.083   .     S
C157   C31     1.368   1_655 S
C158   C160    1.397   .     A
C158   H172    1.083   .     S
C158   C28     1.368   1_655 S
C159   H162    1.083   .     S
H163   O180    1.014   .     S
H164   O182    1.014   .     S
N177   Zn191   2.043   .     S
N178   Zn192   2.043   .     S
O179   Zn191   1.999   .     S
O183   Zn192   1.999   .     S
O184   Zn191   2.000   .     S
O185   Zn192   2.000   .     S
O186   Zn191   2.008   .     S
O187   Zn192   2.008   .     S
O188   Zn191   2.014   .     S
O189   Zn192   2.014   .     S
C193   O249    1.297   .     A
C193   O243    1.296   .     A
C193   C194    1.422   .     S
C194   C223    1.397   .     A
C194   C220    1.397   .     A
C195   N242    1.376   .     A
C195   I237    2.129   .     S
C196   N241    1.376   .     A
C196   I238    2.129   .     S
C196   C389    1.430   .     S
C197   I239    2.125   .     S
C197   N242    1.374   .     A
C198   I240    2.125   .     S
C198   N241    1.375   .     A
C198   C387    1.430   .     S
C199   O250    1.298   .     A
C199   C205    1.427   .     S
C199   O253    1.296   .     A
C200   O251    1.298   .     A
C200   O252    1.296   .     A
C200   C203    1.427   .     S
C201   C217    1.493   .     S
C201   C203    1.413   .     A
C201   C212    1.409   .     A
C202   C218    1.493   .     S
C202   C213    1.409   .     A
C202   C205    1.413   .     A
C203   C206    1.387   .     A
C204   O248    1.297   .     A
C204   O247    1.296   .     A
C204   C224    1.422   .     S
C205   C207    1.387   .     A
C206   H225    1.087   .     S
C206   C208    1.379   .     A
C207   H229    1.087   .     S
C207   C209    1.379   .     A
C208   C214    1.394   .     A
C208   C210    1.409   .     A
C209   C216    1.394   .     A
C209   C211    1.409   .     A
C210   C212    1.420   .     A
C210   C787    1.401   .     S
C211   C213    1.420   .     A
C211   C786    1.401   1_554 S
C212   C219    1.409   .     A
C213   C215    1.409   .     A
C214   H230    1.084   .     S
C214   C791    1.385   .     S
C215   H232    1.080   .     S
C215   C790    1.385   1_554 S
C216   H231    1.084   .     S
C216   C795    1.385   1_554 S
C217   O254    1.220   .     D
C217   O244    1.399   .     S
C218   O246    1.399   .     S
C218   O245    1.220   .     D
C219   H233    1.080   .     S
C219   C792    1.385   .     S
C220   H234    1.083   .     S
C220   C350    1.368   1_455 S
C221   C224    1.397   .     A
C221   H235    1.083   .     S
C221   C287    1.368   .     S
C222   C224    1.397   .     A
C222   H236    1.083   .     S
C222   C284    1.368   .     S
C223   H226    1.083   .     S
C223   C349    1.368   1_455 S
H227   O244    1.014   .     S
H228   O246    1.014   .     S
N241   Zn255   2.043   .     S
N242   Zn256   2.043   .     S
O243   Zn255   1.999   .     S
O247   Zn256   1.999   .     S
O248   Zn255   2.000   .     S
O249   Zn256   2.000   .     S
O250   Zn255   2.008   .     S
O251   Zn256   2.008   .     S
O252   Zn255   2.014   .     S
O253   Zn256   2.014   .     S
C257   O313    1.297   .     A
C257   O307    1.296   .     A
C257   C258    1.422   .     S
C258   C287    1.397   .     A
C258   C284    1.397   .     A
C259   N306    1.376   .     A
C259   I301    2.129   .     S
C260   N305    1.376   .     A
C260   I302    2.129   .     S
C260   C453    1.430   .     S
C261   I303    2.125   .     S
C261   N306    1.374   .     A
C262   I304    2.125   .     S
C262   N305    1.375   .     A
C262   C451    1.430   .     S
C263   O314    1.298   .     A
C263   C269    1.427   .     S
C263   O317    1.296   .     A
C264   O315    1.298   .     A
C264   O316    1.296   .     A
C264   C267    1.427   .     S
C265   C281    1.493   .     S
C265   C267    1.413   .     A
C265   C276    1.409   .     A
C266   C282    1.493   .     S
C266   C277    1.409   .     A
C266   C269    1.413   .     A
C267   C270    1.387   .     A
C268   O312    1.297   .     A
C268   O311    1.296   .     A
C268   C288    1.422   .     S
C269   C271    1.387   .     A
C270   H289    1.087   .     S
C270   C272    1.379   .     A
C271   H293    1.087   .     S
C271   C273    1.379   .     A
C272   C278    1.394   .     A
C272   C274    1.409   .     A
C273   C280    1.394   .     A
C273   C275    1.409   .     A
C274   C276    1.420   .     A
C274   C851    1.401   .     S
C275   C277    1.420   .     A
C275   C850    1.401   1_554 S
C276   C283    1.409   .     A
C277   C279    1.409   .     A
C278   H294    1.084   .     S
C278   C855    1.385   .     S
C279   H296    1.080   .     S
C279   C854    1.385   1_554 S
C280   H295    1.084   .     S
C280   C859    1.385   1_554 S
C281   O318    1.220   .     D
C281   O308    1.399   .     S
C282   O310    1.399   .     S
C282   O309    1.220   .     D
C283   H297    1.080   .     S
C283   C856    1.385   .     S
C284   H298    1.083   .     S
C285   C288    1.397   .     A
C285   H299    1.083   .     S
C285   C351    1.368   .     S
C286   C288    1.397   .     A
C286   H300    1.083   .     S
C286   C348    1.368   .     S
C287   H290    1.083   .     S
H291   O308    1.014   .     S
H292   O310    1.014   .     S
N305   Zn319   2.043   .     S
N306   Zn320   2.043   .     S
O307   Zn319   1.999   .     S
O311   Zn320   1.999   .     S
O312   Zn319   2.000   .     S
O313   Zn320   2.000   .     S
O314   Zn319   2.008   .     S
O315   Zn320   2.008   .     S
O316   Zn319   2.014   .     S
O317   Zn320   2.014   .     S
C321   O377    1.297   .     A
C321   O371    1.296   .     A
C321   C322    1.422   .     S
C322   C351    1.397   .     A
C322   C348    1.397   .     A
C323   N370    1.376   .     A
C323   I365    2.129   .     S
C324   N369    1.376   .     A
C324   I366    2.129   .     S
C324   C517    1.430   .     S
C325   I367    2.125   .     S
C325   N370    1.374   .     A
C326   I368    2.125   .     S
C326   N369    1.375   .     A
C326   C515    1.430   .     S
C327   O378    1.298   .     A
C327   C333    1.427   .     S
C327   O381    1.296   .     A
C328   O379    1.298   .     A
C328   O380    1.296   .     A
C328   C331    1.427   .     S
C329   C345    1.493   .     S
C329   C331    1.413   .     A
C329   C340    1.409   .     A
C330   C346    1.493   .     S
C330   C341    1.409   .     A
C330   C333    1.413   .     A
C331   C334    1.387   .     A
C332   O376    1.297   .     A
C332   O375    1.296   .     A
C332   C352    1.422   .     S
C333   C335    1.387   .     A
C334   H353    1.087   .     S
C334   C336    1.379   .     A
C335   H357    1.087   .     S
C335   C337    1.379   .     A
C336   C342    1.394   .     A
C336   C338    1.409   .     A
C337   C344    1.394   .     A
C337   C339    1.409   .     A
C338   C340    1.420   .     A
C338   C915    1.401   .     S
C339   C341    1.420   .     A
C339   C914    1.401   1_554 S
C340   C347    1.409   .     A
C341   C343    1.409   .     A
C342   H358    1.084   .     S
C342   C919    1.385   .     S
C343   H360    1.080   .     S
C343   C918    1.385   1_554 S
C344   H359    1.084   .     S
C344   C923    1.385   1_554 S
C345   O382    1.220   .     D
C345   O372    1.399   .     S
C346   O374    1.399   .     S
C346   O373    1.220   .     D
C347   H361    1.080   .     S
C347   C920    1.385   .     S
C348   H362    1.083   .     S
C349   C352    1.397   .     A
C349   H363    1.083   .     S
C349   C223    1.368   1_655 S
C350   C352    1.397   .     A
C350   H364    1.083   .     S
C350   C220    1.368   1_655 S
C351   H354    1.083   .     S
H355   O372    1.014   .     S
H356   O374    1.014   .     S
N369   Zn383   2.043   .     S
N370   Zn384   2.043   .     S
O371   Zn383   1.999   .     S
O375   Zn384   1.999   .     S
O376   Zn383   2.000   .     S
O377   Zn384   2.000   .     S
O378   Zn383   2.008   .     S
O379   Zn384   2.008   .     S
O380   Zn383   2.014   .     S
O381   Zn384   2.014   .     S
C385   O441    1.297   .     A
C385   O435    1.296   .     A
C385   C386    1.422   .     S
C386   C415    1.397   .     A
C386   C412    1.397   .     A
C387   N434    1.376   .     A
C387   I429    2.129   .     S
C388   N433    1.376   .     A
C388   I430    2.129   .     S
C388   C5      1.430   1_565 S
C389   I431    2.125   .     S
C389   N434    1.374   .     A
C390   I432    2.125   .     S
C390   N433    1.375   .     A
C390   C3      1.430   1_565 S
C391   O442    1.298   .     A
C391   C397    1.427   .     S
C391   O445    1.296   .     A
C392   O443    1.298   .     A
C392   O444    1.296   .     A
C392   C395    1.427   .     S
C393   C409    1.493   .     S
C393   C395    1.413   .     A
C393   C404    1.409   .     A
C394   C410    1.493   .     S
C394   C405    1.409   .     A
C394   C397    1.413   .     A
C395   C398    1.387   .     A
C396   O440    1.297   .     A
C396   O439    1.296   .     A
C396   C416    1.422   .     S
C397   C399    1.387   .     A
C398   H417    1.087   .     S
C398   C400    1.379   .     A
C399   H421    1.087   .     S
C399   C401    1.379   .     A
C400   C406    1.394   .     A
C400   C402    1.409   .     A
C401   C408    1.394   .     A
C401   C403    1.409   .     A
C402   C404    1.420   .     A
C402   C979    1.401   .     S
C403   C405    1.420   .     A
C403   C978    1.401   1_554 S
C404   C411    1.409   .     A
C405   C407    1.409   .     A
C406   H422    1.084   .     S
C406   C983    1.385   .     S
C407   H424    1.080   .     S
C407   C982    1.385   1_554 S
C408   H423    1.084   .     S
C408   C987    1.385   1_554 S
C409   O446    1.220   .     D
C409   O436    1.399   .     S
C410   O438    1.399   .     S
C410   O437    1.220   .     D
C411   H425    1.080   .     S
C411   C984    1.385   .     S
C412   H426    1.083   .     S
C412   C542    1.368   1_455 S
C413   C416    1.397   .     A
C413   H427    1.083   .     S
C413   C479    1.368   .     S
C414   C416    1.397   .     A
C414   H428    1.083   .     S
C414   C476    1.368   .     S
C415   H418    1.083   .     S
C415   C541    1.368   1_455 S
H419   O436    1.014   .     S
H420   O438    1.014   .     S
N433   Zn447   2.043   .     S
N434   Zn448   2.043   .     S
O435   Zn447   1.999   .     S
O439   Zn448   1.999   .     S
O440   Zn447   2.000   .     S
O441   Zn448   2.000   .     S
O442   Zn447   2.008   .     S
O443   Zn448   2.008   .     S
O444   Zn447   2.014   .     S
O445   Zn448   2.014   .     S
C449   O505    1.297   .     A
C449   O499    1.296   .     A
C449   C450    1.422   .     S
C450   C479    1.397   .     A
C450   C476    1.397   .     A
C451   N498    1.376   .     A
C451   I493    2.129   .     S
C452   N497    1.376   .     A
C452   I494    2.129   .     S
C452   C69     1.430   1_565 S
C453   I495    2.125   .     S
C453   N498    1.374   .     A
C454   I496    2.125   .     S
C454   N497    1.375   .     A
C454   C67     1.430   1_565 S
C455   O506    1.298   .     A
C455   C461    1.427   .     S
C455   O509    1.296   .     A
C456   O507    1.298   .     A
C456   O508    1.296   .     A
C456   C459    1.427   .     S
C457   C473    1.493   .     S
C457   C459    1.413   .     A
C457   C468    1.409   .     A
C458   C474    1.493   .     S
C458   C469    1.409   .     A
C458   C461    1.413   .     A
C459   C462    1.387   .     A
C460   O504    1.297   .     A
C460   O503    1.296   .     A
C460   C480    1.422   .     S
C461   C463    1.387   .     A
C462   H481    1.087   .     S
C462   C464    1.379   .     A
C463   H485    1.087   .     S
C463   C465    1.379   .     A
C464   C470    1.394   .     A
C464   C466    1.409   .     A
C465   C472    1.394   .     A
C465   C467    1.409   .     A
C466   C468    1.420   .     A
C466   C1043   1.401   .     S
C467   C469    1.420   .     A
C467   C1042   1.401   1_554 S
C468   C475    1.409   .     A
C469   C471    1.409   .     A
C470   H486    1.084   .     S
C470   C1047   1.385   .     S
C471   H488    1.080   .     S
C471   C1046   1.385   1_554 S
C472   H487    1.084   .     S
C472   C1051   1.385   1_554 S
C473   O510    1.220   .     D
C473   O500    1.399   .     S
C474   O502    1.399   .     S
C474   O501    1.220   .     D
C475   H489    1.080   .     S
C475   C1048   1.385   .     S
C476   H490    1.083   .     S
C477   C480    1.397   .     A
C477   H491    1.083   .     S
C477   C543    1.368   .     S
C478   C480    1.397   .     A
C478   H492    1.083   .     S
C478   C540    1.368   .     S
C479   H482    1.083   .     S
H483   O500    1.014   .     S
H484   O502    1.014   .     S
N497   Zn511   2.043   .     S
N498   Zn512   2.043   .     S
O499   Zn511   1.999   .     S
O503   Zn512   1.999   .     S
O504   Zn511   2.000   .     S
O505   Zn512   2.000   .     S
O506   Zn511   2.008   .     S
O507   Zn512   2.008   .     S
O508   Zn511   2.014   .     S
O509   Zn512   2.014   .     S
C513   O569    1.297   .     A
C513   O563    1.296   .     A
C513   C514    1.422   .     S
C514   C543    1.397   .     A
C514   C540    1.397   .     A
C515   N562    1.376   .     A
C515   I557    2.129   .     S
C516   N561    1.376   .     A
C516   I558    2.129   .     S
C516   C133    1.430   1_565 S
C517   I559    2.125   .     S
C517   N562    1.374   .     A
C518   I560    2.125   .     S
C518   N561    1.375   .     A
C518   C131    1.430   1_565 S
C519   O570    1.298   .     A
C519   C525    1.427   .     S
C519   O573    1.296   .     A
C520   O571    1.298   .     A
C520   O572    1.296   .     A
C520   C523    1.427   .     S
C521   C537    1.493   .     S
C521   C523    1.413   .     A
C521   C532    1.409   .     A
C522   C538    1.493   .     S
C522   C533    1.409   .     A
C522   C525    1.413   .     A
C523   C526    1.387   .     A
C524   O568    1.297   .     A
C524   O567    1.296   .     A
C524   C544    1.422   .     S
C525   C527    1.387   .     A
C526   H545    1.087   .     S
C526   C528    1.379   .     A
C527   H549    1.087   .     S
C527   C529    1.379   .     A
C528   C534    1.394   .     A
C528   C530    1.409   .     A
C529   C536    1.394   .     A
C529   C531    1.409   .     A
C530   C532    1.420   .     A
C530   C1107   1.401   .     S
C531   C533    1.420   .     A
C531   C1106   1.401   1_554 S
C532   C539    1.409   .     A
C533   C535    1.409   .     A
C534   H550    1.084   .     S
C534   C1111   1.385   .     S
C535   H552    1.080   .     S
C535   C1110   1.385   1_554 S
C536   H551    1.084   .     S
C536   C1115   1.385   1_554 S
C537   O574    1.220   .     D
C537   O564    1.399   .     S
C538   O566    1.399   .     S
C538   O565    1.220   .     D
C539   H553    1.080   .     S
C539   C1112   1.385   .     S
C540   H554    1.083   .     S
C541   C544    1.397   .     A
C541   H555    1.083   .     S
C541   C415    1.368   1_655 S
C542   C544    1.397   .     A
C542   H556    1.083   .     S
C542   C412    1.368   1_655 S
C543   H546    1.083   .     S
H547   O564    1.014   .     S
H548   O566    1.014   .     S
N561   Zn575   2.043   .     S
N562   Zn576   2.043   .     S
O563   Zn575   1.999   .     S
O567   Zn576   1.999   .     S
O568   Zn575   2.000   .     S
O569   Zn576   2.000   .     S
O570   Zn575   2.008   .     S
O571   Zn576   2.008   .     S
O572   Zn575   2.014   .     S
O573   Zn576   2.014   .     S
C577   O633    1.297   .     A
C577   O627    1.296   .     A
C577   C578    1.422   .     S
C578   C607    1.397   .     A
C578   C604    1.397   .     A
C579   N626    1.376   .     A
C579   I621    2.129   .     S
C579   C966    1.430   1_545 S
C580   N625    1.376   .     A
C580   I622    2.129   .     S
C580   C773    1.430   .     S
C581   I623    2.125   .     S
C581   N626    1.374   .     A
C581   C964    1.430   1_545 S
C582   I624    2.125   .     S
C582   N625    1.375   .     A
C582   C771    1.430   .     S
C583   O634    1.298   .     A
C583   C589    1.427   .     S
C583   O637    1.296   .     A
C584   O635    1.298   .     A
C584   O636    1.296   .     A
C584   C587    1.427   .     S
C585   C601    1.493   .     S
C585   C587    1.413   .     A
C585   C596    1.409   .     A
C586   C602    1.493   .     S
C586   C597    1.409   .     A
C586   C589    1.413   .     A
C587   C590    1.387   .     A
C588   O632    1.297   .     A
C588   O631    1.296   .     A
C588   C608    1.422   .     S
C589   C591    1.387   .     A
C590   H609    1.087   .     S
C590   C592    1.379   .     A
C591   H613    1.087   .     S
C591   C593    1.379   .     A
C592   C598    1.394   .     A
C592   C594    1.409   .     A
C593   C600    1.394   .     A
C593   C595    1.409   .     A
C594   C596    1.420   .     A
C594   C19     1.401   1_556 S
C595   C597    1.420   .     A
C596   C603    1.409   .     A
C597   C599    1.409   .     A
C598   H614    1.084   .     S
C598   C23     1.385   1_556 S
C599   H616    1.080   .     S
C600   H615    1.084   .     S
C601   O638    1.220   .     D
C601   O628    1.399   .     S
C602   O630    1.399   .     S
C602   O629    1.220   .     D
C603   H617    1.080   .     S
C603   C24     1.385   1_556 S
C604   H618    1.083   .     S
C604   C734    1.368   1_455 S
C605   C608    1.397   .     A
C605   H619    1.083   .     S
C605   C671    1.368   .     S
C606   C608    1.397   .     A
C606   H620    1.083   .     S
C606   C668    1.368   .     S
C607   H610    1.083   .     S
C607   C733    1.368   1_455 S
H611   O628    1.014   .     S
H612   O630    1.014   .     S
N625   Zn639   2.043   .     S
N626   Zn640   2.043   .     S
O627   Zn639   1.999   .     S
O631   Zn640   1.999   .     S
O632   Zn639   2.000   .     S
O633   Zn640   2.000   .     S
O634   Zn639   2.008   .     S
O635   Zn640   2.008   .     S
O636   Zn639   2.014   .     S
O637   Zn640   2.014   .     S
C641   O697    1.297   .     A
C641   O691    1.296   .     A
C641   C642    1.422   .     S
C642   C671    1.397   .     A
C642   C668    1.397   .     A
C643   N690    1.376   .     A
C643   I685    2.129   .     S
C643   C1030   1.430   1_545 S
C644   N689    1.376   .     A
C644   I686    2.129   .     S
C644   C837    1.430   .     S
C645   I687    2.125   .     S
C645   N690    1.374   .     A
C645   C1028   1.430   1_545 S
C646   I688    2.125   .     S
C646   N689    1.375   .     A
C646   C835    1.430   .     S
C647   O698    1.298   .     A
C647   C653    1.427   .     S
C647   O701    1.296   .     A
C648   O699    1.298   .     A
C648   O700    1.296   .     A
C648   C651    1.427   .     S
C649   C665    1.493   .     S
C649   C651    1.413   .     A
C649   C660    1.409   .     A
C650   C666    1.493   .     S
C650   C661    1.409   .     A
C650   C653    1.413   .     A
C651   C654    1.387   .     A
C652   O696    1.297   .     A
C652   O695    1.296   .     A
C652   C672    1.422   .     S
C653   C655    1.387   .     A
C654   H673    1.087   .     S
C654   C656    1.379   .     A
C655   H677    1.087   .     S
C655   C657    1.379   .     A
C656   C662    1.394   .     A
C656   C658    1.409   .     A
C657   C664    1.394   .     A
C657   C659    1.409   .     A
C658   C660    1.420   .     A
C658   C83     1.401   1_556 S
C659   C661    1.420   .     A
C660   C667    1.409   .     A
C661   C663    1.409   .     A
C662   H678    1.084   .     S
C662   C87     1.385   1_556 S
C663   H680    1.080   .     S
C664   H679    1.084   .     S
C665   O702    1.220   .     D
C665   O692    1.399   .     S
C666   O694    1.399   .     S
C666   O693    1.220   .     D
C667   H681    1.080   .     S
C667   C88     1.385   1_556 S
C668   H682    1.083   .     S
C669   C672    1.397   .     A
C669   H683    1.083   .     S
C669   C735    1.368   .     S
C670   C672    1.397   .     A
C670   H684    1.083   .     S
C670   C732    1.368   .     S
C671   H674    1.083   .     S
H675   O692    1.014   .     S
H676   O694    1.014   .     S
N689   Zn703   2.043   .     S
N690   Zn704   2.043   .     S
O691   Zn703   1.999   .     S
O695   Zn704   1.999   .     S
O696   Zn703   2.000   .     S
O697   Zn704   2.000   .     S
O698   Zn703   2.008   .     S
O699   Zn704   2.008   .     S
O700   Zn703   2.014   .     S
O701   Zn704   2.014   .     S
C705   O761    1.297   .     A
C705   O755    1.296   .     A
C705   C706    1.422   .     S
C706   C735    1.397   .     A
C706   C732    1.397   .     A
C707   N754    1.376   .     A
C707   I749    2.129   .     S
C707   C1094   1.430   1_545 S
C708   N753    1.376   .     A
C708   I750    2.129   .     S
C708   C901    1.430   .     S
C709   I751    2.125   .     S
C709   N754    1.374   .     A
C709   C1092   1.430   1_545 S
C710   I752    2.125   .     S
C710   N753    1.375   .     A
C710   C899    1.430   .     S
C711   O762    1.298   .     A
C711   C717    1.427   .     S
C711   O765    1.296   .     A
C712   O763    1.298   .     A
C712   O764    1.296   .     A
C712   C715    1.427   .     S
C713   C729    1.493   .     S
C713   C715    1.413   .     A
C713   C724    1.409   .     A
C714   C730    1.493   .     S
C714   C725    1.409   .     A
C714   C717    1.413   .     A
C715   C718    1.387   .     A
C716   O760    1.297   .     A
C716   O759    1.296   .     A
C716   C736    1.422   .     S
C717   C719    1.387   .     A
C718   H737    1.087   .     S
C718   C720    1.379   .     A
C719   H741    1.087   .     S
C719   C721    1.379   .     A
C720   C726    1.394   .     A
C720   C722    1.409   .     A
C721   C728    1.394   .     A
C721   C723    1.409   .     A
C722   C724    1.420   .     A
C722   C147    1.401   1_556 S
C723   C725    1.420   .     A
C724   C731    1.409   .     A
C725   C727    1.409   .     A
C726   H742    1.084   .     S
C726   C151    1.385   1_556 S
C727   H744    1.080   .     S
C728   H743    1.084   .     S
C729   O766    1.220   .     D
C729   O756    1.399   .     S
C730   O758    1.399   .     S
C730   O757    1.220   .     D
C731   H745    1.080   .     S
C731   C152    1.385   1_556 S
C732   H746    1.083   .     S
C733   C736    1.397   .     A
C733   H747    1.083   .     S
C733   C607    1.368   1_655 S
C734   C736    1.397   .     A
C734   H748    1.083   .     S
C734   C604    1.368   1_655 S
C735   H738    1.083   .     S
H739   O756    1.014   .     S
H740   O758    1.014   .     S
N753   Zn767   2.043   .     S
N754   Zn768   2.043   .     S
O755   Zn767   1.999   .     S
O759   Zn768   1.999   .     S
O760   Zn767   2.000   .     S
O761   Zn768   2.000   .     S
O762   Zn767   2.008   .     S
O763   Zn768   2.008   .     S
O764   Zn767   2.014   .     S
O765   Zn768   2.014   .     S
C769   O825    1.297   .     A
C769   O819    1.296   .     A
C769   C770    1.422   .     S
C770   C799    1.397   .     A
C770   C796    1.397   .     A
C771   N818    1.376   .     A
C771   I813    2.129   .     S
C772   N817    1.376   .     A
C772   I814    2.129   .     S
C772   C965    1.430   .     S
C773   I815    2.125   .     S
C773   N818    1.374   .     A
C774   I816    2.125   .     S
C774   N817    1.375   .     A
C774   C963    1.430   .     S
C775   O826    1.298   .     A
C775   C781    1.427   .     S
C775   O829    1.296   .     A
C776   O827    1.298   .     A
C776   O828    1.296   .     A
C776   C779    1.427   .     S
C777   C793    1.493   .     S
C777   C779    1.413   .     A
C777   C788    1.409   .     A
C778   C794    1.493   .     S
C778   C789    1.409   .     A
C778   C781    1.413   .     A
C779   C782    1.387   .     A
C780   O824    1.297   .     A
C780   O823    1.296   .     A
C780   C800    1.422   .     S
C781   C783    1.387   .     A
C782   H801    1.087   .     S
C782   C784    1.379   .     A
C783   H805    1.087   .     S
C783   C785    1.379   .     A
C784   C790    1.394   .     A
C784   C786    1.409   .     A
C785   C792    1.394   .     A
C785   C787    1.409   .     A
C786   C788    1.420   .     A
C786   C211    1.401   1_556 S
C787   C789    1.420   .     A
C788   C795    1.409   .     A
C789   C791    1.409   .     A
C790   H806    1.084   .     S
C790   C215    1.385   1_556 S
C791   H808    1.080   .     S
C792   H807    1.084   .     S
C793   O830    1.220   .     D
C793   O820    1.399   .     S
C794   O822    1.399   .     S
C794   O821    1.220   .     D
C795   H809    1.080   .     S
C795   C216    1.385   1_556 S
C796   H810    1.083   .     S
C796   C926    1.368   1_455 S
C797   C800    1.397   .     A
C797   H811    1.083   .     S
C797   C863    1.368   .     S
C798   C800    1.397   .     A
C798   H812    1.083   .     S
C798   C860    1.368   .     S
C799   H802    1.083   .     S
C799   C925    1.368   1_455 S
H803   O820    1.014   .     S
H804   O822    1.014   .     S
N817   Zn831   2.043   .     S
N818   Zn832   2.043   .     S
O819   Zn831   1.999   .     S
O823   Zn832   1.999   .     S
O824   Zn831   2.000   .     S
O825   Zn832   2.000   .     S
O826   Zn831   2.008   .     S
O827   Zn832   2.008   .     S
O828   Zn831   2.014   .     S
O829   Zn832   2.014   .     S
C833   O889    1.297   .     A
C833   O883    1.296   .     A
C833   C834    1.422   .     S
C834   C863    1.397   .     A
C834   C860    1.397   .     A
C835   N882    1.376   .     A
C835   I877    2.129   .     S
C836   N881    1.376   .     A
C836   I878    2.129   .     S
C836   C1029   1.430   .     S
C837   I879    2.125   .     S
C837   N882    1.374   .     A
C838   I880    2.125   .     S
C838   N881    1.375   .     A
C838   C1027   1.430   .     S
C839   O890    1.298   .     A
C839   C845    1.427   .     S
C839   O893    1.296   .     A
C840   O891    1.298   .     A
C840   O892    1.296   .     A
C840   C843    1.427   .     S
C841   C857    1.493   .     S
C841   C843    1.413   .     A
C841   C852    1.409   .     A
C842   C858    1.493   .     S
C842   C853    1.409   .     A
C842   C845    1.413   .     A
C843   C846    1.387   .     A
C844   O888    1.297   .     A
C844   O887    1.296   .     A
C844   C864    1.422   .     S
C845   C847    1.387   .     A
C846   H865    1.087   .     S
C846   C848    1.379   .     A
C847   H869    1.087   .     S
C847   C849    1.379   .     A
C848   C854    1.394   .     A
C848   C850    1.409   .     A
C849   C856    1.394   .     A
C849   C851    1.409   .     A
C850   C852    1.420   .     A
C850   C275    1.401   1_556 S
C851   C853    1.420   .     A
C852   C859    1.409   .     A
C853   C855    1.409   .     A
C854   H870    1.084   .     S
C854   C279    1.385   1_556 S
C855   H872    1.080   .     S
C856   H871    1.084   .     S
C857   O894    1.220   .     D
C857   O884    1.399   .     S
C858   O886    1.399   .     S
C858   O885    1.220   .     D
C859   H873    1.080   .     S
C859   C280    1.385   1_556 S
C860   H874    1.083   .     S
C861   C864    1.397   .     A
C861   H875    1.083   .     S
C861   C927    1.368   .     S
C862   C864    1.397   .     A
C862   H876    1.083   .     S
C862   C924    1.368   .     S
C863   H866    1.083   .     S
H867   O884    1.014   .     S
H868   O886    1.014   .     S
N881   Zn895   2.043   .     S
N882   Zn896   2.043   .     S
O883   Zn895   1.999   .     S
O887   Zn896   1.999   .     S
O888   Zn895   2.000   .     S
O889   Zn896   2.000   .     S
O890   Zn895   2.008   .     S
O891   Zn896   2.008   .     S
O892   Zn895   2.014   .     S
O893   Zn896   2.014   .     S
C897   O953    1.297   .     A
C897   O947    1.296   .     A
C897   C898    1.422   .     S
C898   C927    1.397   .     A
C898   C924    1.397   .     A
C899   N946    1.376   .     A
C899   I941    2.129   .     S
C900   N945    1.376   .     A
C900   I942    2.129   .     S
C900   C1093   1.430   .     S
C901   I943    2.125   .     S
C901   N946    1.374   .     A
C902   I944    2.125   .     S
C902   N945    1.375   .     A
C902   C1091   1.430   .     S
C903   O954    1.298   .     A
C903   C909    1.427   .     S
C903   O957    1.296   .     A
C904   O955    1.298   .     A
C904   O956    1.296   .     A
C904   C907    1.427   .     S
C905   C921    1.493   .     S
C905   C907    1.413   .     A
C905   C916    1.409   .     A
C906   C922    1.493   .     S
C906   C917    1.409   .     A
C906   C909    1.413   .     A
C907   C910    1.387   .     A
C908   O952    1.297   .     A
C908   O951    1.296   .     A
C908   C928    1.422   .     S
C909   C911    1.387   .     A
C910   H929    1.087   .     S
C910   C912    1.379   .     A
C911   H933    1.087   .     S
C911   C913    1.379   .     A
C912   C918    1.394   .     A
C912   C914    1.409   .     A
C913   C920    1.394   .     A
C913   C915    1.409   .     A
C914   C916    1.420   .     A
C914   C339    1.401   1_556 S
C915   C917    1.420   .     A
C916   C923    1.409   .     A
C917   C919    1.409   .     A
C918   H934    1.084   .     S
C918   C343    1.385   1_556 S
C919   H936    1.080   .     S
C920   H935    1.084   .     S
C921   O958    1.220   .     D
C921   O948    1.399   .     S
C922   O950    1.399   .     S
C922   O949    1.220   .     D
C923   H937    1.080   .     S
C923   C344    1.385   1_556 S
C924   H938    1.083   .     S
C925   C928    1.397   .     A
C925   H939    1.083   .     S
C925   C799    1.368   1_655 S
C926   C928    1.397   .     A
C926   H940    1.083   .     S
C926   C796    1.368   1_655 S
C927   H930    1.083   .     S
H931   O948    1.014   .     S
H932   O950    1.014   .     S
N945   Zn959   2.043   .     S
N946   Zn960   2.043   .     S
O947   Zn959   1.999   .     S
O951   Zn960   1.999   .     S
O952   Zn959   2.000   .     S
O953   Zn960   2.000   .     S
O954   Zn959   2.008   .     S
O955   Zn960   2.008   .     S
O956   Zn959   2.014   .     S
O957   Zn960   2.014   .     S
C961   O1017   1.297   .     A
C961   O1011   1.296   .     A
C961   C962    1.422   .     S
C962   C991    1.397   .     A
C962   C988    1.397   .     A
C963   N1010   1.376   .     A
C963   I1005   2.129   .     S
C964   N1009   1.376   .     A
C964   I1006   2.129   .     S
C964   C581    1.430   1_565 S
C965   I1007   2.125   .     S
C965   N1010   1.374   .     A
C966   I1008   2.125   .     S
C966   N1009   1.375   .     A
C966   C579    1.430   1_565 S
C967   O1018   1.298   .     A
C967   C973    1.427   .     S
C967   O1021   1.296   .     A
C968   O1019   1.298   .     A
C968   O1020   1.296   .     A
C968   C971    1.427   .     S
C969   C985    1.493   .     S
C969   C971    1.413   .     A
C969   C980    1.409   .     A
C970   C986    1.493   .     S
C970   C981    1.409   .     A
C970   C973    1.413   .     A
C971   C974    1.387   .     A
C972   O1016   1.297   .     A
C972   O1015   1.296   .     A
C972   C992    1.422   .     S
C973   C975    1.387   .     A
C974   H993    1.087   .     S
C974   C976    1.379   .     A
C975   H997    1.087   .     S
C975   C977    1.379   .     A
C976   C982    1.394   .     A
C976   C978    1.409   .     A
C977   C984    1.394   .     A
C977   C979    1.409   .     A
C978   C980    1.420   .     A
C978   C403    1.401   1_556 S
C979   C981    1.420   .     A
C980   C987    1.409   .     A
C981   C983    1.409   .     A
C982   H998    1.084   .     S
C982   C407    1.385   1_556 S
C983   H1000   1.080   .     S
C984   H999    1.084   .     S
C985   O1022   1.220   .     D
C985   O1012   1.399   .     S
C986   O1014   1.399   .     S
C986   O1013   1.220   .     D
C987   H1001   1.080   .     S
C987   C408    1.385   1_556 S
C988   H1002   1.083   .     S
C988   C1118   1.368   1_455 S
C989   C992    1.397   .     A
C989   H1003   1.083   .     S
C989   C1055   1.368   .     S
C990   C992    1.397   .     A
C990   H1004   1.083   .     S
C990   C1052   1.368   .     S
C991   H994    1.083   .     S
C991   C1117   1.368   1_455 S
H995   O1012   1.014   .     S
H996   O1014   1.014   .     S
N1009  Zn1023  2.043   .     S
N1010  Zn1024  2.043   .     S
O1011  Zn1023  1.999   .     S
O1015  Zn1024  1.999   .     S
O1016  Zn1023  2.000   .     S
O1017  Zn1024  2.000   .     S
O1018  Zn1023  2.008   .     S
O1019  Zn1024  2.008   .     S
O1020  Zn1023  2.014   .     S
O1021  Zn1024  2.014   .     S
C1025  O1081   1.297   .     A
C1025  O1075   1.296   .     A
C1025  C1026   1.422   .     S
C1026  C1055   1.397   .     A
C1026  C1052   1.397   .     A
C1027  N1074   1.376   .     A
C1027  I1069   2.129   .     S
C1028  N1073   1.376   .     A
C1028  I1070   2.129   .     S
C1028  C645    1.430   1_565 S
C1029  I1071   2.125   .     S
C1029  N1074   1.374   .     A
C1030  I1072   2.125   .     S
C1030  N1073   1.375   .     A
C1030  C643    1.430   1_565 S
C1031  O1082   1.298   .     A
C1031  C1037   1.427   .     S
C1031  O1085   1.296   .     A
C1032  O1083   1.298   .     A
C1032  O1084   1.296   .     A
C1032  C1035   1.427   .     S
C1033  C1049   1.493   .     S
C1033  C1035   1.413   .     A
C1033  C1044   1.409   .     A
C1034  C1050   1.493   .     S
C1034  C1045   1.409   .     A
C1034  C1037   1.413   .     A
C1035  C1038   1.387   .     A
C1036  O1080   1.297   .     A
C1036  O1079   1.296   .     A
C1036  C1056   1.422   .     S
C1037  C1039   1.387   .     A
C1038  H1057   1.087   .     S
C1038  C1040   1.379   .     A
C1039  H1061   1.087   .     S
C1039  C1041   1.379   .     A
C1040  C1046   1.394   .     A
C1040  C1042   1.409   .     A
C1041  C1048   1.394   .     A
C1041  C1043   1.409   .     A
C1042  C1044   1.420   .     A
C1042  C467    1.401   1_556 S
C1043  C1045   1.420   .     A
C1044  C1051   1.409   .     A
C1045  C1047   1.409   .     A
C1046  H1062   1.084   .     S
C1046  C471    1.385   1_556 S
C1047  H1064   1.080   .     S
C1048  H1063   1.084   .     S
C1049  O1086   1.220   .     D
C1049  O1076   1.399   .     S
C1050  O1078   1.399   .     S
C1050  O1077   1.220   .     D
C1051  H1065   1.080   .     S
C1051  C472    1.385   1_556 S
C1052  H1066   1.083   .     S
C1053  C1056   1.397   .     A
C1053  H1067   1.083   .     S
C1053  C1119   1.368   .     S
C1054  C1056   1.397   .     A
C1054  H1068   1.083   .     S
C1054  C1116   1.368   .     S
C1055  H1058   1.083   .     S
H1059  O1076   1.014   .     S
H1060  O1078   1.014   .     S
N1073  Zn1087  2.043   .     S
N1074  Zn1088  2.043   .     S
O1075  Zn1087  1.999   .     S
O1079  Zn1088  1.999   .     S
O1080  Zn1087  2.000   .     S
O1081  Zn1088  2.000   .     S
O1082  Zn1087  2.008   .     S
O1083  Zn1088  2.008   .     S
O1084  Zn1087  2.014   .     S
O1085  Zn1088  2.014   .     S
C1089  O1145   1.297   .     A
C1089  O1139   1.296   .     A
C1089  C1090   1.422   .     S
C1090  C1119   1.397   .     A
C1090  C1116   1.397   .     A
C1091  N1138   1.376   .     A
C1091  I1133   2.129   .     S
C1092  N1137   1.376   .     A
C1092  I1134   2.129   .     S
C1092  C709    1.430   1_565 S
C1093  I1135   2.125   .     S
C1093  N1138   1.374   .     A
C1094  I1136   2.125   .     S
C1094  N1137   1.375   .     A
C1094  C707    1.430   1_565 S
C1095  O1146   1.298   .     A
C1095  C1101   1.427   .     S
C1095  O1149   1.296   .     A
C1096  O1147   1.298   .     A
C1096  O1148   1.296   .     A
C1096  C1099   1.427   .     S
C1097  C1113   1.493   .     S
C1097  C1099   1.413   .     A
C1097  C1108   1.409   .     A
C1098  C1114   1.493   .     S
C1098  C1109   1.409   .     A
C1098  C1101   1.413   .     A
C1099  C1102   1.387   .     A
C1100  O1144   1.297   .     A
C1100  O1143   1.296   .     A
C1100  C1120   1.422   .     S
C1101  C1103   1.387   .     A
C1102  H1121   1.087   .     S
C1102  C1104   1.379   .     A
C1103  H1125   1.087   .     S
C1103  C1105   1.379   .     A
C1104  C1110   1.394   .     A
C1104  C1106   1.409   .     A
C1105  C1112   1.394   .     A
C1105  C1107   1.409   .     A
C1106  C1108   1.420   .     A
C1106  C531    1.401   1_556 S
C1107  C1109   1.420   .     A
C1108  C1115   1.409   .     A
C1109  C1111   1.409   .     A
C1110  H1126   1.084   .     S
C1110  C535    1.385   1_556 S
C1111  H1128   1.080   .     S
C1112  H1127   1.084   .     S
C1113  O1150   1.220   .     D
C1113  O1140   1.399   .     S
C1114  O1142   1.399   .     S
C1114  O1141   1.220   .     D
C1115  H1129   1.080   .     S
C1115  C536    1.385   1_556 S
C1116  H1130   1.083   .     S
C1117  C1120   1.397   .     A
C1117  H1131   1.083   .     S
C1117  C991    1.368   1_655 S
C1118  C1120   1.397   .     A
C1118  H1132   1.083   .     S
C1118  C988    1.368   1_655 S
C1119  H1122   1.083   .     S
H1123  O1140   1.014   .     S
H1124  O1142   1.014   .     S
N1137  Zn1151  2.043   .     S
N1138  Zn1152  2.043   .     S
O1139  Zn1151  1.999   .     S
O1143  Zn1152  1.999   .     S
O1144  Zn1151  2.000   .     S
O1145  Zn1152  2.000   .     S
O1146  Zn1151  2.008   .     S
O1147  Zn1152  2.008   .     S
O1148  Zn1151  2.014   .     S
O1149  Zn1152  2.014   .     S
