data_str_m3_o1_o1_pcu_sym.16
_audit_creation_date              2020-01-03
_audit_creation_method            'Materials Studio'
_symmetry_space_group_name_H-M    'P1'
_symmetry_Int_Tables_number       1
_symmetry_cell_setting            triclinic
loop_
_symmetry_equiv_pos_as_xyz
  x,y,z
_cell_length_a                    30.8423
_cell_length_b                    29.6242
_cell_length_c                    29.7406
_cell_angle_alpha                 89.9401
_cell_angle_beta                  90.0755
_cell_angle_gamma                 90.0405
loop_
_atom_site_label
_atom_site_type_symbol
_atom_site_fract_x
_atom_site_fract_y
_atom_site_fract_z
_atom_site_U_iso_or_equiv
_atom_site_adp_type
_atom_site_occupancy
C1     C     0.06012   0.19026   0.16683   0.00000  Uiso   1.00
C2     C     0.49779   0.21019   0.30919   0.00000  Uiso   1.00
C3     C     0.00051   0.21015   0.02428   0.00000  Uiso   1.00
C4     C     0.00251   0.28971   0.30916   0.00000  Uiso   1.00
C5     C     0.25364   0.03959   0.02373   0.00000  Uiso   1.00
C6     C     0.25411   0.46046   0.30969   0.00000  Uiso   1.00
C7     C     0.24644   0.46041   0.02383   0.00000  Uiso   1.00
C8     C     0.24598   0.03955   0.30956   0.00000  Uiso   1.00
C9     C     0.40316   0.12809   0.12938   0.00000  Uiso   1.00
C10    C     0.12364   0.34273   0.20080   0.00000  Uiso   1.00
C11    C     0.09621   0.37255   0.12987   0.00000  Uiso   1.00
C12    C     0.43988   0.30976   0.16676   0.00000  Uiso   1.00
C13    C     0.37764   0.15583   0.20178   0.00000  Uiso   1.00
C14    C     0.09779   0.12900   0.20460   0.00000  Uiso   1.00
C15    C     0.37979   0.34678   0.12964   0.00000  Uiso   1.00
C16    C     0.40103   0.36958   0.20527   0.00000  Uiso   1.00
C17    C     0.12123   0.15460   0.13061   0.00000  Uiso   1.00
C18    C     0.12822   0.40482   0.12998   0.00000  Uiso   1.00
C19    C     0.34691   0.12256   0.20270   0.00000  Uiso   1.00
C20    C     0.37116   0.09583   0.12949   0.00000  Uiso   1.00
C21    C     0.15445   0.37596   0.20176   0.00000  Uiso   1.00
C22    C     0.36911   0.40183   0.20521   0.00000  Uiso   1.00
C23    C     0.43991   0.19024   0.16651   0.00000  Uiso   1.00
C24    C     0.15186   0.12127   0.12972   0.00000  Uiso   1.00
C25    C     0.12968   0.09667   0.20444   0.00000  Uiso   1.00
C26    C     0.34910   0.38004   0.12896   0.00000  Uiso   1.00
C27    C     0.09387   0.34203   0.16566   0.00000  Uiso   1.00
C28    C     0.40636   0.15768   0.16581   0.00000  Uiso   1.00
C29    C     0.40635   0.34240   0.16728   0.00000  Uiso   1.00
C30    C     0.09362   0.15762   0.16746   0.00000  Uiso   1.00
C31    C     0.34333   0.09302   0.16640   0.00000  Uiso   1.00
C32    C     0.15694   0.40667   0.16628   0.00000  Uiso   1.00
C33    C     0.15651   0.09283   0.16683   0.00000  Uiso   1.00
C34    C     0.06015   0.30968   0.16649   0.00000  Uiso   1.00
C35    C     0.34333   0.40703   0.16691   0.00000  Uiso   1.00
C36    C     0.45904   0.35178   0.04520   0.00000  Uiso   1.00
C37    C     0.46083   0.39540   0.01796   0.00000  Uiso   1.00
C38    C     0.45749   0.14724   0.29249   0.00000  Uiso   1.00
C39    C     0.45697   0.10441   0.26427   0.00000  Uiso   1.00
C40    C     0.03870   0.14593   0.04134   0.00000  Uiso   1.00
C41    C     0.03848   0.10400   0.07095   0.00000  Uiso   1.00
C42    C     0.04582   0.35014   0.29232   0.00000  Uiso   1.00
C43    C     0.04839   0.39351   0.26491   0.00000  Uiso   1.00
C44    C     0.25033   0.10984   0.05727   0.00000  Uiso   1.00
C45    C     0.31013   0.44018   0.16672   0.00000  Uiso   1.00
C46    C     0.27501   0.15439   0.05594   0.00000  Uiso   1.00
C47    C     0.25139   0.39051   0.27566   0.00000  Uiso   1.00
C48    C     0.27595   0.34591   0.27711   0.00000  Uiso   1.00
C49    C     0.25000   0.39000   0.05727   0.00000  Uiso   1.00
C50    C     0.22526   0.34549   0.05590   0.00000  Uiso   1.00
C51    C     0.24898   0.10965   0.27564   0.00000  Uiso   1.00
C52    C     0.22430   0.15418   0.27684   0.00000  Uiso   1.00
C53    C     0.18981   0.05978   0.16667   0.00000  Uiso   1.00
C54    C     0.18997   0.44005   0.16662   0.00000  Uiso   1.00
C55    C     0.31012   0.05985   0.16664   0.00000  Uiso   1.00
C56    C     0.49960   0.28985   0.02398   0.00000  Uiso   1.00
H57    H     0.42554   0.12960   0.10135   0.00000  Uiso   1.00
H58    H     0.32597   0.12050   0.23150   0.00000  Uiso   1.00
H59    H     0.36861   0.07277   0.10134   0.00000  Uiso   1.00
H60    H     0.17620   0.37711   0.22995   0.00000  Uiso   1.00
H61    H     0.36502   0.42295   0.23464   0.00000  Uiso   1.00
H62    H     0.17191   0.11829   0.10031   0.00000  Uiso   1.00
H63    H     0.13297   0.07444   0.23320   0.00000  Uiso   1.00
H64    H     0.33001   0.38425   0.09892   0.00000  Uiso   1.00
H65    H     0.45083   0.36235   0.07977   0.00000  Uiso   1.00
H66    H     0.43206   0.32989   0.03280   0.00000  Uiso   1.00
H67    H     0.45772   0.38843   0.31489   0.00000  Uiso   1.00
H68    H     0.12297   0.31784   0.22744   0.00000  Uiso   1.00
H69    H     0.43319   0.41741   0.02749   0.00000  Uiso   1.00
H70    H     0.49148   0.41386   0.02485   0.00000  Uiso   1.00
H71    H     0.42947   0.16877   0.28312   0.00000  Uiso   1.00
H72    H     0.45345   0.13674   0.32802   0.00000  Uiso   1.00
H73    H     0.42499   0.08744   0.26736   0.00000  Uiso   1.00
H74    H     0.46302   0.11251   0.22840   0.00000  Uiso   1.00
H75    H     0.48267   0.08100   0.27616   0.00000  Uiso   1.00
H76    H     0.06748   0.16688   0.04959   0.00000  Uiso   1.00
H77    H     0.04180   0.13427   0.00609   0.00000  Uiso   1.00
H78    H     0.06988   0.08596   0.06782   0.00000  Uiso   1.00
H79    H     0.07309   0.37180   0.10240   0.00000  Uiso   1.00
H80    H     0.03336   0.11339   0.10665   0.00000  Uiso   1.00
H81    H     0.01189   0.08105   0.06034   0.00000  Uiso   1.00
H82    H     0.07235   0.32710   0.28201   0.00000  Uiso   1.00
H83    H     0.05128   0.35941   0.32800   0.00000  Uiso   1.00
H84    H     0.08160   0.40786   0.26709   0.00000  Uiso   1.00
H85    H     0.04038   0.38681   0.22917   0.00000  Uiso   1.00
H86    H     0.02508   0.41874   0.27810   0.00000  Uiso   1.00
H87    H     0.24281   0.10395   0.09296   0.00000  Uiso   1.00
H88    H     0.21968   0.11313   0.03778   0.00000  Uiso   1.00
H89    H     0.28565   0.16250   0.02131   0.00000  Uiso   1.00
H90    H     0.37895   0.17997   0.22902   0.00000  Uiso   1.00
H91    H     0.25380   0.18204   0.06818   0.00000  Uiso   1.00
H92    H     0.30406   0.15240   0.07797   0.00000  Uiso   1.00
H93    H     0.24447   0.39670   0.23989   0.00000  Uiso   1.00
H94    H     0.22045   0.38705   0.29458   0.00000  Uiso   1.00
H95    H     0.25488   0.31841   0.26416   0.00000  Uiso   1.00
H96    H     0.30537   0.34802   0.25572   0.00000  Uiso   1.00
H97    H     0.28599   0.33741   0.31186   0.00000  Uiso   1.00
H98    H     0.25783   0.39566   0.09294   0.00000  Uiso   1.00
H99    H     0.28052   0.38679   0.03765   0.00000  Uiso   1.00
H100   H     0.24657   0.31771   0.06779   0.00000  Uiso   1.00
H101   H     0.07627   0.13132   0.23329   0.00000  Uiso   1.00
H102   H     0.19643   0.34736   0.07820   0.00000  Uiso   1.00
H103   H     0.21423   0.33769   0.02129   0.00000  Uiso   1.00
H104   H     0.25630   0.10362   0.23995   0.00000  Uiso   1.00
H105   H     0.27973   0.11311   0.29496   0.00000  Uiso   1.00
H106   H     0.24542   0.18179   0.26425   0.00000  Uiso   1.00
H107   H     0.19510   0.15205   0.25504   0.00000  Uiso   1.00
H108   H     0.21389   0.16247   0.31149   0.00000  Uiso   1.00
H109   H     0.38303   0.32492   0.10067   0.00000  Uiso   1.00
H110   H     0.42168   0.36624   0.23460   0.00000  Uiso   1.00
H111   H     0.11917   0.17789   0.10265   0.00000  Uiso   1.00
H112   H     0.13004   0.42870   0.10241   0.00000  Uiso   1.00
N113   N     0.00000   0.25000   0.28573   0.00000  Uiso   1.00
N114   N    -0.00000   0.25000   0.04760   0.00000  Uiso   1.00
N115   N     0.25000   0.00000   0.28573   0.00000  Uiso   1.00
N116   N     0.25000   0.00000   0.04760   0.00000  Uiso   1.00
O117   O     0.04580   0.20419   0.20487   0.00000  Uiso   1.00
O118   O     0.20419   0.04581   0.12846   0.00000  Uiso   1.00
O119   O     0.20419   0.04581   0.20487   0.00000  Uiso   1.00
O120   O     0.29580   0.45419   0.12846   0.00000  Uiso   1.00
O121   O     0.20419   0.45419   0.12846   0.00000  Uiso   1.00
O122   O     0.29580   0.04581   0.20487   0.00000  Uiso   1.00
O123   O     0.29580   0.04581   0.12846   0.00000  Uiso   1.00
O124   O     0.20419   0.45419   0.20487   0.00000  Uiso   1.00
O125   O     0.00006   0.33025   0.04740   0.00000  Uiso   1.00
O126   O     0.49696   0.17030   0.28501   0.00000  Uiso   1.00
O127   O     0.49999   0.17031   0.04863   0.00000  Uiso   1.00
O128   O     0.45419   0.29581   0.12846   0.00000  Uiso   1.00
O129   O     0.00492   0.32968   0.28526   0.00000  Uiso   1.00
O130   O     0.27738   0.07484   0.04196   0.00000  Uiso   1.00
O131   O     0.27821   0.42545   0.29166   0.00000  Uiso   1.00
O132   O     0.22285   0.42509   0.04217   0.00000  Uiso   1.00
O133   O     0.22205   0.07464   0.29129   0.00000  Uiso   1.00
O134   O     0.45419   0.29581   0.20487   0.00000  Uiso   1.00
O135   O     0.04580   0.20419   0.12846   0.00000  Uiso   1.00
O136   O     0.45419   0.20419   0.12846   0.00000  Uiso   1.00
O137   O     0.04580   0.29581   0.20487   0.00000  Uiso   1.00
O138   O     0.04580   0.29581   0.12846   0.00000  Uiso   1.00
O139   O     0.45419   0.20419   0.20487   0.00000  Uiso   1.00
O140   O     0.29580   0.45419   0.20487   0.00000  Uiso   1.00
Zn141  Zn   -0.00000   0.25000   0.21771   0.00000  Uiso   1.00
Zn142  Zn    0.00000   0.25000   0.11563   0.00000  Uiso   1.00
Zn143  Zn    0.25000   0.00000   0.21771   0.00000  Uiso   1.00
Zn144  Zn    0.25000   0.00000   0.11563   0.00000  Uiso   1.00
C145   C     0.56012   0.19026   0.16683   0.00000  Uiso   1.00
C146   C     0.99779   0.21019   0.30919   0.00000  Uiso   1.00
C147   C     0.50051   0.21015   0.02428   0.00000  Uiso   1.00
C148   C     0.50251   0.28971   0.30916   0.00000  Uiso   1.00
C149   C     0.75364   0.03959   0.02373   0.00000  Uiso   1.00
C150   C     0.75411   0.46046   0.30969   0.00000  Uiso   1.00
C151   C     0.74644   0.46041   0.02383   0.00000  Uiso   1.00
C152   C     0.74598   0.03955   0.30956   0.00000  Uiso   1.00
C153   C     0.90316   0.12809   0.12938   0.00000  Uiso   1.00
C154   C     0.62364   0.34273   0.20080   0.00000  Uiso   1.00
C155   C     0.59621   0.37255   0.12987   0.00000  Uiso   1.00
C156   C     0.93988   0.30976   0.16676   0.00000  Uiso   1.00
C157   C     0.87764   0.15583   0.20178   0.00000  Uiso   1.00
C158   C     0.59779   0.12900   0.20460   0.00000  Uiso   1.00
C159   C     0.87979   0.34678   0.12964   0.00000  Uiso   1.00
C160   C     0.90103   0.36958   0.20527   0.00000  Uiso   1.00
C161   C     0.62123   0.15460   0.13061   0.00000  Uiso   1.00
C162   C     0.62822   0.40482   0.12998   0.00000  Uiso   1.00
C163   C     0.84691   0.12256   0.20270   0.00000  Uiso   1.00
C164   C     0.87116   0.09583   0.12949   0.00000  Uiso   1.00
C165   C     0.65445   0.37596   0.20176   0.00000  Uiso   1.00
C166   C     0.86911   0.40183   0.20521   0.00000  Uiso   1.00
C167   C     0.93991   0.19024   0.16651   0.00000  Uiso   1.00
C168   C     0.65186   0.12127   0.12972   0.00000  Uiso   1.00
C169   C     0.62968   0.09667   0.20444   0.00000  Uiso   1.00
C170   C     0.84910   0.38004   0.12896   0.00000  Uiso   1.00
C171   C     0.59387   0.34203   0.16566   0.00000  Uiso   1.00
C172   C     0.90636   0.15768   0.16581   0.00000  Uiso   1.00
C173   C     0.90635   0.34240   0.16728   0.00000  Uiso   1.00
C174   C     0.59362   0.15762   0.16746   0.00000  Uiso   1.00
C175   C     0.84333   0.09302   0.16640   0.00000  Uiso   1.00
C176   C     0.65694   0.40667   0.16628   0.00000  Uiso   1.00
C177   C     0.65651   0.09283   0.16683   0.00000  Uiso   1.00
C178   C     0.56015   0.30968   0.16649   0.00000  Uiso   1.00
C179   C     0.84333   0.40703   0.16691   0.00000  Uiso   1.00
C180   C     0.95904   0.35178   0.04520   0.00000  Uiso   1.00
C181   C     0.96083   0.39540   0.01796   0.00000  Uiso   1.00
C182   C     0.95749   0.14724   0.29249   0.00000  Uiso   1.00
C183   C     0.95697   0.10441   0.26427   0.00000  Uiso   1.00
C184   C     0.53870   0.14593   0.04134   0.00000  Uiso   1.00
C185   C     0.53848   0.10400   0.07095   0.00000  Uiso   1.00
C186   C     0.54582   0.35014   0.29232   0.00000  Uiso   1.00
C187   C     0.54839   0.39351   0.26491   0.00000  Uiso   1.00
C188   C     0.75033   0.10984   0.05727   0.00000  Uiso   1.00
C189   C     0.81013   0.44018   0.16672   0.00000  Uiso   1.00
C190   C     0.77501   0.15439   0.05594   0.00000  Uiso   1.00
C191   C     0.75139   0.39051   0.27566   0.00000  Uiso   1.00
C192   C     0.77595   0.34591   0.27711   0.00000  Uiso   1.00
C193   C     0.75000   0.39000   0.05727   0.00000  Uiso   1.00
C194   C     0.72526   0.34549   0.05590   0.00000  Uiso   1.00
C195   C     0.74898   0.10965   0.27564   0.00000  Uiso   1.00
C196   C     0.72430   0.15418   0.27684   0.00000  Uiso   1.00
C197   C     0.68981   0.05978   0.16667   0.00000  Uiso   1.00
C198   C     0.68997   0.44005   0.16662   0.00000  Uiso   1.00
C199   C     0.81012   0.05985   0.16664   0.00000  Uiso   1.00
C200   C     0.99960   0.28985   0.02398   0.00000  Uiso   1.00
H201   H     0.92554   0.12960   0.10135   0.00000  Uiso   1.00
H202   H     0.82597   0.12050   0.23150   0.00000  Uiso   1.00
H203   H     0.86861   0.07277   0.10134   0.00000  Uiso   1.00
H204   H     0.67620   0.37711   0.22995   0.00000  Uiso   1.00
H205   H     0.86502   0.42295   0.23464   0.00000  Uiso   1.00
H206   H     0.67191   0.11829   0.10031   0.00000  Uiso   1.00
H207   H     0.63297   0.07444   0.23320   0.00000  Uiso   1.00
H208   H     0.83001   0.38425   0.09892   0.00000  Uiso   1.00
H209   H     0.95083   0.36235   0.07977   0.00000  Uiso   1.00
H210   H     0.93206   0.32989   0.03280   0.00000  Uiso   1.00
H211   H     0.95772   0.38843   0.31489   0.00000  Uiso   1.00
H212   H     0.62297   0.31784   0.22744   0.00000  Uiso   1.00
H213   H     0.93319   0.41741   0.02749   0.00000  Uiso   1.00
H214   H     0.99148   0.41386   0.02485   0.00000  Uiso   1.00
H215   H     0.92947   0.16877   0.28312   0.00000  Uiso   1.00
H216   H     0.95345   0.13674   0.32802   0.00000  Uiso   1.00
H217   H     0.92499   0.08744   0.26736   0.00000  Uiso   1.00
H218   H     0.96302   0.11251   0.22840   0.00000  Uiso   1.00
H219   H     0.98267   0.08100   0.27616   0.00000  Uiso   1.00
H220   H     0.56748   0.16688   0.04959   0.00000  Uiso   1.00
H221   H     0.54180   0.13427   0.00609   0.00000  Uiso   1.00
H222   H     0.56988   0.08596   0.06782   0.00000  Uiso   1.00
H223   H     0.57309   0.37180   0.10240   0.00000  Uiso   1.00
H224   H     0.53336   0.11339   0.10665   0.00000  Uiso   1.00
H225   H     0.51189   0.08105   0.06034   0.00000  Uiso   1.00
H226   H     0.57235   0.32710   0.28201   0.00000  Uiso   1.00
H227   H     0.55128   0.35941   0.32800   0.00000  Uiso   1.00
H228   H     0.58160   0.40786   0.26709   0.00000  Uiso   1.00
H229   H     0.54038   0.38681   0.22917   0.00000  Uiso   1.00
H230   H     0.52508   0.41874   0.27810   0.00000  Uiso   1.00
H231   H     0.74281   0.10395   0.09296   0.00000  Uiso   1.00
H232   H     0.71968   0.11313   0.03778   0.00000  Uiso   1.00
H233   H     0.78565   0.16250   0.02131   0.00000  Uiso   1.00
H234   H     0.87895   0.17997   0.22902   0.00000  Uiso   1.00
H235   H     0.75380   0.18204   0.06818   0.00000  Uiso   1.00
H236   H     0.80406   0.15240   0.07797   0.00000  Uiso   1.00
H237   H     0.74447   0.39670   0.23989   0.00000  Uiso   1.00
H238   H     0.72045   0.38705   0.29458   0.00000  Uiso   1.00
H239   H     0.75488   0.31841   0.26416   0.00000  Uiso   1.00
H240   H     0.80537   0.34802   0.25572   0.00000  Uiso   1.00
H241   H     0.78599   0.33741   0.31186   0.00000  Uiso   1.00
H242   H     0.75783   0.39566   0.09294   0.00000  Uiso   1.00
H243   H     0.78052   0.38679   0.03765   0.00000  Uiso   1.00
H244   H     0.74657   0.31771   0.06779   0.00000  Uiso   1.00
H245   H     0.57627   0.13132   0.23329   0.00000  Uiso   1.00
H246   H     0.69643   0.34736   0.07820   0.00000  Uiso   1.00
H247   H     0.71423   0.33769   0.02129   0.00000  Uiso   1.00
H248   H     0.75630   0.10362   0.23995   0.00000  Uiso   1.00
H249   H     0.77973   0.11311   0.29496   0.00000  Uiso   1.00
H250   H     0.74542   0.18179   0.26425   0.00000  Uiso   1.00
H251   H     0.69510   0.15205   0.25504   0.00000  Uiso   1.00
H252   H     0.71389   0.16247   0.31149   0.00000  Uiso   1.00
H253   H     0.88303   0.32492   0.10067   0.00000  Uiso   1.00
H254   H     0.92168   0.36624   0.23460   0.00000  Uiso   1.00
H255   H     0.61917   0.17789   0.10265   0.00000  Uiso   1.00
H256   H     0.63004   0.42870   0.10241   0.00000  Uiso   1.00
N257   N     0.50000   0.25000   0.28573   0.00000  Uiso   1.00
N258   N     0.50000   0.25000   0.04760   0.00000  Uiso   1.00
N259   N     0.75000   0.00000   0.28573   0.00000  Uiso   1.00
N260   N     0.75000   0.00000   0.04760   0.00000  Uiso   1.00
O261   O     0.54580   0.20419   0.20487   0.00000  Uiso   1.00
O262   O     0.70419   0.04581   0.12846   0.00000  Uiso   1.00
O263   O     0.70419   0.04581   0.20487   0.00000  Uiso   1.00
O264   O     0.79580   0.45419   0.12846   0.00000  Uiso   1.00
O265   O     0.70419   0.45419   0.12846   0.00000  Uiso   1.00
O266   O     0.79580   0.04581   0.20487   0.00000  Uiso   1.00
O267   O     0.79580   0.04581   0.12846   0.00000  Uiso   1.00
O268   O     0.70419   0.45419   0.20487   0.00000  Uiso   1.00
O269   O     0.50006   0.33025   0.04740   0.00000  Uiso   1.00
O270   O     0.99696   0.17030   0.28501   0.00000  Uiso   1.00
O271   O     0.99999   0.17031   0.04863   0.00000  Uiso   1.00
O272   O     0.95419   0.29581   0.12846   0.00000  Uiso   1.00
O273   O     0.50492   0.32968   0.28526   0.00000  Uiso   1.00
O274   O     0.77738   0.07484   0.04196   0.00000  Uiso   1.00
O275   O     0.77821   0.42545   0.29166   0.00000  Uiso   1.00
O276   O     0.72285   0.42509   0.04217   0.00000  Uiso   1.00
O277   O     0.72205   0.07464   0.29129   0.00000  Uiso   1.00
O278   O     0.95419   0.29581   0.20487   0.00000  Uiso   1.00
O279   O     0.54580   0.20419   0.12846   0.00000  Uiso   1.00
O280   O     0.95419   0.20419   0.12846   0.00000  Uiso   1.00
O281   O     0.54580   0.29581   0.20487   0.00000  Uiso   1.00
O282   O     0.54580   0.29581   0.12846   0.00000  Uiso   1.00
O283   O     0.95419   0.20419   0.20487   0.00000  Uiso   1.00
O284   O     0.79580   0.45419   0.20487   0.00000  Uiso   1.00
Zn285  Zn    0.50000   0.25000   0.21771   0.00000  Uiso   1.00
Zn286  Zn    0.50000   0.25000   0.11563   0.00000  Uiso   1.00
Zn287  Zn    0.75000   0.00000   0.21771   0.00000  Uiso   1.00
Zn288  Zn    0.75000   0.00000   0.11563   0.00000  Uiso   1.00
C289   C     0.06012   0.69026   0.16683   0.00000  Uiso   1.00
C290   C     0.49779   0.71019   0.30919   0.00000  Uiso   1.00
C291   C     0.00051   0.71015   0.02428   0.00000  Uiso   1.00
C292   C     0.00251   0.78971   0.30916   0.00000  Uiso   1.00
C293   C     0.25364   0.53959   0.02373   0.00000  Uiso   1.00
C294   C     0.25411   0.96046   0.30969   0.00000  Uiso   1.00
C295   C     0.24644   0.96041   0.02383   0.00000  Uiso   1.00
C296   C     0.24598   0.53955   0.30956   0.00000  Uiso   1.00
C297   C     0.40316   0.62809   0.12938   0.00000  Uiso   1.00
C298   C     0.12364   0.84273   0.20080   0.00000  Uiso   1.00
C299   C     0.09621   0.87255   0.12987   0.00000  Uiso   1.00
C300   C     0.43988   0.80976   0.16676   0.00000  Uiso   1.00
C301   C     0.37764   0.65583   0.20178   0.00000  Uiso   1.00
C302   C     0.09779   0.62900   0.20460   0.00000  Uiso   1.00
C303   C     0.37979   0.84678   0.12964   0.00000  Uiso   1.00
C304   C     0.40103   0.86958   0.20527   0.00000  Uiso   1.00
C305   C     0.12123   0.65460   0.13061   0.00000  Uiso   1.00
C306   C     0.12822   0.90482   0.12998   0.00000  Uiso   1.00
C307   C     0.34691   0.62256   0.20270   0.00000  Uiso   1.00
C308   C     0.37116   0.59583   0.12949   0.00000  Uiso   1.00
C309   C     0.15445   0.87596   0.20176   0.00000  Uiso   1.00
C310   C     0.36911   0.90183   0.20521   0.00000  Uiso   1.00
C311   C     0.43991   0.69024   0.16651   0.00000  Uiso   1.00
C312   C     0.15186   0.62127   0.12972   0.00000  Uiso   1.00
C313   C     0.12968   0.59667   0.20444   0.00000  Uiso   1.00
C314   C     0.34910   0.88004   0.12896   0.00000  Uiso   1.00
C315   C     0.09387   0.84203   0.16566   0.00000  Uiso   1.00
C316   C     0.40636   0.65768   0.16581   0.00000  Uiso   1.00
C317   C     0.40635   0.84240   0.16728   0.00000  Uiso   1.00
C318   C     0.09362   0.65762   0.16746   0.00000  Uiso   1.00
C319   C     0.34333   0.59302   0.16640   0.00000  Uiso   1.00
C320   C     0.15694   0.90667   0.16628   0.00000  Uiso   1.00
C321   C     0.15651   0.59283   0.16683   0.00000  Uiso   1.00
C322   C     0.06015   0.80968   0.16649   0.00000  Uiso   1.00
C323   C     0.34333   0.90703   0.16691   0.00000  Uiso   1.00
C324   C     0.45904   0.85178   0.04520   0.00000  Uiso   1.00
C325   C     0.46083   0.89540   0.01796   0.00000  Uiso   1.00
C326   C     0.45749   0.64724   0.29249   0.00000  Uiso   1.00
C327   C     0.45697   0.60441   0.26427   0.00000  Uiso   1.00
C328   C     0.03870   0.64593   0.04134   0.00000  Uiso   1.00
C329   C     0.03848   0.60400   0.07095   0.00000  Uiso   1.00
C330   C     0.04582   0.85014   0.29232   0.00000  Uiso   1.00
C331   C     0.04839   0.89351   0.26491   0.00000  Uiso   1.00
C332   C     0.25033   0.60984   0.05727   0.00000  Uiso   1.00
C333   C     0.31013   0.94018   0.16672   0.00000  Uiso   1.00
C334   C     0.27501   0.65439   0.05594   0.00000  Uiso   1.00
C335   C     0.25139   0.89051   0.27566   0.00000  Uiso   1.00
C336   C     0.27595   0.84591   0.27711   0.00000  Uiso   1.00
C337   C     0.25000   0.89000   0.05727   0.00000  Uiso   1.00
C338   C     0.22526   0.84549   0.05590   0.00000  Uiso   1.00
C339   C     0.24898   0.60965   0.27564   0.00000  Uiso   1.00
C340   C     0.22430   0.65418   0.27684   0.00000  Uiso   1.00
C341   C     0.18981   0.55978   0.16667   0.00000  Uiso   1.00
C342   C     0.18997   0.94005   0.16662   0.00000  Uiso   1.00
C343   C     0.31012   0.55985   0.16664   0.00000  Uiso   1.00
C344   C     0.49960   0.78985   0.02398   0.00000  Uiso   1.00
H345   H     0.42554   0.62960   0.10135   0.00000  Uiso   1.00
H346   H     0.32597   0.62050   0.23150   0.00000  Uiso   1.00
H347   H     0.36861   0.57277   0.10134   0.00000  Uiso   1.00
H348   H     0.17620   0.87711   0.22995   0.00000  Uiso   1.00
H349   H     0.36502   0.92295   0.23464   0.00000  Uiso   1.00
H350   H     0.17191   0.61829   0.10031   0.00000  Uiso   1.00
H351   H     0.13297   0.57444   0.23320   0.00000  Uiso   1.00
H352   H     0.33001   0.88425   0.09892   0.00000  Uiso   1.00
H353   H     0.45083   0.86235   0.07977   0.00000  Uiso   1.00
H354   H     0.43206   0.82989   0.03280   0.00000  Uiso   1.00
H355   H     0.45772   0.88843   0.31489   0.00000  Uiso   1.00
H356   H     0.12297   0.81784   0.22744   0.00000  Uiso   1.00
H357   H     0.43319   0.91741   0.02749   0.00000  Uiso   1.00
H358   H     0.49148   0.91386   0.02485   0.00000  Uiso   1.00
H359   H     0.42947   0.66877   0.28312   0.00000  Uiso   1.00
H360   H     0.45345   0.63674   0.32802   0.00000  Uiso   1.00
H361   H     0.42499   0.58744   0.26736   0.00000  Uiso   1.00
H362   H     0.46302   0.61251   0.22840   0.00000  Uiso   1.00
H363   H     0.48267   0.58100   0.27616   0.00000  Uiso   1.00
H364   H     0.06748   0.66688   0.04959   0.00000  Uiso   1.00
H365   H     0.04180   0.63427   0.00609   0.00000  Uiso   1.00
H366   H     0.06988   0.58596   0.06782   0.00000  Uiso   1.00
H367   H     0.07309   0.87180   0.10240   0.00000  Uiso   1.00
H368   H     0.03336   0.61339   0.10665   0.00000  Uiso   1.00
H369   H     0.01189   0.58105   0.06034   0.00000  Uiso   1.00
H370   H     0.07235   0.82710   0.28201   0.00000  Uiso   1.00
H371   H     0.05128   0.85941   0.32800   0.00000  Uiso   1.00
H372   H     0.08160   0.90786   0.26709   0.00000  Uiso   1.00
H373   H     0.04038   0.88681   0.22917   0.00000  Uiso   1.00
H374   H     0.02508   0.91874   0.27810   0.00000  Uiso   1.00
H375   H     0.24281   0.60395   0.09296   0.00000  Uiso   1.00
H376   H     0.21968   0.61313   0.03778   0.00000  Uiso   1.00
H377   H     0.28565   0.66250   0.02131   0.00000  Uiso   1.00
H378   H     0.37895   0.67997   0.22902   0.00000  Uiso   1.00
H379   H     0.25380   0.68204   0.06818   0.00000  Uiso   1.00
H380   H     0.30406   0.65240   0.07797   0.00000  Uiso   1.00
H381   H     0.24447   0.89670   0.23989   0.00000  Uiso   1.00
H382   H     0.22045   0.88705   0.29458   0.00000  Uiso   1.00
H383   H     0.25488   0.81841   0.26416   0.00000  Uiso   1.00
H384   H     0.30537   0.84802   0.25572   0.00000  Uiso   1.00
H385   H     0.28599   0.83741   0.31186   0.00000  Uiso   1.00
H386   H     0.25783   0.89566   0.09294   0.00000  Uiso   1.00
H387   H     0.28052   0.88679   0.03765   0.00000  Uiso   1.00
H388   H     0.24657   0.81771   0.06779   0.00000  Uiso   1.00
H389   H     0.07627   0.63132   0.23329   0.00000  Uiso   1.00
H390   H     0.19643   0.84736   0.07820   0.00000  Uiso   1.00
H391   H     0.21423   0.83769   0.02129   0.00000  Uiso   1.00
H392   H     0.25630   0.60362   0.23995   0.00000  Uiso   1.00
H393   H     0.27973   0.61311   0.29496   0.00000  Uiso   1.00
H394   H     0.24542   0.68179   0.26425   0.00000  Uiso   1.00
H395   H     0.19510   0.65205   0.25504   0.00000  Uiso   1.00
H396   H     0.21389   0.66247   0.31149   0.00000  Uiso   1.00
H397   H     0.38303   0.82492   0.10067   0.00000  Uiso   1.00
H398   H     0.42168   0.86624   0.23460   0.00000  Uiso   1.00
H399   H     0.11917   0.67789   0.10265   0.00000  Uiso   1.00
H400   H     0.13004   0.92870   0.10241   0.00000  Uiso   1.00
N401   N     0.00000   0.75000   0.28573   0.00000  Uiso   1.00
N402   N    -0.00000   0.75000   0.04760   0.00000  Uiso   1.00
N403   N     0.25000   0.50000   0.28573   0.00000  Uiso   1.00
N404   N     0.25000   0.50000   0.04760   0.00000  Uiso   1.00
O405   O     0.04580   0.70419   0.20487   0.00000  Uiso   1.00
O406   O     0.20419   0.54581   0.12846   0.00000  Uiso   1.00
O407   O     0.20419   0.54581   0.20487   0.00000  Uiso   1.00
O408   O     0.29580   0.95419   0.12846   0.00000  Uiso   1.00
O409   O     0.20419   0.95419   0.12846   0.00000  Uiso   1.00
O410   O     0.29580   0.54581   0.20487   0.00000  Uiso   1.00
O411   O     0.29580   0.54581   0.12846   0.00000  Uiso   1.00
O412   O     0.20419   0.95419   0.20487   0.00000  Uiso   1.00
O413   O     0.00006   0.83025   0.04740   0.00000  Uiso   1.00
O414   O     0.49696   0.67030   0.28501   0.00000  Uiso   1.00
O415   O     0.49999   0.67031   0.04863   0.00000  Uiso   1.00
O416   O     0.45419   0.79581   0.12846   0.00000  Uiso   1.00
O417   O     0.00492   0.82968   0.28526   0.00000  Uiso   1.00
O418   O     0.27738   0.57484   0.04196   0.00000  Uiso   1.00
O419   O     0.27821   0.92545   0.29166   0.00000  Uiso   1.00
O420   O     0.22285   0.92509   0.04217   0.00000  Uiso   1.00
O421   O     0.22205   0.57464   0.29129   0.00000  Uiso   1.00
O422   O     0.45419   0.79581   0.20487   0.00000  Uiso   1.00
O423   O     0.04580   0.70419   0.12846   0.00000  Uiso   1.00
O424   O     0.45419   0.70419   0.12846   0.00000  Uiso   1.00
O425   O     0.04580   0.79581   0.20487   0.00000  Uiso   1.00
O426   O     0.04580   0.79581   0.12846   0.00000  Uiso   1.00
O427   O     0.45419   0.70419   0.20487   0.00000  Uiso   1.00
O428   O     0.29580   0.95419   0.20487   0.00000  Uiso   1.00
Zn429  Zn   -0.00000   0.75000   0.21771   0.00000  Uiso   1.00
Zn430  Zn    0.00000   0.75000   0.11563   0.00000  Uiso   1.00
Zn431  Zn    0.25000   0.50000   0.21771   0.00000  Uiso   1.00
Zn432  Zn    0.25000   0.50000   0.11563   0.00000  Uiso   1.00
C433   C     0.56012   0.69026   0.16683   0.00000  Uiso   1.00
C434   C     0.99779   0.71019   0.30919   0.00000  Uiso   1.00
C435   C     0.50051   0.71015   0.02428   0.00000  Uiso   1.00
C436   C     0.50251   0.78971   0.30916   0.00000  Uiso   1.00
C437   C     0.75364   0.53959   0.02373   0.00000  Uiso   1.00
C438   C     0.75411   0.96046   0.30969   0.00000  Uiso   1.00
C439   C     0.74644   0.96041   0.02383   0.00000  Uiso   1.00
C440   C     0.74598   0.53955   0.30956   0.00000  Uiso   1.00
C441   C     0.90316   0.62809   0.12938   0.00000  Uiso   1.00
C442   C     0.62364   0.84273   0.20080   0.00000  Uiso   1.00
C443   C     0.59621   0.87255   0.12987   0.00000  Uiso   1.00
C444   C     0.93988   0.80976   0.16676   0.00000  Uiso   1.00
C445   C     0.87764   0.65583   0.20178   0.00000  Uiso   1.00
C446   C     0.59779   0.62900   0.20460   0.00000  Uiso   1.00
C447   C     0.87979   0.84678   0.12964   0.00000  Uiso   1.00
C448   C     0.90103   0.86958   0.20527   0.00000  Uiso   1.00
C449   C     0.62123   0.65460   0.13061   0.00000  Uiso   1.00
C450   C     0.62822   0.90482   0.12998   0.00000  Uiso   1.00
C451   C     0.84691   0.62256   0.20270   0.00000  Uiso   1.00
C452   C     0.87116   0.59583   0.12949   0.00000  Uiso   1.00
C453   C     0.65445   0.87596   0.20176   0.00000  Uiso   1.00
C454   C     0.86911   0.90183   0.20521   0.00000  Uiso   1.00
C455   C     0.93991   0.69024   0.16651   0.00000  Uiso   1.00
C456   C     0.65186   0.62127   0.12972   0.00000  Uiso   1.00
C457   C     0.62968   0.59667   0.20444   0.00000  Uiso   1.00
C458   C     0.84910   0.88004   0.12896   0.00000  Uiso   1.00
C459   C     0.59387   0.84203   0.16566   0.00000  Uiso   1.00
C460   C     0.90636   0.65768   0.16581   0.00000  Uiso   1.00
C461   C     0.90635   0.84240   0.16728   0.00000  Uiso   1.00
C462   C     0.59362   0.65762   0.16746   0.00000  Uiso   1.00
C463   C     0.84333   0.59302   0.16640   0.00000  Uiso   1.00
C464   C     0.65694   0.90667   0.16628   0.00000  Uiso   1.00
C465   C     0.65651   0.59283   0.16683   0.00000  Uiso   1.00
C466   C     0.56015   0.80968   0.16649   0.00000  Uiso   1.00
C467   C     0.84333   0.90703   0.16691   0.00000  Uiso   1.00
C468   C     0.95904   0.85178   0.04520   0.00000  Uiso   1.00
C469   C     0.96083   0.89540   0.01796   0.00000  Uiso   1.00
C470   C     0.95749   0.64724   0.29249   0.00000  Uiso   1.00
C471   C     0.95697   0.60441   0.26427   0.00000  Uiso   1.00
C472   C     0.53870   0.64593   0.04134   0.00000  Uiso   1.00
C473   C     0.53848   0.60400   0.07095   0.00000  Uiso   1.00
C474   C     0.54582   0.85014   0.29232   0.00000  Uiso   1.00
C475   C     0.54839   0.89351   0.26491   0.00000  Uiso   1.00
C476   C     0.75033   0.60984   0.05727   0.00000  Uiso   1.00
C477   C     0.81013   0.94018   0.16672   0.00000  Uiso   1.00
C478   C     0.77501   0.65439   0.05594   0.00000  Uiso   1.00
C479   C     0.75139   0.89051   0.27566   0.00000  Uiso   1.00
C480   C     0.77595   0.84591   0.27711   0.00000  Uiso   1.00
C481   C     0.75000   0.89000   0.05727   0.00000  Uiso   1.00
C482   C     0.72526   0.84549   0.05590   0.00000  Uiso   1.00
C483   C     0.74898   0.60965   0.27564   0.00000  Uiso   1.00
C484   C     0.72430   0.65418   0.27684   0.00000  Uiso   1.00
C485   C     0.68981   0.55978   0.16667   0.00000  Uiso   1.00
C486   C     0.68997   0.94005   0.16662   0.00000  Uiso   1.00
C487   C     0.81012   0.55985   0.16664   0.00000  Uiso   1.00
C488   C     0.99960   0.78985   0.02398   0.00000  Uiso   1.00
H489   H     0.92554   0.62960   0.10135   0.00000  Uiso   1.00
H490   H     0.82597   0.62050   0.23150   0.00000  Uiso   1.00
H491   H     0.86861   0.57277   0.10134   0.00000  Uiso   1.00
H492   H     0.67620   0.87711   0.22995   0.00000  Uiso   1.00
H493   H     0.86502   0.92295   0.23464   0.00000  Uiso   1.00
H494   H     0.67191   0.61829   0.10031   0.00000  Uiso   1.00
H495   H     0.63297   0.57444   0.23320   0.00000  Uiso   1.00
H496   H     0.83001   0.88425   0.09892   0.00000  Uiso   1.00
H497   H     0.95083   0.86235   0.07977   0.00000  Uiso   1.00
H498   H     0.93206   0.82989   0.03280   0.00000  Uiso   1.00
H499   H     0.95772   0.88843   0.31489   0.00000  Uiso   1.00
H500   H     0.62297   0.81784   0.22744   0.00000  Uiso   1.00
H501   H     0.93319   0.91741   0.02749   0.00000  Uiso   1.00
H502   H     0.99148   0.91386   0.02485   0.00000  Uiso   1.00
H503   H     0.92947   0.66877   0.28312   0.00000  Uiso   1.00
H504   H     0.95345   0.63674   0.32802   0.00000  Uiso   1.00
H505   H     0.92499   0.58744   0.26736   0.00000  Uiso   1.00
H506   H     0.96302   0.61251   0.22840   0.00000  Uiso   1.00
H507   H     0.98267   0.58100   0.27616   0.00000  Uiso   1.00
H508   H     0.56748   0.66688   0.04959   0.00000  Uiso   1.00
H509   H     0.54180   0.63427   0.00609   0.00000  Uiso   1.00
H510   H     0.56988   0.58596   0.06782   0.00000  Uiso   1.00
H511   H     0.57309   0.87180   0.10240   0.00000  Uiso   1.00
H512   H     0.53336   0.61339   0.10665   0.00000  Uiso   1.00
H513   H     0.51189   0.58105   0.06034   0.00000  Uiso   1.00
H514   H     0.57235   0.82710   0.28201   0.00000  Uiso   1.00
H515   H     0.55128   0.85941   0.32800   0.00000  Uiso   1.00
H516   H     0.58160   0.90786   0.26709   0.00000  Uiso   1.00
H517   H     0.54038   0.88681   0.22917   0.00000  Uiso   1.00
H518   H     0.52508   0.91874   0.27810   0.00000  Uiso   1.00
H519   H     0.74281   0.60395   0.09296   0.00000  Uiso   1.00
H520   H     0.71968   0.61313   0.03778   0.00000  Uiso   1.00
H521   H     0.78565   0.66250   0.02131   0.00000  Uiso   1.00
H522   H     0.87895   0.67997   0.22902   0.00000  Uiso   1.00
H523   H     0.75380   0.68204   0.06818   0.00000  Uiso   1.00
H524   H     0.80406   0.65240   0.07797   0.00000  Uiso   1.00
H525   H     0.74447   0.89670   0.23989   0.00000  Uiso   1.00
H526   H     0.72045   0.88705   0.29458   0.00000  Uiso   1.00
H527   H     0.75488   0.81841   0.26416   0.00000  Uiso   1.00
H528   H     0.80537   0.84802   0.25572   0.00000  Uiso   1.00
H529   H     0.78599   0.83741   0.31186   0.00000  Uiso   1.00
H530   H     0.75783   0.89566   0.09294   0.00000  Uiso   1.00
H531   H     0.78052   0.88679   0.03765   0.00000  Uiso   1.00
H532   H     0.74657   0.81771   0.06779   0.00000  Uiso   1.00
H533   H     0.57627   0.63132   0.23329   0.00000  Uiso   1.00
H534   H     0.69643   0.84736   0.07820   0.00000  Uiso   1.00
H535   H     0.71423   0.83769   0.02129   0.00000  Uiso   1.00
H536   H     0.75630   0.60362   0.23995   0.00000  Uiso   1.00
H537   H     0.77973   0.61311   0.29496   0.00000  Uiso   1.00
H538   H     0.74542   0.68179   0.26425   0.00000  Uiso   1.00
H539   H     0.69510   0.65205   0.25504   0.00000  Uiso   1.00
H540   H     0.71389   0.66247   0.31149   0.00000  Uiso   1.00
H541   H     0.88303   0.82492   0.10067   0.00000  Uiso   1.00
H542   H     0.92168   0.86624   0.23460   0.00000  Uiso   1.00
H543   H     0.61917   0.67789   0.10265   0.00000  Uiso   1.00
H544   H     0.63004   0.92870   0.10241   0.00000  Uiso   1.00
N545   N     0.50000   0.75000   0.28573   0.00000  Uiso   1.00
N546   N     0.50000   0.75000   0.04760   0.00000  Uiso   1.00
N547   N     0.75000   0.50000   0.28573   0.00000  Uiso   1.00
N548   N     0.75000   0.50000   0.04760   0.00000  Uiso   1.00
O549   O     0.54580   0.70419   0.20487   0.00000  Uiso   1.00
O550   O     0.70419   0.54581   0.12846   0.00000  Uiso   1.00
O551   O     0.70419   0.54581   0.20487   0.00000  Uiso   1.00
O552   O     0.79580   0.95419   0.12846   0.00000  Uiso   1.00
O553   O     0.70419   0.95419   0.12846   0.00000  Uiso   1.00
O554   O     0.79580   0.54581   0.20487   0.00000  Uiso   1.00
O555   O     0.79580   0.54581   0.12846   0.00000  Uiso   1.00
O556   O     0.70419   0.95419   0.20487   0.00000  Uiso   1.00
O557   O     0.50006   0.83025   0.04740   0.00000  Uiso   1.00
O558   O     0.99696   0.67030   0.28501   0.00000  Uiso   1.00
O559   O     0.99999   0.67031   0.04863   0.00000  Uiso   1.00
O560   O     0.95419   0.79581   0.12846   0.00000  Uiso   1.00
O561   O     0.50492   0.82968   0.28526   0.00000  Uiso   1.00
O562   O     0.77738   0.57484   0.04196   0.00000  Uiso   1.00
O563   O     0.77821   0.92545   0.29166   0.00000  Uiso   1.00
O564   O     0.72285   0.92509   0.04217   0.00000  Uiso   1.00
O565   O     0.72205   0.57464   0.29129   0.00000  Uiso   1.00
O566   O     0.95419   0.79581   0.20487   0.00000  Uiso   1.00
O567   O     0.54580   0.70419   0.12846   0.00000  Uiso   1.00
O568   O     0.95419   0.70419   0.12846   0.00000  Uiso   1.00
O569   O     0.54580   0.79581   0.20487   0.00000  Uiso   1.00
O570   O     0.54580   0.79581   0.12846   0.00000  Uiso   1.00
O571   O     0.95419   0.70419   0.20487   0.00000  Uiso   1.00
O572   O     0.79580   0.95419   0.20487   0.00000  Uiso   1.00
Zn573  Zn    0.50000   0.75000   0.21771   0.00000  Uiso   1.00
Zn574  Zn    0.50000   0.75000   0.11563   0.00000  Uiso   1.00
Zn575  Zn    0.75000   0.50000   0.21771   0.00000  Uiso   1.00
Zn576  Zn    0.75000   0.50000   0.11563   0.00000  Uiso   1.00
C577   C     0.06012   0.19026   0.50016   0.00000  Uiso   1.00
C578   C     0.49779   0.21019   0.64252   0.00000  Uiso   1.00
C579   C     0.00051   0.21015   0.35761   0.00000  Uiso   1.00
C580   C     0.00251   0.28971   0.64249   0.00000  Uiso   1.00
C581   C     0.25364   0.03959   0.35706   0.00000  Uiso   1.00
C582   C     0.25411   0.46046   0.64302   0.00000  Uiso   1.00
C583   C     0.24644   0.46041   0.35717   0.00000  Uiso   1.00
C584   C     0.24598   0.03955   0.64290   0.00000  Uiso   1.00
C585   C     0.40316   0.12809   0.46272   0.00000  Uiso   1.00
C586   C     0.12364   0.34273   0.53413   0.00000  Uiso   1.00
C587   C     0.09621   0.37255   0.46320   0.00000  Uiso   1.00
C588   C     0.43988   0.30976   0.50010   0.00000  Uiso   1.00
C589   C     0.37764   0.15583   0.53511   0.00000  Uiso   1.00
C590   C     0.09779   0.12900   0.53793   0.00000  Uiso   1.00
C591   C     0.37979   0.34678   0.46298   0.00000  Uiso   1.00
C592   C     0.40103   0.36958   0.53861   0.00000  Uiso   1.00
C593   C     0.12123   0.15460   0.46395   0.00000  Uiso   1.00
C594   C     0.12822   0.40482   0.46332   0.00000  Uiso   1.00
C595   C     0.34691   0.12256   0.53604   0.00000  Uiso   1.00
C596   C     0.37116   0.09583   0.46282   0.00000  Uiso   1.00
C597   C     0.15445   0.37596   0.53509   0.00000  Uiso   1.00
C598   C     0.36911   0.40183   0.53855   0.00000  Uiso   1.00
C599   C     0.43991   0.19024   0.49984   0.00000  Uiso   1.00
C600   C     0.15186   0.12127   0.46306   0.00000  Uiso   1.00
C601   C     0.12968   0.09667   0.53778   0.00000  Uiso   1.00
C602   C     0.34910   0.38004   0.46229   0.00000  Uiso   1.00
C603   C     0.09387   0.34203   0.49900   0.00000  Uiso   1.00
C604   C     0.40636   0.15768   0.49915   0.00000  Uiso   1.00
C605   C     0.40635   0.34240   0.50061   0.00000  Uiso   1.00
C606   C     0.09362   0.15762   0.50079   0.00000  Uiso   1.00
C607   C     0.34333   0.09302   0.49973   0.00000  Uiso   1.00
C608   C     0.15694   0.40667   0.49961   0.00000  Uiso   1.00
C609   C     0.15651   0.09283   0.50016   0.00000  Uiso   1.00
C610   C     0.06015   0.30968   0.49983   0.00000  Uiso   1.00
C611   C     0.34333   0.40703   0.50024   0.00000  Uiso   1.00
C612   C     0.45904   0.35178   0.37853   0.00000  Uiso   1.00
C613   C     0.46083   0.39540   0.35129   0.00000  Uiso   1.00
C614   C     0.45749   0.14724   0.62582   0.00000  Uiso   1.00
C615   C     0.45697   0.10441   0.59761   0.00000  Uiso   1.00
C616   C     0.03870   0.14593   0.37468   0.00000  Uiso   1.00
C617   C     0.03848   0.10400   0.40428   0.00000  Uiso   1.00
C618   C     0.04582   0.35014   0.62565   0.00000  Uiso   1.00
C619   C     0.04839   0.39351   0.59824   0.00000  Uiso   1.00
C620   C     0.25033   0.10984   0.39061   0.00000  Uiso   1.00
C621   C     0.31013   0.44018   0.50005   0.00000  Uiso   1.00
C622   C     0.27501   0.15439   0.38927   0.00000  Uiso   1.00
C623   C     0.25139   0.39051   0.60899   0.00000  Uiso   1.00
C624   C     0.27595   0.34591   0.61044   0.00000  Uiso   1.00
C625   C     0.25000   0.39000   0.39060   0.00000  Uiso   1.00
C626   C     0.22526   0.34549   0.38923   0.00000  Uiso   1.00
C627   C     0.24898   0.10965   0.60897   0.00000  Uiso   1.00
C628   C     0.22430   0.15418   0.61018   0.00000  Uiso   1.00
C629   C     0.18981   0.05978   0.50000   0.00000  Uiso   1.00
C630   C     0.18997   0.44005   0.49995   0.00000  Uiso   1.00
C631   C     0.31012   0.05985   0.49997   0.00000  Uiso   1.00
C632   C     0.49960   0.28985   0.35732   0.00000  Uiso   1.00
H633   H     0.42554   0.12960   0.43468   0.00000  Uiso   1.00
H634   H     0.32597   0.12050   0.56483   0.00000  Uiso   1.00
H635   H     0.36861   0.07277   0.43467   0.00000  Uiso   1.00
H636   H     0.17620   0.37711   0.56329   0.00000  Uiso   1.00
H637   H     0.36502   0.42295   0.56797   0.00000  Uiso   1.00
H638   H     0.17191   0.11829   0.43364   0.00000  Uiso   1.00
H639   H     0.13297   0.07444   0.56654   0.00000  Uiso   1.00
H640   H     0.33001   0.38425   0.43225   0.00000  Uiso   1.00
H641   H     0.45083   0.36235   0.41310   0.00000  Uiso   1.00
H642   H     0.43206   0.32989   0.36613   0.00000  Uiso   1.00
H643   H     0.45772   0.38843   0.64822   0.00000  Uiso   1.00
H644   H     0.12297   0.31784   0.56078   0.00000  Uiso   1.00
H645   H     0.43319   0.41741   0.36082   0.00000  Uiso   1.00
H646   H     0.49148   0.41386   0.35819   0.00000  Uiso   1.00
H647   H     0.42947   0.16877   0.61646   0.00000  Uiso   1.00
H648   H     0.45345   0.13674   0.66135   0.00000  Uiso   1.00
H649   H     0.42499   0.08744   0.60070   0.00000  Uiso   1.00
H650   H     0.46302   0.11251   0.56173   0.00000  Uiso   1.00
H651   H     0.48267   0.08100   0.60950   0.00000  Uiso   1.00
H652   H     0.06748   0.16688   0.38292   0.00000  Uiso   1.00
H653   H     0.04180   0.13427   0.33942   0.00000  Uiso   1.00
H654   H     0.06988   0.08596   0.40115   0.00000  Uiso   1.00
H655   H     0.07309   0.37180   0.43574   0.00000  Uiso   1.00
H656   H     0.03336   0.11339   0.43998   0.00000  Uiso   1.00
H657   H     0.01189   0.08105   0.39367   0.00000  Uiso   1.00
H658   H     0.07235   0.32710   0.61534   0.00000  Uiso   1.00
H659   H     0.05128   0.35941   0.66134   0.00000  Uiso   1.00
H660   H     0.08160   0.40786   0.60042   0.00000  Uiso   1.00
H661   H     0.04038   0.38681   0.56251   0.00000  Uiso   1.00
H662   H     0.02508   0.41874   0.61143   0.00000  Uiso   1.00
H663   H     0.24281   0.10395   0.42629   0.00000  Uiso   1.00
H664   H     0.21968   0.11313   0.37112   0.00000  Uiso   1.00
H665   H     0.28565   0.16250   0.35464   0.00000  Uiso   1.00
H666   H     0.37895   0.17997   0.56235   0.00000  Uiso   1.00
H667   H     0.25380   0.18204   0.40151   0.00000  Uiso   1.00
H668   H     0.30406   0.15240   0.41131   0.00000  Uiso   1.00
H669   H     0.24447   0.39670   0.57322   0.00000  Uiso   1.00
H670   H     0.22045   0.38705   0.62792   0.00000  Uiso   1.00
H671   H     0.25488   0.31841   0.59750   0.00000  Uiso   1.00
H672   H     0.30537   0.34802   0.58905   0.00000  Uiso   1.00
H673   H     0.28599   0.33741   0.64520   0.00000  Uiso   1.00
H674   H     0.25783   0.39566   0.42627   0.00000  Uiso   1.00
H675   H     0.28052   0.38679   0.37098   0.00000  Uiso   1.00
H676   H     0.24657   0.31771   0.40112   0.00000  Uiso   1.00
H677   H     0.07627   0.13132   0.56662   0.00000  Uiso   1.00
H678   H     0.19643   0.34736   0.41153   0.00000  Uiso   1.00
H679   H     0.21423   0.33769   0.35463   0.00000  Uiso   1.00
H680   H     0.25630   0.10362   0.57329   0.00000  Uiso   1.00
H681   H     0.27973   0.11311   0.62829   0.00000  Uiso   1.00
H682   H     0.24542   0.18179   0.59758   0.00000  Uiso   1.00
H683   H     0.19510   0.15205   0.58837   0.00000  Uiso   1.00
H684   H     0.21389   0.16247   0.64482   0.00000  Uiso   1.00
H685   H     0.38303   0.32492   0.43401   0.00000  Uiso   1.00
H686   H     0.42168   0.36624   0.56794   0.00000  Uiso   1.00
H687   H     0.11917   0.17789   0.43599   0.00000  Uiso   1.00
H688   H     0.13004   0.42870   0.43575   0.00000  Uiso   1.00
N689   N     0.00000   0.25000   0.61907   0.00000  Uiso   1.00
N690   N    -0.00000   0.25000   0.38093   0.00000  Uiso   1.00
N691   N     0.25000   0.00000   0.61907   0.00000  Uiso   1.00
N692   N     0.25000   0.00000   0.38093   0.00000  Uiso   1.00
O693   O     0.04580   0.20419   0.53821   0.00000  Uiso   1.00
O694   O     0.20419   0.04581   0.46179   0.00000  Uiso   1.00
O695   O     0.20419   0.04581   0.53821   0.00000  Uiso   1.00
O696   O     0.29580   0.45419   0.46179   0.00000  Uiso   1.00
O697   O     0.20419   0.45419   0.46179   0.00000  Uiso   1.00
O698   O     0.29580   0.04581   0.53821   0.00000  Uiso   1.00
O699   O     0.29580   0.04581   0.46179   0.00000  Uiso   1.00
O700   O     0.20419   0.45419   0.53821   0.00000  Uiso   1.00
O701   O     0.00006   0.33025   0.38073   0.00000  Uiso   1.00
O702   O     0.49696   0.17030   0.61834   0.00000  Uiso   1.00
O703   O     0.49999   0.17031   0.38197   0.00000  Uiso   1.00
O704   O     0.45419   0.29581   0.46179   0.00000  Uiso   1.00
O705   O     0.00492   0.32968   0.61860   0.00000  Uiso   1.00
O706   O     0.27738   0.07484   0.37529   0.00000  Uiso   1.00
O707   O     0.27821   0.42545   0.62499   0.00000  Uiso   1.00
O708   O     0.22285   0.42509   0.37550   0.00000  Uiso   1.00
O709   O     0.22205   0.07464   0.62462   0.00000  Uiso   1.00
O710   O     0.45419   0.29581   0.53821   0.00000  Uiso   1.00
O711   O     0.04580   0.20419   0.46179   0.00000  Uiso   1.00
O712   O     0.45419   0.20419   0.46179   0.00000  Uiso   1.00
O713   O     0.04580   0.29581   0.53821   0.00000  Uiso   1.00
O714   O     0.04580   0.29581   0.46179   0.00000  Uiso   1.00
O715   O     0.45419   0.20419   0.53821   0.00000  Uiso   1.00
O716   O     0.29580   0.45419   0.53821   0.00000  Uiso   1.00
Zn717  Zn   -0.00000   0.25000   0.55104   0.00000  Uiso   1.00
Zn718  Zn    0.00000   0.25000   0.44896   0.00000  Uiso   1.00
Zn719  Zn    0.25000   0.00000   0.55104   0.00000  Uiso   1.00
Zn720  Zn    0.25000   0.00000   0.44896   0.00000  Uiso   1.00
C721   C     0.56012   0.19026   0.50016   0.00000  Uiso   1.00
C722   C     0.99779   0.21019   0.64252   0.00000  Uiso   1.00
C723   C     0.50051   0.21015   0.35761   0.00000  Uiso   1.00
C724   C     0.50251   0.28971   0.64249   0.00000  Uiso   1.00
C725   C     0.75364   0.03959   0.35706   0.00000  Uiso   1.00
C726   C     0.75411   0.46046   0.64302   0.00000  Uiso   1.00
C727   C     0.74644   0.46041   0.35717   0.00000  Uiso   1.00
C728   C     0.74598   0.03955   0.64290   0.00000  Uiso   1.00
C729   C     0.90316   0.12809   0.46272   0.00000  Uiso   1.00
C730   C     0.62364   0.34273   0.53413   0.00000  Uiso   1.00
C731   C     0.59621   0.37255   0.46320   0.00000  Uiso   1.00
C732   C     0.93988   0.30976   0.50010   0.00000  Uiso   1.00
C733   C     0.87764   0.15583   0.53511   0.00000  Uiso   1.00
C734   C     0.59779   0.12900   0.53793   0.00000  Uiso   1.00
C735   C     0.87979   0.34678   0.46298   0.00000  Uiso   1.00
C736   C     0.90103   0.36958   0.53861   0.00000  Uiso   1.00
C737   C     0.62123   0.15460   0.46395   0.00000  Uiso   1.00
C738   C     0.62822   0.40482   0.46332   0.00000  Uiso   1.00
C739   C     0.84691   0.12256   0.53604   0.00000  Uiso   1.00
C740   C     0.87116   0.09583   0.46282   0.00000  Uiso   1.00
C741   C     0.65445   0.37596   0.53509   0.00000  Uiso   1.00
C742   C     0.86911   0.40183   0.53855   0.00000  Uiso   1.00
C743   C     0.93991   0.19024   0.49984   0.00000  Uiso   1.00
C744   C     0.65186   0.12127   0.46306   0.00000  Uiso   1.00
C745   C     0.62968   0.09667   0.53778   0.00000  Uiso   1.00
C746   C     0.84910   0.38004   0.46229   0.00000  Uiso   1.00
C747   C     0.59387   0.34203   0.49900   0.00000  Uiso   1.00
C748   C     0.90636   0.15768   0.49915   0.00000  Uiso   1.00
C749   C     0.90635   0.34240   0.50061   0.00000  Uiso   1.00
C750   C     0.59362   0.15762   0.50079   0.00000  Uiso   1.00
C751   C     0.84333   0.09302   0.49973   0.00000  Uiso   1.00
C752   C     0.65694   0.40667   0.49961   0.00000  Uiso   1.00
C753   C     0.65651   0.09283   0.50016   0.00000  Uiso   1.00
C754   C     0.56015   0.30968   0.49983   0.00000  Uiso   1.00
C755   C     0.84333   0.40703   0.50024   0.00000  Uiso   1.00
C756   C     0.95904   0.35178   0.37853   0.00000  Uiso   1.00
C757   C     0.96083   0.39540   0.35129   0.00000  Uiso   1.00
C758   C     0.95749   0.14724   0.62582   0.00000  Uiso   1.00
C759   C     0.95697   0.10441   0.59761   0.00000  Uiso   1.00
C760   C     0.53870   0.14593   0.37468   0.00000  Uiso   1.00
C761   C     0.53848   0.10400   0.40428   0.00000  Uiso   1.00
C762   C     0.54582   0.35014   0.62565   0.00000  Uiso   1.00
C763   C     0.54839   0.39351   0.59824   0.00000  Uiso   1.00
C764   C     0.75033   0.10984   0.39061   0.00000  Uiso   1.00
C765   C     0.81013   0.44018   0.50005   0.00000  Uiso   1.00
C766   C     0.77501   0.15439   0.38927   0.00000  Uiso   1.00
C767   C     0.75139   0.39051   0.60899   0.00000  Uiso   1.00
C768   C     0.77595   0.34591   0.61044   0.00000  Uiso   1.00
C769   C     0.75000   0.39000   0.39060   0.00000  Uiso   1.00
C770   C     0.72526   0.34549   0.38923   0.00000  Uiso   1.00
C771   C     0.74898   0.10965   0.60897   0.00000  Uiso   1.00
C772   C     0.72430   0.15418   0.61018   0.00000  Uiso   1.00
C773   C     0.68981   0.05978   0.50000   0.00000  Uiso   1.00
C774   C     0.68997   0.44005   0.49995   0.00000  Uiso   1.00
C775   C     0.81012   0.05985   0.49997   0.00000  Uiso   1.00
C776   C     0.99960   0.28985   0.35732   0.00000  Uiso   1.00
H777   H     0.92554   0.12960   0.43468   0.00000  Uiso   1.00
H778   H     0.82597   0.12050   0.56483   0.00000  Uiso   1.00
H779   H     0.86861   0.07277   0.43467   0.00000  Uiso   1.00
H780   H     0.67620   0.37711   0.56329   0.00000  Uiso   1.00
H781   H     0.86502   0.42295   0.56797   0.00000  Uiso   1.00
H782   H     0.67191   0.11829   0.43364   0.00000  Uiso   1.00
H783   H     0.63297   0.07444   0.56654   0.00000  Uiso   1.00
H784   H     0.83001   0.38425   0.43225   0.00000  Uiso   1.00
H785   H     0.95083   0.36235   0.41310   0.00000  Uiso   1.00
H786   H     0.93206   0.32989   0.36613   0.00000  Uiso   1.00
H787   H     0.95772   0.38843   0.64822   0.00000  Uiso   1.00
H788   H     0.62297   0.31784   0.56078   0.00000  Uiso   1.00
H789   H     0.93319   0.41741   0.36082   0.00000  Uiso   1.00
H790   H     0.99148   0.41386   0.35819   0.00000  Uiso   1.00
H791   H     0.92947   0.16877   0.61646   0.00000  Uiso   1.00
H792   H     0.95345   0.13674   0.66135   0.00000  Uiso   1.00
H793   H     0.92499   0.08744   0.60070   0.00000  Uiso   1.00
H794   H     0.96302   0.11251   0.56173   0.00000  Uiso   1.00
H795   H     0.98267   0.08100   0.60950   0.00000  Uiso   1.00
H796   H     0.56748   0.16688   0.38292   0.00000  Uiso   1.00
H797   H     0.54180   0.13427   0.33942   0.00000  Uiso   1.00
H798   H     0.56988   0.08596   0.40115   0.00000  Uiso   1.00
H799   H     0.57309   0.37180   0.43574   0.00000  Uiso   1.00
H800   H     0.53336   0.11339   0.43998   0.00000  Uiso   1.00
H801   H     0.51189   0.08105   0.39367   0.00000  Uiso   1.00
H802   H     0.57235   0.32710   0.61534   0.00000  Uiso   1.00
H803   H     0.55128   0.35941   0.66134   0.00000  Uiso   1.00
H804   H     0.58160   0.40786   0.60042   0.00000  Uiso   1.00
H805   H     0.54038   0.38681   0.56251   0.00000  Uiso   1.00
H806   H     0.52508   0.41874   0.61143   0.00000  Uiso   1.00
H807   H     0.74281   0.10395   0.42629   0.00000  Uiso   1.00
H808   H     0.71968   0.11313   0.37112   0.00000  Uiso   1.00
H809   H     0.78565   0.16250   0.35464   0.00000  Uiso   1.00
H810   H     0.87895   0.17997   0.56235   0.00000  Uiso   1.00
H811   H     0.75380   0.18204   0.40151   0.00000  Uiso   1.00
H812   H     0.80406   0.15240   0.41131   0.00000  Uiso   1.00
H813   H     0.74447   0.39670   0.57322   0.00000  Uiso   1.00
H814   H     0.72045   0.38705   0.62792   0.00000  Uiso   1.00
H815   H     0.75488   0.31841   0.59750   0.00000  Uiso   1.00
H816   H     0.80537   0.34802   0.58905   0.00000  Uiso   1.00
H817   H     0.78599   0.33741   0.64520   0.00000  Uiso   1.00
H818   H     0.75783   0.39566   0.42627   0.00000  Uiso   1.00
H819   H     0.78052   0.38679   0.37098   0.00000  Uiso   1.00
H820   H     0.74657   0.31771   0.40112   0.00000  Uiso   1.00
H821   H     0.57627   0.13132   0.56662   0.00000  Uiso   1.00
H822   H     0.69643   0.34736   0.41153   0.00000  Uiso   1.00
H823   H     0.71423   0.33769   0.35463   0.00000  Uiso   1.00
H824   H     0.75630   0.10362   0.57329   0.00000  Uiso   1.00
H825   H     0.77973   0.11311   0.62829   0.00000  Uiso   1.00
H826   H     0.74542   0.18179   0.59758   0.00000  Uiso   1.00
H827   H     0.69510   0.15205   0.58837   0.00000  Uiso   1.00
H828   H     0.71389   0.16247   0.64482   0.00000  Uiso   1.00
H829   H     0.88303   0.32492   0.43401   0.00000  Uiso   1.00
H830   H     0.92168   0.36624   0.56794   0.00000  Uiso   1.00
H831   H     0.61917   0.17789   0.43599   0.00000  Uiso   1.00
H832   H     0.63004   0.42870   0.43575   0.00000  Uiso   1.00
N833   N     0.50000   0.25000   0.61907   0.00000  Uiso   1.00
N834   N     0.50000   0.25000   0.38093   0.00000  Uiso   1.00
N835   N     0.75000   0.00000   0.61907   0.00000  Uiso   1.00
N836   N     0.75000   0.00000   0.38093   0.00000  Uiso   1.00
O837   O     0.54580   0.20419   0.53821   0.00000  Uiso   1.00
O838   O     0.70419   0.04581   0.46179   0.00000  Uiso   1.00
O839   O     0.70419   0.04581   0.53821   0.00000  Uiso   1.00
O840   O     0.79580   0.45419   0.46179   0.00000  Uiso   1.00
O841   O     0.70419   0.45419   0.46179   0.00000  Uiso   1.00
O842   O     0.79580   0.04581   0.53821   0.00000  Uiso   1.00
O843   O     0.79580   0.04581   0.46179   0.00000  Uiso   1.00
O844   O     0.70419   0.45419   0.53821   0.00000  Uiso   1.00
O845   O     0.50006   0.33025   0.38073   0.00000  Uiso   1.00
O846   O     0.99696   0.17030   0.61834   0.00000  Uiso   1.00
O847   O     0.99999   0.17031   0.38197   0.00000  Uiso   1.00
O848   O     0.95419   0.29581   0.46179   0.00000  Uiso   1.00
O849   O     0.50492   0.32968   0.61860   0.00000  Uiso   1.00
O850   O     0.77738   0.07484   0.37529   0.00000  Uiso   1.00
O851   O     0.77821   0.42545   0.62499   0.00000  Uiso   1.00
O852   O     0.72285   0.42509   0.37550   0.00000  Uiso   1.00
O853   O     0.72205   0.07464   0.62462   0.00000  Uiso   1.00
O854   O     0.95419   0.29581   0.53821   0.00000  Uiso   1.00
O855   O     0.54580   0.20419   0.46179   0.00000  Uiso   1.00
O856   O     0.95419   0.20419   0.46179   0.00000  Uiso   1.00
O857   O     0.54580   0.29581   0.53821   0.00000  Uiso   1.00
O858   O     0.54580   0.29581   0.46179   0.00000  Uiso   1.00
O859   O     0.95419   0.20419   0.53821   0.00000  Uiso   1.00
O860   O     0.79580   0.45419   0.53821   0.00000  Uiso   1.00
Zn861  Zn    0.50000   0.25000   0.55104   0.00000  Uiso   1.00
Zn862  Zn    0.50000   0.25000   0.44896   0.00000  Uiso   1.00
Zn863  Zn    0.75000   0.00000   0.55104   0.00000  Uiso   1.00
Zn864  Zn    0.75000   0.00000   0.44896   0.00000  Uiso   1.00
C865   C     0.06012   0.69026   0.50016   0.00000  Uiso   1.00
C866   C     0.49779   0.71019   0.64252   0.00000  Uiso   1.00
C867   C     0.00051   0.71015   0.35761   0.00000  Uiso   1.00
C868   C     0.00251   0.78971   0.64249   0.00000  Uiso   1.00
C869   C     0.25364   0.53959   0.35706   0.00000  Uiso   1.00
C870   C     0.25411   0.96046   0.64302   0.00000  Uiso   1.00
C871   C     0.24644   0.96041   0.35717   0.00000  Uiso   1.00
C872   C     0.24598   0.53955   0.64290   0.00000  Uiso   1.00
C873   C     0.40316   0.62809   0.46272   0.00000  Uiso   1.00
C874   C     0.12364   0.84273   0.53413   0.00000  Uiso   1.00
C875   C     0.09621   0.87255   0.46320   0.00000  Uiso   1.00
C876   C     0.43988   0.80976   0.50010   0.00000  Uiso   1.00
C877   C     0.37764   0.65583   0.53511   0.00000  Uiso   1.00
C878   C     0.09779   0.62900   0.53793   0.00000  Uiso   1.00
C879   C     0.37979   0.84678   0.46298   0.00000  Uiso   1.00
C880   C     0.40103   0.86958   0.53861   0.00000  Uiso   1.00
C881   C     0.12123   0.65460   0.46395   0.00000  Uiso   1.00
C882   C     0.12822   0.90482   0.46332   0.00000  Uiso   1.00
C883   C     0.34691   0.62256   0.53604   0.00000  Uiso   1.00
C884   C     0.37116   0.59583   0.46282   0.00000  Uiso   1.00
C885   C     0.15445   0.87596   0.53509   0.00000  Uiso   1.00
C886   C     0.36911   0.90183   0.53855   0.00000  Uiso   1.00
C887   C     0.43991   0.69024   0.49984   0.00000  Uiso   1.00
C888   C     0.15186   0.62127   0.46306   0.00000  Uiso   1.00
C889   C     0.12968   0.59667   0.53778   0.00000  Uiso   1.00
C890   C     0.34910   0.88004   0.46229   0.00000  Uiso   1.00
C891   C     0.09387   0.84203   0.49900   0.00000  Uiso   1.00
C892   C     0.40636   0.65768   0.49915   0.00000  Uiso   1.00
C893   C     0.40635   0.84240   0.50061   0.00000  Uiso   1.00
C894   C     0.09362   0.65762   0.50079   0.00000  Uiso   1.00
C895   C     0.34333   0.59302   0.49973   0.00000  Uiso   1.00
C896   C     0.15694   0.90667   0.49961   0.00000  Uiso   1.00
C897   C     0.15651   0.59283   0.50016   0.00000  Uiso   1.00
C898   C     0.06015   0.80968   0.49983   0.00000  Uiso   1.00
C899   C     0.34333   0.90703   0.50024   0.00000  Uiso   1.00
C900   C     0.45904   0.85178   0.37853   0.00000  Uiso   1.00
C901   C     0.46083   0.89540   0.35129   0.00000  Uiso   1.00
C902   C     0.45749   0.64724   0.62582   0.00000  Uiso   1.00
C903   C     0.45697   0.60441   0.59761   0.00000  Uiso   1.00
C904   C     0.03870   0.64593   0.37468   0.00000  Uiso   1.00
C905   C     0.03848   0.60400   0.40428   0.00000  Uiso   1.00
C906   C     0.04582   0.85014   0.62565   0.00000  Uiso   1.00
C907   C     0.04839   0.89351   0.59824   0.00000  Uiso   1.00
C908   C     0.25033   0.60984   0.39061   0.00000  Uiso   1.00
C909   C     0.31013   0.94018   0.50005   0.00000  Uiso   1.00
C910   C     0.27501   0.65439   0.38927   0.00000  Uiso   1.00
C911   C     0.25139   0.89051   0.60899   0.00000  Uiso   1.00
C912   C     0.27595   0.84591   0.61044   0.00000  Uiso   1.00
C913   C     0.25000   0.89000   0.39060   0.00000  Uiso   1.00
C914   C     0.22526   0.84549   0.38923   0.00000  Uiso   1.00
C915   C     0.24898   0.60965   0.60897   0.00000  Uiso   1.00
C916   C     0.22430   0.65418   0.61018   0.00000  Uiso   1.00
C917   C     0.18981   0.55978   0.50000   0.00000  Uiso   1.00
C918   C     0.18997   0.94005   0.49995   0.00000  Uiso   1.00
C919   C     0.31012   0.55985   0.49997   0.00000  Uiso   1.00
C920   C     0.49960   0.78985   0.35732   0.00000  Uiso   1.00
H921   H     0.42554   0.62960   0.43468   0.00000  Uiso   1.00
H922   H     0.32597   0.62050   0.56483   0.00000  Uiso   1.00
H923   H     0.36861   0.57277   0.43467   0.00000  Uiso   1.00
H924   H     0.17620   0.87711   0.56329   0.00000  Uiso   1.00
H925   H     0.36502   0.92295   0.56797   0.00000  Uiso   1.00
H926   H     0.17191   0.61829   0.43364   0.00000  Uiso   1.00
H927   H     0.13297   0.57444   0.56654   0.00000  Uiso   1.00
H928   H     0.33001   0.88425   0.43225   0.00000  Uiso   1.00
H929   H     0.45083   0.86235   0.41310   0.00000  Uiso   1.00
H930   H     0.43206   0.82989   0.36613   0.00000  Uiso   1.00
H931   H     0.45772   0.88843   0.64822   0.00000  Uiso   1.00
H932   H     0.12297   0.81784   0.56078   0.00000  Uiso   1.00
H933   H     0.43319   0.91741   0.36082   0.00000  Uiso   1.00
H934   H     0.49148   0.91386   0.35819   0.00000  Uiso   1.00
H935   H     0.42947   0.66877   0.61646   0.00000  Uiso   1.00
H936   H     0.45345   0.63674   0.66135   0.00000  Uiso   1.00
H937   H     0.42499   0.58744   0.60070   0.00000  Uiso   1.00
H938   H     0.46302   0.61251   0.56173   0.00000  Uiso   1.00
H939   H     0.48267   0.58100   0.60950   0.00000  Uiso   1.00
H940   H     0.06748   0.66688   0.38292   0.00000  Uiso   1.00
H941   H     0.04180   0.63427   0.33942   0.00000  Uiso   1.00
H942   H     0.06988   0.58596   0.40115   0.00000  Uiso   1.00
H943   H     0.07309   0.87180   0.43574   0.00000  Uiso   1.00
H944   H     0.03336   0.61339   0.43998   0.00000  Uiso   1.00
H945   H     0.01189   0.58105   0.39367   0.00000  Uiso   1.00
H946   H     0.07235   0.82710   0.61534   0.00000  Uiso   1.00
H947   H     0.05128   0.85941   0.66134   0.00000  Uiso   1.00
H948   H     0.08160   0.90786   0.60042   0.00000  Uiso   1.00
H949   H     0.04038   0.88681   0.56251   0.00000  Uiso   1.00
H950   H     0.02508   0.91874   0.61143   0.00000  Uiso   1.00
H951   H     0.24281   0.60395   0.42629   0.00000  Uiso   1.00
H952   H     0.21968   0.61313   0.37112   0.00000  Uiso   1.00
H953   H     0.28565   0.66250   0.35464   0.00000  Uiso   1.00
H954   H     0.37895   0.67997   0.56235   0.00000  Uiso   1.00
H955   H     0.25380   0.68204   0.40151   0.00000  Uiso   1.00
H956   H     0.30406   0.65240   0.41131   0.00000  Uiso   1.00
H957   H     0.24447   0.89670   0.57322   0.00000  Uiso   1.00
H958   H     0.22045   0.88705   0.62792   0.00000  Uiso   1.00
H959   H     0.25488   0.81841   0.59750   0.00000  Uiso   1.00
H960   H     0.30537   0.84802   0.58905   0.00000  Uiso   1.00
H961   H     0.28599   0.83741   0.64520   0.00000  Uiso   1.00
H962   H     0.25783   0.89566   0.42627   0.00000  Uiso   1.00
H963   H     0.28052   0.88679   0.37098   0.00000  Uiso   1.00
H964   H     0.24657   0.81771   0.40112   0.00000  Uiso   1.00
H965   H     0.07627   0.63132   0.56662   0.00000  Uiso   1.00
H966   H     0.19643   0.84736   0.41153   0.00000  Uiso   1.00
H967   H     0.21423   0.83769   0.35463   0.00000  Uiso   1.00
H968   H     0.25630   0.60362   0.57329   0.00000  Uiso   1.00
H969   H     0.27973   0.61311   0.62829   0.00000  Uiso   1.00
H970   H     0.24542   0.68179   0.59758   0.00000  Uiso   1.00
H971   H     0.19510   0.65205   0.58837   0.00000  Uiso   1.00
H972   H     0.21389   0.66247   0.64482   0.00000  Uiso   1.00
H973   H     0.38303   0.82492   0.43401   0.00000  Uiso   1.00
H974   H     0.42168   0.86624   0.56794   0.00000  Uiso   1.00
H975   H     0.11917   0.67789   0.43599   0.00000  Uiso   1.00
H976   H     0.13004   0.92870   0.43575   0.00000  Uiso   1.00
N977   N     0.00000   0.75000   0.61907   0.00000  Uiso   1.00
N978   N    -0.00000   0.75000   0.38093   0.00000  Uiso   1.00
N979   N     0.25000   0.50000   0.61907   0.00000  Uiso   1.00
N980   N     0.25000   0.50000   0.38093   0.00000  Uiso   1.00
O981   O     0.04580   0.70419   0.53821   0.00000  Uiso   1.00
O982   O     0.20419   0.54581   0.46179   0.00000  Uiso   1.00
O983   O     0.20419   0.54581   0.53821   0.00000  Uiso   1.00
O984   O     0.29580   0.95419   0.46179   0.00000  Uiso   1.00
O985   O     0.20419   0.95419   0.46179   0.00000  Uiso   1.00
O986   O     0.29580   0.54581   0.53821   0.00000  Uiso   1.00
O987   O     0.29580   0.54581   0.46179   0.00000  Uiso   1.00
O988   O     0.20419   0.95419   0.53821   0.00000  Uiso   1.00
O989   O     0.00006   0.83025   0.38073   0.00000  Uiso   1.00
O990   O     0.49696   0.67030   0.61834   0.00000  Uiso   1.00
O991   O     0.49999   0.67031   0.38197   0.00000  Uiso   1.00
O992   O     0.45419   0.79581   0.46179   0.00000  Uiso   1.00
O993   O     0.00492   0.82968   0.61860   0.00000  Uiso   1.00
O994   O     0.27738   0.57484   0.37529   0.00000  Uiso   1.00
O995   O     0.27821   0.92545   0.62499   0.00000  Uiso   1.00
O996   O     0.22285   0.92509   0.37550   0.00000  Uiso   1.00
O997   O     0.22205   0.57464   0.62462   0.00000  Uiso   1.00
O998   O     0.45419   0.79581   0.53821   0.00000  Uiso   1.00
O999   O     0.04580   0.70419   0.46179   0.00000  Uiso   1.00
O1000  O     0.45419   0.70419   0.46179   0.00000  Uiso   1.00
O1001  O     0.04580   0.79581   0.53821   0.00000  Uiso   1.00
O1002  O     0.04580   0.79581   0.46179   0.00000  Uiso   1.00
O1003  O     0.45419   0.70419   0.53821   0.00000  Uiso   1.00
O1004  O     0.29580   0.95419   0.53821   0.00000  Uiso   1.00
Zn1005 Zn   -0.00000   0.75000   0.55104   0.00000  Uiso   1.00
Zn1006 Zn    0.00000   0.75000   0.44896   0.00000  Uiso   1.00
Zn1007 Zn    0.25000   0.50000   0.55104   0.00000  Uiso   1.00
Zn1008 Zn    0.25000   0.50000   0.44896   0.00000  Uiso   1.00
C1009  C     0.56012   0.69026   0.50016   0.00000  Uiso   1.00
C1010  C     0.99779   0.71019   0.64252   0.00000  Uiso   1.00
C1011  C     0.50051   0.71015   0.35761   0.00000  Uiso   1.00
C1012  C     0.50251   0.78971   0.64249   0.00000  Uiso   1.00
C1013  C     0.75364   0.53959   0.35706   0.00000  Uiso   1.00
C1014  C     0.75411   0.96046   0.64302   0.00000  Uiso   1.00
C1015  C     0.74644   0.96041   0.35717   0.00000  Uiso   1.00
C1016  C     0.74598   0.53955   0.64290   0.00000  Uiso   1.00
C1017  C     0.90316   0.62809   0.46272   0.00000  Uiso   1.00
C1018  C     0.62364   0.84273   0.53413   0.00000  Uiso   1.00
C1019  C     0.59621   0.87255   0.46320   0.00000  Uiso   1.00
C1020  C     0.93988   0.80976   0.50010   0.00000  Uiso   1.00
C1021  C     0.87764   0.65583   0.53511   0.00000  Uiso   1.00
C1022  C     0.59779   0.62900   0.53793   0.00000  Uiso   1.00
C1023  C     0.87979   0.84678   0.46298   0.00000  Uiso   1.00
C1024  C     0.90103   0.86958   0.53861   0.00000  Uiso   1.00
C1025  C     0.62123   0.65460   0.46395   0.00000  Uiso   1.00
C1026  C     0.62822   0.90482   0.46332   0.00000  Uiso   1.00
C1027  C     0.84691   0.62256   0.53604   0.00000  Uiso   1.00
C1028  C     0.87116   0.59583   0.46282   0.00000  Uiso   1.00
C1029  C     0.65445   0.87596   0.53509   0.00000  Uiso   1.00
C1030  C     0.86911   0.90183   0.53855   0.00000  Uiso   1.00
C1031  C     0.93991   0.69024   0.49984   0.00000  Uiso   1.00
C1032  C     0.65186   0.62127   0.46306   0.00000  Uiso   1.00
C1033  C     0.62968   0.59667   0.53778   0.00000  Uiso   1.00
C1034  C     0.84910   0.88004   0.46229   0.00000  Uiso   1.00
C1035  C     0.59387   0.84203   0.49900   0.00000  Uiso   1.00
C1036  C     0.90636   0.65768   0.49915   0.00000  Uiso   1.00
C1037  C     0.90635   0.84240   0.50061   0.00000  Uiso   1.00
C1038  C     0.59362   0.65762   0.50079   0.00000  Uiso   1.00
C1039  C     0.84333   0.59302   0.49973   0.00000  Uiso   1.00
C1040  C     0.65694   0.90667   0.49961   0.00000  Uiso   1.00
C1041  C     0.65651   0.59283   0.50016   0.00000  Uiso   1.00
C1042  C     0.56015   0.80968   0.49983   0.00000  Uiso   1.00
C1043  C     0.84333   0.90703   0.50024   0.00000  Uiso   1.00
C1044  C     0.95904   0.85178   0.37853   0.00000  Uiso   1.00
C1045  C     0.96083   0.89540   0.35129   0.00000  Uiso   1.00
C1046  C     0.95749   0.64724   0.62582   0.00000  Uiso   1.00
C1047  C     0.95697   0.60441   0.59761   0.00000  Uiso   1.00
C1048  C     0.53870   0.64593   0.37468   0.00000  Uiso   1.00
C1049  C     0.53848   0.60400   0.40428   0.00000  Uiso   1.00
C1050  C     0.54582   0.85014   0.62565   0.00000  Uiso   1.00
C1051  C     0.54839   0.89351   0.59824   0.00000  Uiso   1.00
C1052  C     0.75033   0.60984   0.39061   0.00000  Uiso   1.00
C1053  C     0.81013   0.94018   0.50005   0.00000  Uiso   1.00
C1054  C     0.77501   0.65439   0.38927   0.00000  Uiso   1.00
C1055  C     0.75139   0.89051   0.60899   0.00000  Uiso   1.00
C1056  C     0.77595   0.84591   0.61044   0.00000  Uiso   1.00
C1057  C     0.75000   0.89000   0.39060   0.00000  Uiso   1.00
C1058  C     0.72526   0.84549   0.38923   0.00000  Uiso   1.00
C1059  C     0.74898   0.60965   0.60897   0.00000  Uiso   1.00
C1060  C     0.72430   0.65418   0.61018   0.00000  Uiso   1.00
C1061  C     0.68981   0.55978   0.50000   0.00000  Uiso   1.00
C1062  C     0.68997   0.94005   0.49995   0.00000  Uiso   1.00
C1063  C     0.81012   0.55985   0.49997   0.00000  Uiso   1.00
C1064  C     0.99960   0.78985   0.35732   0.00000  Uiso   1.00
H1065  H     0.92554   0.62960   0.43468   0.00000  Uiso   1.00
H1066  H     0.82597   0.62050   0.56483   0.00000  Uiso   1.00
H1067  H     0.86861   0.57277   0.43467   0.00000  Uiso   1.00
H1068  H     0.67620   0.87711   0.56329   0.00000  Uiso   1.00
H1069  H     0.86502   0.92295   0.56797   0.00000  Uiso   1.00
H1070  H     0.67191   0.61829   0.43364   0.00000  Uiso   1.00
H1071  H     0.63297   0.57444   0.56654   0.00000  Uiso   1.00
H1072  H     0.83001   0.88425   0.43225   0.00000  Uiso   1.00
H1073  H     0.95083   0.86235   0.41310   0.00000  Uiso   1.00
H1074  H     0.93206   0.82989   0.36613   0.00000  Uiso   1.00
H1075  H     0.95772   0.88843   0.64822   0.00000  Uiso   1.00
H1076  H     0.62297   0.81784   0.56078   0.00000  Uiso   1.00
H1077  H     0.93319   0.91741   0.36082   0.00000  Uiso   1.00
H1078  H     0.99148   0.91386   0.35819   0.00000  Uiso   1.00
H1079  H     0.92947   0.66877   0.61646   0.00000  Uiso   1.00
H1080  H     0.95345   0.63674   0.66135   0.00000  Uiso   1.00
H1081  H     0.92499   0.58744   0.60070   0.00000  Uiso   1.00
H1082  H     0.96302   0.61251   0.56173   0.00000  Uiso   1.00
H1083  H     0.98267   0.58100   0.60950   0.00000  Uiso   1.00
H1084  H     0.56748   0.66688   0.38292   0.00000  Uiso   1.00
H1085  H     0.54180   0.63427   0.33942   0.00000  Uiso   1.00
H1086  H     0.56988   0.58596   0.40115   0.00000  Uiso   1.00
H1087  H     0.57309   0.87180   0.43574   0.00000  Uiso   1.00
H1088  H     0.53336   0.61339   0.43998   0.00000  Uiso   1.00
H1089  H     0.51189   0.58105   0.39367   0.00000  Uiso   1.00
H1090  H     0.57235   0.82710   0.61534   0.00000  Uiso   1.00
H1091  H     0.55128   0.85941   0.66134   0.00000  Uiso   1.00
H1092  H     0.58160   0.90786   0.60042   0.00000  Uiso   1.00
H1093  H     0.54038   0.88681   0.56251   0.00000  Uiso   1.00
H1094  H     0.52508   0.91874   0.61143   0.00000  Uiso   1.00
H1095  H     0.74281   0.60395   0.42629   0.00000  Uiso   1.00
H1096  H     0.71968   0.61313   0.37112   0.00000  Uiso   1.00
H1097  H     0.78565   0.66250   0.35464   0.00000  Uiso   1.00
H1098  H     0.87895   0.67997   0.56235   0.00000  Uiso   1.00
H1099  H     0.75380   0.68204   0.40151   0.00000  Uiso   1.00
H1100  H     0.80406   0.65240   0.41131   0.00000  Uiso   1.00
H1101  H     0.74447   0.89670   0.57322   0.00000  Uiso   1.00
H1102  H     0.72045   0.88705   0.62792   0.00000  Uiso   1.00
H1103  H     0.75488   0.81841   0.59750   0.00000  Uiso   1.00
H1104  H     0.80537   0.84802   0.58905   0.00000  Uiso   1.00
H1105  H     0.78599   0.83741   0.64520   0.00000  Uiso   1.00
H1106  H     0.75783   0.89566   0.42627   0.00000  Uiso   1.00
H1107  H     0.78052   0.88679   0.37098   0.00000  Uiso   1.00
H1108  H     0.74657   0.81771   0.40112   0.00000  Uiso   1.00
H1109  H     0.57627   0.63132   0.56662   0.00000  Uiso   1.00
H1110  H     0.69643   0.84736   0.41153   0.00000  Uiso   1.00
H1111  H     0.71423   0.83769   0.35463   0.00000  Uiso   1.00
H1112  H     0.75630   0.60362   0.57329   0.00000  Uiso   1.00
H1113  H     0.77973   0.61311   0.62829   0.00000  Uiso   1.00
H1114  H     0.74542   0.68179   0.59758   0.00000  Uiso   1.00
H1115  H     0.69510   0.65205   0.58837   0.00000  Uiso   1.00
H1116  H     0.71389   0.66247   0.64482   0.00000  Uiso   1.00
H1117  H     0.88303   0.82492   0.43401   0.00000  Uiso   1.00
H1118  H     0.92168   0.86624   0.56794   0.00000  Uiso   1.00
H1119  H     0.61917   0.67789   0.43599   0.00000  Uiso   1.00
H1120  H     0.63004   0.92870   0.43575   0.00000  Uiso   1.00
N1121  N     0.50000   0.75000   0.61907   0.00000  Uiso   1.00
N1122  N     0.50000   0.75000   0.38093   0.00000  Uiso   1.00
N1123  N     0.75000   0.50000   0.61907   0.00000  Uiso   1.00
N1124  N     0.75000   0.50000   0.38093   0.00000  Uiso   1.00
O1125  O     0.54580   0.70419   0.53821   0.00000  Uiso   1.00
O1126  O     0.70419   0.54581   0.46179   0.00000  Uiso   1.00
O1127  O     0.70419   0.54581   0.53821   0.00000  Uiso   1.00
O1128  O     0.79580   0.95419   0.46179   0.00000  Uiso   1.00
O1129  O     0.70419   0.95419   0.46179   0.00000  Uiso   1.00
O1130  O     0.79580   0.54581   0.53821   0.00000  Uiso   1.00
O1131  O     0.79580   0.54581   0.46179   0.00000  Uiso   1.00
O1132  O     0.70419   0.95419   0.53821   0.00000  Uiso   1.00
O1133  O     0.50006   0.83025   0.38073   0.00000  Uiso   1.00
O1134  O     0.99696   0.67030   0.61834   0.00000  Uiso   1.00
O1135  O     0.99999   0.67031   0.38197   0.00000  Uiso   1.00
O1136  O     0.95419   0.79581   0.46179   0.00000  Uiso   1.00
O1137  O     0.50492   0.82968   0.61860   0.00000  Uiso   1.00
O1138  O     0.77738   0.57484   0.37529   0.00000  Uiso   1.00
O1139  O     0.77821   0.92545   0.62499   0.00000  Uiso   1.00
O1140  O     0.72285   0.92509   0.37550   0.00000  Uiso   1.00
O1141  O     0.72205   0.57464   0.62462   0.00000  Uiso   1.00
O1142  O     0.95419   0.79581   0.53821   0.00000  Uiso   1.00
O1143  O     0.54580   0.70419   0.46179   0.00000  Uiso   1.00
O1144  O     0.95419   0.70419   0.46179   0.00000  Uiso   1.00
O1145  O     0.54580   0.79581   0.53821   0.00000  Uiso   1.00
O1146  O     0.54580   0.79581   0.46179   0.00000  Uiso   1.00
O1147  O     0.95419   0.70419   0.53821   0.00000  Uiso   1.00
O1148  O     0.79580   0.95419   0.53821   0.00000  Uiso   1.00
Zn1149 Zn    0.50000   0.75000   0.55104   0.00000  Uiso   1.00
Zn1150 Zn    0.50000   0.75000   0.44896   0.00000  Uiso   1.00
Zn1151 Zn    0.75000   0.50000   0.55104   0.00000  Uiso   1.00
Zn1152 Zn    0.75000   0.50000   0.44896   0.00000  Uiso   1.00
C1153  C     0.06012   0.19026   0.83350   0.00000  Uiso   1.00
C1154  C     0.49779   0.21019   0.97586   0.00000  Uiso   1.00
C1155  C     0.00051   0.21015   0.69095   0.00000  Uiso   1.00
C1156  C     0.00251   0.28971   0.97582   0.00000  Uiso   1.00
C1157  C     0.25364   0.03959   0.69039   0.00000  Uiso   1.00
C1158  C     0.25411   0.46046   0.97636   0.00000  Uiso   1.00
C1159  C     0.24644   0.46041   0.69050   0.00000  Uiso   1.00
C1160  C     0.24598   0.03955   0.97623   0.00000  Uiso   1.00
C1161  C     0.40316   0.12809   0.79605   0.00000  Uiso   1.00
C1162  C     0.12364   0.34273   0.86746   0.00000  Uiso   1.00
C1163  C     0.09621   0.37255   0.79654   0.00000  Uiso   1.00
C1164  C     0.43988   0.30976   0.83343   0.00000  Uiso   1.00
C1165  C     0.37764   0.15583   0.86845   0.00000  Uiso   1.00
C1166  C     0.09779   0.12900   0.87126   0.00000  Uiso   1.00
C1167  C     0.37979   0.34678   0.79631   0.00000  Uiso   1.00
C1168  C     0.40103   0.36958   0.87194   0.00000  Uiso   1.00
C1169  C     0.12123   0.15460   0.79728   0.00000  Uiso   1.00
C1170  C     0.12822   0.40482   0.79665   0.00000  Uiso   1.00
C1171  C     0.34691   0.12256   0.86937   0.00000  Uiso   1.00
C1172  C     0.37116   0.09583   0.79616   0.00000  Uiso   1.00
C1173  C     0.15445   0.37596   0.86842   0.00000  Uiso   1.00
C1174  C     0.36911   0.40183   0.87188   0.00000  Uiso   1.00
C1175  C     0.43991   0.19024   0.83317   0.00000  Uiso   1.00
C1176  C     0.15186   0.12127   0.79639   0.00000  Uiso   1.00
C1177  C     0.12968   0.09667   0.87111   0.00000  Uiso   1.00
C1178  C     0.34910   0.38004   0.79562   0.00000  Uiso   1.00
C1179  C     0.09387   0.34203   0.83233   0.00000  Uiso   1.00
C1180  C     0.40636   0.15768   0.83248   0.00000  Uiso   1.00
C1181  C     0.40635   0.34240   0.83395   0.00000  Uiso   1.00
C1182  C     0.09362   0.15762   0.83412   0.00000  Uiso   1.00
C1183  C     0.34333   0.09302   0.83307   0.00000  Uiso   1.00
C1184  C     0.15694   0.40667   0.83294   0.00000  Uiso   1.00
C1185  C     0.15651   0.09283   0.83349   0.00000  Uiso   1.00
C1186  C     0.06015   0.30968   0.83316   0.00000  Uiso   1.00
C1187  C     0.34333   0.40703   0.83358   0.00000  Uiso   1.00
C1188  C     0.45904   0.35178   0.71187   0.00000  Uiso   1.00
C1189  C     0.46083   0.39540   0.68463   0.00000  Uiso   1.00
C1190  C     0.45749   0.14724   0.95915   0.00000  Uiso   1.00
C1191  C     0.45697   0.10441   0.93094   0.00000  Uiso   1.00
C1192  C     0.03870   0.14593   0.70801   0.00000  Uiso   1.00
C1193  C     0.03848   0.10400   0.73762   0.00000  Uiso   1.00
C1194  C     0.04582   0.35014   0.95899   0.00000  Uiso   1.00
C1195  C     0.04839   0.39351   0.93157   0.00000  Uiso   1.00
C1196  C     0.25033   0.10984   0.72394   0.00000  Uiso   1.00
C1197  C     0.31013   0.44018   0.83339   0.00000  Uiso   1.00
C1198  C     0.27501   0.15439   0.72261   0.00000  Uiso   1.00
C1199  C     0.25139   0.39051   0.94232   0.00000  Uiso   1.00
C1200  C     0.27595   0.34591   0.94378   0.00000  Uiso   1.00
C1201  C     0.25000   0.39000   0.72394   0.00000  Uiso   1.00
C1202  C     0.22526   0.34549   0.72257   0.00000  Uiso   1.00
C1203  C     0.24898   0.10965   0.94231   0.00000  Uiso   1.00
C1204  C     0.22430   0.15418   0.94351   0.00000  Uiso   1.00
C1205  C     0.18981   0.05978   0.83334   0.00000  Uiso   1.00
C1206  C     0.18997   0.44005   0.83328   0.00000  Uiso   1.00
C1207  C     0.31012   0.05985   0.83330   0.00000  Uiso   1.00
C1208  C     0.49960   0.28985   0.69065   0.00000  Uiso   1.00
H1209  H     0.42554   0.12960   0.76801   0.00000  Uiso   1.00
H1210  H     0.32597   0.12050   0.89816   0.00000  Uiso   1.00
H1211  H     0.36861   0.07277   0.76801   0.00000  Uiso   1.00
H1212  H     0.17620   0.37711   0.89662   0.00000  Uiso   1.00
H1213  H     0.36502   0.42295   0.90130   0.00000  Uiso   1.00
H1214  H     0.17191   0.11829   0.76698   0.00000  Uiso   1.00
H1215  H     0.13297   0.07444   0.89987   0.00000  Uiso   1.00
H1216  H     0.33001   0.38425   0.76558   0.00000  Uiso   1.00
H1217  H     0.45083   0.36235   0.74644   0.00000  Uiso   1.00
H1218  H     0.43206   0.32989   0.69947   0.00000  Uiso   1.00
H1219  H     0.45772   0.38843   0.98155   0.00000  Uiso   1.00
H1220  H     0.12297   0.31784   0.89411   0.00000  Uiso   1.00
H1221  H     0.43319   0.41741   0.69415   0.00000  Uiso   1.00
H1222  H     0.49148   0.41386   0.69152   0.00000  Uiso   1.00
H1223  H     0.42947   0.16877   0.94979   0.00000  Uiso   1.00
H1224  H     0.45345   0.13674   0.99469   0.00000  Uiso   1.00
H1225  H     0.42499   0.08744   0.93403   0.00000  Uiso   1.00
H1226  H     0.46302   0.11251   0.89507   0.00000  Uiso   1.00
H1227  H     0.48267   0.08100   0.94283   0.00000  Uiso   1.00
H1228  H     0.06748   0.16688   0.71626   0.00000  Uiso   1.00
H1229  H     0.04180   0.13427   0.67275   0.00000  Uiso   1.00
H1230  H     0.06988   0.08596   0.73448   0.00000  Uiso   1.00
H1231  H     0.07309   0.37180   0.76907   0.00000  Uiso   1.00
H1232  H     0.03336   0.11339   0.77331   0.00000  Uiso   1.00
H1233  H     0.01189   0.08105   0.72701   0.00000  Uiso   1.00
H1234  H     0.07235   0.32710   0.94867   0.00000  Uiso   1.00
H1235  H     0.05128   0.35941   0.99467   0.00000  Uiso   1.00
H1236  H     0.08160   0.40786   0.93376   0.00000  Uiso   1.00
H1237  H     0.04038   0.38681   0.89584   0.00000  Uiso   1.00
H1238  H     0.02508   0.41874   0.94476   0.00000  Uiso   1.00
H1239  H     0.24281   0.10395   0.75963   0.00000  Uiso   1.00
H1240  H     0.21968   0.11313   0.70445   0.00000  Uiso   1.00
H1241  H     0.28565   0.16250   0.68797   0.00000  Uiso   1.00
H1242  H     0.37895   0.17997   0.89569   0.00000  Uiso   1.00
H1243  H     0.25380   0.18204   0.73484   0.00000  Uiso   1.00
H1244  H     0.30406   0.15240   0.74464   0.00000  Uiso   1.00
H1245  H     0.24447   0.39670   0.90655   0.00000  Uiso   1.00
H1246  H     0.22045   0.38705   0.96125   0.00000  Uiso   1.00
H1247  H     0.25488   0.31841   0.93083   0.00000  Uiso   1.00
H1248  H     0.30537   0.34802   0.92239   0.00000  Uiso   1.00
H1249  H     0.28599   0.33741   0.97853   0.00000  Uiso   1.00
H1250  H     0.25783   0.39566   0.75961   0.00000  Uiso   1.00
H1251  H     0.28052   0.38679   0.70431   0.00000  Uiso   1.00
H1252  H     0.24657   0.31771   0.73446   0.00000  Uiso   1.00
H1253  H     0.07627   0.13132   0.89995   0.00000  Uiso   1.00
H1254  H     0.19643   0.34736   0.74487   0.00000  Uiso   1.00
H1255  H     0.21423   0.33769   0.68796   0.00000  Uiso   1.00
H1256  H     0.25630   0.10362   0.90662   0.00000  Uiso   1.00
H1257  H     0.27973   0.11311   0.96162   0.00000  Uiso   1.00
H1258  H     0.24542   0.18179   0.93092   0.00000  Uiso   1.00
H1259  H     0.19510   0.15205   0.92171   0.00000  Uiso   1.00
H1260  H     0.21389   0.16247   0.97816   0.00000  Uiso   1.00
H1261  H     0.38303   0.32492   0.76734   0.00000  Uiso   1.00
H1262  H     0.42168   0.36624   0.90127   0.00000  Uiso   1.00
H1263  H     0.11917   0.17789   0.76932   0.00000  Uiso   1.00
H1264  H     0.13004   0.42870   0.76908   0.00000  Uiso   1.00
N1265  N     0.00000   0.25000   0.95240   0.00000  Uiso   1.00
N1266  N    -0.00000   0.25000   0.71427   0.00000  Uiso   1.00
N1267  N     0.25000   0.00000   0.95240   0.00000  Uiso   1.00
N1268  N     0.25000   0.00000   0.71427   0.00000  Uiso   1.00
O1269  O     0.04580   0.20419   0.87154   0.00000  Uiso   1.00
O1270  O     0.20419   0.04581   0.79513   0.00000  Uiso   1.00
O1271  O     0.20419   0.04581   0.87154   0.00000  Uiso   1.00
O1272  O     0.29580   0.45419   0.79513   0.00000  Uiso   1.00
O1273  O     0.20419   0.45419   0.79513   0.00000  Uiso   1.00
O1274  O     0.29580   0.04581   0.87154   0.00000  Uiso   1.00
O1275  O     0.29580   0.04581   0.79513   0.00000  Uiso   1.00
O1276  O     0.20419   0.45419   0.87154   0.00000  Uiso   1.00
O1277  O     0.00006   0.33025   0.71406   0.00000  Uiso   1.00
O1278  O     0.49696   0.17030   0.95167   0.00000  Uiso   1.00
O1279  O     0.49999   0.17031   0.71530   0.00000  Uiso   1.00
O1280  O     0.45419   0.29581   0.79513   0.00000  Uiso   1.00
O1281  O     0.00492   0.32968   0.95193   0.00000  Uiso   1.00
O1282  O     0.27738   0.07484   0.70862   0.00000  Uiso   1.00
O1283  O     0.27821   0.42545   0.95832   0.00000  Uiso   1.00
O1284  O     0.22285   0.42509   0.70884   0.00000  Uiso   1.00
O1285  O     0.22205   0.07464   0.95796   0.00000  Uiso   1.00
O1286  O     0.45419   0.29581   0.87154   0.00000  Uiso   1.00
O1287  O     0.04580   0.20419   0.79513   0.00000  Uiso   1.00
O1288  O     0.45419   0.20419   0.79513   0.00000  Uiso   1.00
O1289  O     0.04580   0.29581   0.87154   0.00000  Uiso   1.00
O1290  O     0.04580   0.29581   0.79513   0.00000  Uiso   1.00
O1291  O     0.45419   0.20419   0.87154   0.00000  Uiso   1.00
O1292  O     0.29580   0.45419   0.87154   0.00000  Uiso   1.00
Zn1293 Zn   -0.00000   0.25000   0.88437   0.00000  Uiso   1.00
Zn1294 Zn    0.00000   0.25000   0.78229   0.00000  Uiso   1.00
Zn1295 Zn    0.25000   0.00000   0.88437   0.00000  Uiso   1.00
Zn1296 Zn    0.25000   0.00000   0.78229   0.00000  Uiso   1.00
C1297  C     0.56012   0.19026   0.83350   0.00000  Uiso   1.00
C1298  C     0.99779   0.21019   0.97586   0.00000  Uiso   1.00
C1299  C     0.50051   0.21015   0.69095   0.00000  Uiso   1.00
C1300  C     0.50251   0.28971   0.97582   0.00000  Uiso   1.00
C1301  C     0.75364   0.03959   0.69039   0.00000  Uiso   1.00
C1302  C     0.75411   0.46046   0.97636   0.00000  Uiso   1.00
C1303  C     0.74644   0.46041   0.69050   0.00000  Uiso   1.00
C1304  C     0.74598   0.03955   0.97623   0.00000  Uiso   1.00
C1305  C     0.90316   0.12809   0.79605   0.00000  Uiso   1.00
C1306  C     0.62364   0.34273   0.86746   0.00000  Uiso   1.00
C1307  C     0.59621   0.37255   0.79654   0.00000  Uiso   1.00
C1308  C     0.93988   0.30976   0.83343   0.00000  Uiso   1.00
C1309  C     0.87764   0.15583   0.86845   0.00000  Uiso   1.00
C1310  C     0.59779   0.12900   0.87126   0.00000  Uiso   1.00
C1311  C     0.87979   0.34678   0.79631   0.00000  Uiso   1.00
C1312  C     0.90103   0.36958   0.87194   0.00000  Uiso   1.00
C1313  C     0.62123   0.15460   0.79728   0.00000  Uiso   1.00
C1314  C     0.62822   0.40482   0.79665   0.00000  Uiso   1.00
C1315  C     0.84691   0.12256   0.86937   0.00000  Uiso   1.00
C1316  C     0.87116   0.09583   0.79616   0.00000  Uiso   1.00
C1317  C     0.65445   0.37596   0.86842   0.00000  Uiso   1.00
C1318  C     0.86911   0.40183   0.87188   0.00000  Uiso   1.00
C1319  C     0.93991   0.19024   0.83317   0.00000  Uiso   1.00
C1320  C     0.65186   0.12127   0.79639   0.00000  Uiso   1.00
C1321  C     0.62968   0.09667   0.87111   0.00000  Uiso   1.00
C1322  C     0.84910   0.38004   0.79562   0.00000  Uiso   1.00
C1323  C     0.59387   0.34203   0.83233   0.00000  Uiso   1.00
C1324  C     0.90636   0.15768   0.83248   0.00000  Uiso   1.00
C1325  C     0.90635   0.34240   0.83395   0.00000  Uiso   1.00
C1326  C     0.59362   0.15762   0.83412   0.00000  Uiso   1.00
C1327  C     0.84333   0.09302   0.83307   0.00000  Uiso   1.00
C1328  C     0.65694   0.40667   0.83294   0.00000  Uiso   1.00
C1329  C     0.65651   0.09283   0.83349   0.00000  Uiso   1.00
C1330  C     0.56015   0.30968   0.83316   0.00000  Uiso   1.00
C1331  C     0.84333   0.40703   0.83358   0.00000  Uiso   1.00
C1332  C     0.95904   0.35178   0.71187   0.00000  Uiso   1.00
C1333  C     0.96083   0.39540   0.68463   0.00000  Uiso   1.00
C1334  C     0.95749   0.14724   0.95915   0.00000  Uiso   1.00
C1335  C     0.95697   0.10441   0.93094   0.00000  Uiso   1.00
C1336  C     0.53870   0.14593   0.70801   0.00000  Uiso   1.00
C1337  C     0.53848   0.10400   0.73762   0.00000  Uiso   1.00
C1338  C     0.54582   0.35014   0.95899   0.00000  Uiso   1.00
C1339  C     0.54839   0.39351   0.93157   0.00000  Uiso   1.00
C1340  C     0.75033   0.10984   0.72394   0.00000  Uiso   1.00
C1341  C     0.81013   0.44018   0.83339   0.00000  Uiso   1.00
C1342  C     0.77501   0.15439   0.72261   0.00000  Uiso   1.00
C1343  C     0.75139   0.39051   0.94232   0.00000  Uiso   1.00
C1344  C     0.77595   0.34591   0.94378   0.00000  Uiso   1.00
C1345  C     0.75000   0.39000   0.72394   0.00000  Uiso   1.00
C1346  C     0.72526   0.34549   0.72257   0.00000  Uiso   1.00
C1347  C     0.74898   0.10965   0.94231   0.00000  Uiso   1.00
C1348  C     0.72430   0.15418   0.94351   0.00000  Uiso   1.00
C1349  C     0.68981   0.05978   0.83334   0.00000  Uiso   1.00
C1350  C     0.68997   0.44005   0.83328   0.00000  Uiso   1.00
C1351  C     0.81012   0.05985   0.83330   0.00000  Uiso   1.00
C1352  C     0.99960   0.28985   0.69065   0.00000  Uiso   1.00
H1353  H     0.92554   0.12960   0.76801   0.00000  Uiso   1.00
H1354  H     0.82597   0.12050   0.89816   0.00000  Uiso   1.00
H1355  H     0.86861   0.07277   0.76801   0.00000  Uiso   1.00
H1356  H     0.67620   0.37711   0.89662   0.00000  Uiso   1.00
H1357  H     0.86502   0.42295   0.90130   0.00000  Uiso   1.00
H1358  H     0.67191   0.11829   0.76698   0.00000  Uiso   1.00
H1359  H     0.63297   0.07444   0.89987   0.00000  Uiso   1.00
H1360  H     0.83001   0.38425   0.76558   0.00000  Uiso   1.00
H1361  H     0.95083   0.36235   0.74644   0.00000  Uiso   1.00
H1362  H     0.93206   0.32989   0.69947   0.00000  Uiso   1.00
H1363  H     0.95772   0.38843   0.98155   0.00000  Uiso   1.00
H1364  H     0.62297   0.31784   0.89411   0.00000  Uiso   1.00
H1365  H     0.93319   0.41741   0.69415   0.00000  Uiso   1.00
H1366  H     0.99148   0.41386   0.69152   0.00000  Uiso   1.00
H1367  H     0.92947   0.16877   0.94979   0.00000  Uiso   1.00
H1368  H     0.95345   0.13674   0.99469   0.00000  Uiso   1.00
H1369  H     0.92499   0.08744   0.93403   0.00000  Uiso   1.00
H1370  H     0.96302   0.11251   0.89507   0.00000  Uiso   1.00
H1371  H     0.98267   0.08100   0.94283   0.00000  Uiso   1.00
H1372  H     0.56748   0.16688   0.71626   0.00000  Uiso   1.00
H1373  H     0.54180   0.13427   0.67275   0.00000  Uiso   1.00
H1374  H     0.56988   0.08596   0.73448   0.00000  Uiso   1.00
H1375  H     0.57309   0.37180   0.76907   0.00000  Uiso   1.00
H1376  H     0.53336   0.11339   0.77331   0.00000  Uiso   1.00
H1377  H     0.51189   0.08105   0.72701   0.00000  Uiso   1.00
H1378  H     0.57235   0.32710   0.94867   0.00000  Uiso   1.00
H1379  H     0.55128   0.35941   0.99467   0.00000  Uiso   1.00
H1380  H     0.58160   0.40786   0.93376   0.00000  Uiso   1.00
H1381  H     0.54038   0.38681   0.89584   0.00000  Uiso   1.00
H1382  H     0.52508   0.41874   0.94476   0.00000  Uiso   1.00
H1383  H     0.74281   0.10395   0.75963   0.00000  Uiso   1.00
H1384  H     0.71968   0.11313   0.70445   0.00000  Uiso   1.00
H1385  H     0.78565   0.16250   0.68797   0.00000  Uiso   1.00
H1386  H     0.87895   0.17997   0.89569   0.00000  Uiso   1.00
H1387  H     0.75380   0.18204   0.73484   0.00000  Uiso   1.00
H1388  H     0.80406   0.15240   0.74464   0.00000  Uiso   1.00
H1389  H     0.74447   0.39670   0.90655   0.00000  Uiso   1.00
H1390  H     0.72045   0.38705   0.96125   0.00000  Uiso   1.00
H1391  H     0.75488   0.31841   0.93083   0.00000  Uiso   1.00
H1392  H     0.80537   0.34802   0.92239   0.00000  Uiso   1.00
H1393  H     0.78599   0.33741   0.97853   0.00000  Uiso   1.00
H1394  H     0.75783   0.39566   0.75961   0.00000  Uiso   1.00
H1395  H     0.78052   0.38679   0.70431   0.00000  Uiso   1.00
H1396  H     0.74657   0.31771   0.73446   0.00000  Uiso   1.00
H1397  H     0.57627   0.13132   0.89995   0.00000  Uiso   1.00
H1398  H     0.69643   0.34736   0.74487   0.00000  Uiso   1.00
H1399  H     0.71423   0.33769   0.68796   0.00000  Uiso   1.00
H1400  H     0.75630   0.10362   0.90662   0.00000  Uiso   1.00
H1401  H     0.77973   0.11311   0.96162   0.00000  Uiso   1.00
H1402  H     0.74542   0.18179   0.93092   0.00000  Uiso   1.00
H1403  H     0.69510   0.15205   0.92171   0.00000  Uiso   1.00
H1404  H     0.71389   0.16247   0.97816   0.00000  Uiso   1.00
H1405  H     0.88303   0.32492   0.76734   0.00000  Uiso   1.00
H1406  H     0.92168   0.36624   0.90127   0.00000  Uiso   1.00
H1407  H     0.61917   0.17789   0.76932   0.00000  Uiso   1.00
H1408  H     0.63004   0.42870   0.76908   0.00000  Uiso   1.00
N1409  N     0.50000   0.25000   0.95240   0.00000  Uiso   1.00
N1410  N     0.50000   0.25000   0.71427   0.00000  Uiso   1.00
N1411  N     0.75000   0.00000   0.95240   0.00000  Uiso   1.00
N1412  N     0.75000   0.00000   0.71427   0.00000  Uiso   1.00
O1413  O     0.54580   0.20419   0.87154   0.00000  Uiso   1.00
O1414  O     0.70419   0.04581   0.79513   0.00000  Uiso   1.00
O1415  O     0.70419   0.04581   0.87154   0.00000  Uiso   1.00
O1416  O     0.79580   0.45419   0.79513   0.00000  Uiso   1.00
O1417  O     0.70419   0.45419   0.79513   0.00000  Uiso   1.00
O1418  O     0.79580   0.04581   0.87154   0.00000  Uiso   1.00
O1419  O     0.79580   0.04581   0.79513   0.00000  Uiso   1.00
O1420  O     0.70419   0.45419   0.87154   0.00000  Uiso   1.00
O1421  O     0.50006   0.33025   0.71406   0.00000  Uiso   1.00
O1422  O     0.99696   0.17030   0.95167   0.00000  Uiso   1.00
O1423  O     0.99999   0.17031   0.71530   0.00000  Uiso   1.00
O1424  O     0.95419   0.29581   0.79513   0.00000  Uiso   1.00
O1425  O     0.50492   0.32968   0.95193   0.00000  Uiso   1.00
O1426  O     0.77738   0.07484   0.70862   0.00000  Uiso   1.00
O1427  O     0.77821   0.42545   0.95832   0.00000  Uiso   1.00
O1428  O     0.72285   0.42509   0.70884   0.00000  Uiso   1.00
O1429  O     0.72205   0.07464   0.95796   0.00000  Uiso   1.00
O1430  O     0.95419   0.29581   0.87154   0.00000  Uiso   1.00
O1431  O     0.54580   0.20419   0.79513   0.00000  Uiso   1.00
O1432  O     0.95419   0.20419   0.79513   0.00000  Uiso   1.00
O1433  O     0.54580   0.29581   0.87154   0.00000  Uiso   1.00
O1434  O     0.54580   0.29581   0.79513   0.00000  Uiso   1.00
O1435  O     0.95419   0.20419   0.87154   0.00000  Uiso   1.00
O1436  O     0.79580   0.45419   0.87154   0.00000  Uiso   1.00
Zn1437 Zn    0.50000   0.25000   0.88437   0.00000  Uiso   1.00
Zn1438 Zn    0.50000   0.25000   0.78229   0.00000  Uiso   1.00
Zn1439 Zn    0.75000   0.00000   0.88437   0.00000  Uiso   1.00
Zn1440 Zn    0.75000   0.00000   0.78229   0.00000  Uiso   1.00
C1441  C     0.06012   0.69026   0.83350   0.00000  Uiso   1.00
C1442  C     0.49779   0.71019   0.97586   0.00000  Uiso   1.00
C1443  C     0.00051   0.71015   0.69095   0.00000  Uiso   1.00
C1444  C     0.00251   0.78971   0.97582   0.00000  Uiso   1.00
C1445  C     0.25364   0.53959   0.69039   0.00000  Uiso   1.00
C1446  C     0.25411   0.96046   0.97636   0.00000  Uiso   1.00
C1447  C     0.24644   0.96041   0.69050   0.00000  Uiso   1.00
C1448  C     0.24598   0.53955   0.97623   0.00000  Uiso   1.00
C1449  C     0.40316   0.62809   0.79605   0.00000  Uiso   1.00
C1450  C     0.12364   0.84273   0.86746   0.00000  Uiso   1.00
C1451  C     0.09621   0.87255   0.79654   0.00000  Uiso   1.00
C1452  C     0.43988   0.80976   0.83343   0.00000  Uiso   1.00
C1453  C     0.37764   0.65583   0.86845   0.00000  Uiso   1.00
C1454  C     0.09779   0.62900   0.87126   0.00000  Uiso   1.00
C1455  C     0.37979   0.84678   0.79631   0.00000  Uiso   1.00
C1456  C     0.40103   0.86958   0.87194   0.00000  Uiso   1.00
C1457  C     0.12123   0.65460   0.79728   0.00000  Uiso   1.00
C1458  C     0.12822   0.90482   0.79665   0.00000  Uiso   1.00
C1459  C     0.34691   0.62256   0.86937   0.00000  Uiso   1.00
C1460  C     0.37116   0.59583   0.79616   0.00000  Uiso   1.00
C1461  C     0.15445   0.87596   0.86842   0.00000  Uiso   1.00
C1462  C     0.36911   0.90183   0.87188   0.00000  Uiso   1.00
C1463  C     0.43991   0.69024   0.83317   0.00000  Uiso   1.00
C1464  C     0.15186   0.62127   0.79639   0.00000  Uiso   1.00
C1465  C     0.12968   0.59667   0.87111   0.00000  Uiso   1.00
C1466  C     0.34910   0.88004   0.79562   0.00000  Uiso   1.00
C1467  C     0.09387   0.84203   0.83233   0.00000  Uiso   1.00
C1468  C     0.40636   0.65768   0.83248   0.00000  Uiso   1.00
C1469  C     0.40635   0.84240   0.83395   0.00000  Uiso   1.00
C1470  C     0.09362   0.65762   0.83412   0.00000  Uiso   1.00
C1471  C     0.34333   0.59302   0.83307   0.00000  Uiso   1.00
C1472  C     0.15694   0.90667   0.83294   0.00000  Uiso   1.00
C1473  C     0.15651   0.59283   0.83349   0.00000  Uiso   1.00
C1474  C     0.06015   0.80968   0.83316   0.00000  Uiso   1.00
C1475  C     0.34333   0.90703   0.83358   0.00000  Uiso   1.00
C1476  C     0.45904   0.85178   0.71187   0.00000  Uiso   1.00
C1477  C     0.46083   0.89540   0.68463   0.00000  Uiso   1.00
C1478  C     0.45749   0.64724   0.95915   0.00000  Uiso   1.00
C1479  C     0.45697   0.60441   0.93094   0.00000  Uiso   1.00
C1480  C     0.03870   0.64593   0.70801   0.00000  Uiso   1.00
C1481  C     0.03848   0.60400   0.73762   0.00000  Uiso   1.00
C1482  C     0.04582   0.85014   0.95899   0.00000  Uiso   1.00
C1483  C     0.04839   0.89351   0.93157   0.00000  Uiso   1.00
C1484  C     0.25033   0.60984   0.72394   0.00000  Uiso   1.00
C1485  C     0.31013   0.94018   0.83339   0.00000  Uiso   1.00
C1486  C     0.27501   0.65439   0.72261   0.00000  Uiso   1.00
C1487  C     0.25139   0.89051   0.94232   0.00000  Uiso   1.00
C1488  C     0.27595   0.84591   0.94378   0.00000  Uiso   1.00
C1489  C     0.25000   0.89000   0.72394   0.00000  Uiso   1.00
C1490  C     0.22526   0.84549   0.72257   0.00000  Uiso   1.00
C1491  C     0.24898   0.60965   0.94231   0.00000  Uiso   1.00
C1492  C     0.22430   0.65418   0.94351   0.00000  Uiso   1.00
C1493  C     0.18981   0.55978   0.83334   0.00000  Uiso   1.00
C1494  C     0.18997   0.94005   0.83328   0.00000  Uiso   1.00
C1495  C     0.31012   0.55985   0.83330   0.00000  Uiso   1.00
C1496  C     0.49960   0.78985   0.69065   0.00000  Uiso   1.00
H1497  H     0.42554   0.62960   0.76801   0.00000  Uiso   1.00
H1498  H     0.32597   0.62050   0.89816   0.00000  Uiso   1.00
H1499  H     0.36861   0.57277   0.76801   0.00000  Uiso   1.00
H1500  H     0.17620   0.87711   0.89662   0.00000  Uiso   1.00
H1501  H     0.36502   0.92295   0.90130   0.00000  Uiso   1.00
H1502  H     0.17191   0.61829   0.76698   0.00000  Uiso   1.00
H1503  H     0.13297   0.57444   0.89987   0.00000  Uiso   1.00
H1504  H     0.33001   0.88425   0.76558   0.00000  Uiso   1.00
H1505  H     0.45083   0.86235   0.74644   0.00000  Uiso   1.00
H1506  H     0.43206   0.82989   0.69947   0.00000  Uiso   1.00
H1507  H     0.45772   0.88843   0.98155   0.00000  Uiso   1.00
H1508  H     0.12297   0.81784   0.89411   0.00000  Uiso   1.00
H1509  H     0.43319   0.91741   0.69415   0.00000  Uiso   1.00
H1510  H     0.49148   0.91386   0.69152   0.00000  Uiso   1.00
H1511  H     0.42947   0.66877   0.94979   0.00000  Uiso   1.00
H1512  H     0.45345   0.63674   0.99469   0.00000  Uiso   1.00
H1513  H     0.42499   0.58744   0.93403   0.00000  Uiso   1.00
H1514  H     0.46302   0.61251   0.89507   0.00000  Uiso   1.00
H1515  H     0.48267   0.58100   0.94283   0.00000  Uiso   1.00
H1516  H     0.06748   0.66688   0.71626   0.00000  Uiso   1.00
H1517  H     0.04180   0.63427   0.67275   0.00000  Uiso   1.00
H1518  H     0.06988   0.58596   0.73448   0.00000  Uiso   1.00
H1519  H     0.07309   0.87180   0.76907   0.00000  Uiso   1.00
H1520  H     0.03336   0.61339   0.77331   0.00000  Uiso   1.00
H1521  H     0.01189   0.58105   0.72701   0.00000  Uiso   1.00
H1522  H     0.07235   0.82710   0.94867   0.00000  Uiso   1.00
H1523  H     0.05128   0.85941   0.99467   0.00000  Uiso   1.00
H1524  H     0.08160   0.90786   0.93376   0.00000  Uiso   1.00
H1525  H     0.04038   0.88681   0.89584   0.00000  Uiso   1.00
H1526  H     0.02508   0.91874   0.94476   0.00000  Uiso   1.00
H1527  H     0.24281   0.60395   0.75963   0.00000  Uiso   1.00
H1528  H     0.21968   0.61313   0.70445   0.00000  Uiso   1.00
H1529  H     0.28565   0.66250   0.68797   0.00000  Uiso   1.00
H1530  H     0.37895   0.67997   0.89569   0.00000  Uiso   1.00
H1531  H     0.25380   0.68204   0.73484   0.00000  Uiso   1.00
H1532  H     0.30406   0.65240   0.74464   0.00000  Uiso   1.00
H1533  H     0.24447   0.89670   0.90655   0.00000  Uiso   1.00
H1534  H     0.22045   0.88705   0.96125   0.00000  Uiso   1.00
H1535  H     0.25488   0.81841   0.93083   0.00000  Uiso   1.00
H1536  H     0.30537   0.84802   0.92239   0.00000  Uiso   1.00
H1537  H     0.28599   0.83741   0.97853   0.00000  Uiso   1.00
H1538  H     0.25783   0.89566   0.75961   0.00000  Uiso   1.00
H1539  H     0.28052   0.88679   0.70431   0.00000  Uiso   1.00
H1540  H     0.24657   0.81771   0.73446   0.00000  Uiso   1.00
H1541  H     0.07627   0.63132   0.89995   0.00000  Uiso   1.00
H1542  H     0.19643   0.84736   0.74487   0.00000  Uiso   1.00
H1543  H     0.21423   0.83769   0.68796   0.00000  Uiso   1.00
H1544  H     0.25630   0.60362   0.90662   0.00000  Uiso   1.00
H1545  H     0.27973   0.61311   0.96162   0.00000  Uiso   1.00
H1546  H     0.24542   0.68179   0.93092   0.00000  Uiso   1.00
H1547  H     0.19510   0.65205   0.92171   0.00000  Uiso   1.00
H1548  H     0.21389   0.66247   0.97816   0.00000  Uiso   1.00
H1549  H     0.38303   0.82492   0.76734   0.00000  Uiso   1.00
H1550  H     0.42168   0.86624   0.90127   0.00000  Uiso   1.00
H1551  H     0.11917   0.67789   0.76932   0.00000  Uiso   1.00
H1552  H     0.13004   0.92870   0.76908   0.00000  Uiso   1.00
N1553  N     0.00000   0.75000   0.95240   0.00000  Uiso   1.00
N1554  N    -0.00000   0.75000   0.71427   0.00000  Uiso   1.00
N1555  N     0.25000   0.50000   0.95240   0.00000  Uiso   1.00
N1556  N     0.25000   0.50000   0.71427   0.00000  Uiso   1.00
O1557  O     0.04580   0.70419   0.87154   0.00000  Uiso   1.00
O1558  O     0.20419   0.54581   0.79513   0.00000  Uiso   1.00
O1559  O     0.20419   0.54581   0.87154   0.00000  Uiso   1.00
O1560  O     0.29580   0.95419   0.79513   0.00000  Uiso   1.00
O1561  O     0.20419   0.95419   0.79513   0.00000  Uiso   1.00
O1562  O     0.29580   0.54581   0.87154   0.00000  Uiso   1.00
O1563  O     0.29580   0.54581   0.79513   0.00000  Uiso   1.00
O1564  O     0.20419   0.95419   0.87154   0.00000  Uiso   1.00
O1565  O     0.00006   0.83025   0.71406   0.00000  Uiso   1.00
O1566  O     0.49696   0.67030   0.95167   0.00000  Uiso   1.00
O1567  O     0.49999   0.67031   0.71530   0.00000  Uiso   1.00
O1568  O     0.45419   0.79581   0.79513   0.00000  Uiso   1.00
O1569  O     0.00492   0.82968   0.95193   0.00000  Uiso   1.00
O1570  O     0.27738   0.57484   0.70862   0.00000  Uiso   1.00
O1571  O     0.27821   0.92545   0.95832   0.00000  Uiso   1.00
O1572  O     0.22285   0.92509   0.70884   0.00000  Uiso   1.00
O1573  O     0.22205   0.57464   0.95796   0.00000  Uiso   1.00
O1574  O     0.45419   0.79581   0.87154   0.00000  Uiso   1.00
O1575  O     0.04580   0.70419   0.79513   0.00000  Uiso   1.00
O1576  O     0.45419   0.70419   0.79513   0.00000  Uiso   1.00
O1577  O     0.04580   0.79581   0.87154   0.00000  Uiso   1.00
O1578  O     0.04580   0.79581   0.79513   0.00000  Uiso   1.00
O1579  O     0.45419   0.70419   0.87154   0.00000  Uiso   1.00
O1580  O     0.29580   0.95419   0.87154   0.00000  Uiso   1.00
Zn1581 Zn   -0.00000   0.75000   0.88437   0.00000  Uiso   1.00
Zn1582 Zn    0.00000   0.75000   0.78229   0.00000  Uiso   1.00
Zn1583 Zn    0.25000   0.50000   0.88437   0.00000  Uiso   1.00
Zn1584 Zn    0.25000   0.50000   0.78229   0.00000  Uiso   1.00
C1585  C     0.56012   0.69026   0.83350   0.00000  Uiso   1.00
C1586  C     0.99779   0.71019   0.97586   0.00000  Uiso   1.00
C1587  C     0.50051   0.71015   0.69095   0.00000  Uiso   1.00
C1588  C     0.50251   0.78971   0.97582   0.00000  Uiso   1.00
C1589  C     0.75364   0.53959   0.69039   0.00000  Uiso   1.00
C1590  C     0.75411   0.96046   0.97636   0.00000  Uiso   1.00
C1591  C     0.74644   0.96041   0.69050   0.00000  Uiso   1.00
C1592  C     0.74598   0.53955   0.97623   0.00000  Uiso   1.00
C1593  C     0.90316   0.62809   0.79605   0.00000  Uiso   1.00
C1594  C     0.62364   0.84273   0.86746   0.00000  Uiso   1.00
C1595  C     0.59621   0.87255   0.79654   0.00000  Uiso   1.00
C1596  C     0.93988   0.80976   0.83343   0.00000  Uiso   1.00
C1597  C     0.87764   0.65583   0.86845   0.00000  Uiso   1.00
C1598  C     0.59779   0.62900   0.87126   0.00000  Uiso   1.00
C1599  C     0.87979   0.84678   0.79631   0.00000  Uiso   1.00
C1600  C     0.90103   0.86958   0.87194   0.00000  Uiso   1.00
C1601  C     0.62123   0.65460   0.79728   0.00000  Uiso   1.00
C1602  C     0.62822   0.90482   0.79665   0.00000  Uiso   1.00
C1603  C     0.84691   0.62256   0.86937   0.00000  Uiso   1.00
C1604  C     0.87116   0.59583   0.79616   0.00000  Uiso   1.00
C1605  C     0.65445   0.87596   0.86842   0.00000  Uiso   1.00
C1606  C     0.86911   0.90183   0.87188   0.00000  Uiso   1.00
C1607  C     0.93991   0.69024   0.83317   0.00000  Uiso   1.00
C1608  C     0.65186   0.62127   0.79639   0.00000  Uiso   1.00
C1609  C     0.62968   0.59667   0.87111   0.00000  Uiso   1.00
C1610  C     0.84910   0.88004   0.79562   0.00000  Uiso   1.00
C1611  C     0.59387   0.84203   0.83233   0.00000  Uiso   1.00
C1612  C     0.90636   0.65768   0.83248   0.00000  Uiso   1.00
C1613  C     0.90635   0.84240   0.83395   0.00000  Uiso   1.00
C1614  C     0.59362   0.65762   0.83412   0.00000  Uiso   1.00
C1615  C     0.84333   0.59302   0.83307   0.00000  Uiso   1.00
C1616  C     0.65694   0.90667   0.83294   0.00000  Uiso   1.00
C1617  C     0.65651   0.59283   0.83349   0.00000  Uiso   1.00
C1618  C     0.56015   0.80968   0.83316   0.00000  Uiso   1.00
C1619  C     0.84333   0.90703   0.83358   0.00000  Uiso   1.00
C1620  C     0.95904   0.85178   0.71187   0.00000  Uiso   1.00
C1621  C     0.96083   0.89540   0.68463   0.00000  Uiso   1.00
C1622  C     0.95749   0.64724   0.95915   0.00000  Uiso   1.00
C1623  C     0.95697   0.60441   0.93094   0.00000  Uiso   1.00
C1624  C     0.53870   0.64593   0.70801   0.00000  Uiso   1.00
C1625  C     0.53848   0.60400   0.73762   0.00000  Uiso   1.00
C1626  C     0.54582   0.85014   0.95899   0.00000  Uiso   1.00
C1627  C     0.54839   0.89351   0.93157   0.00000  Uiso   1.00
C1628  C     0.75033   0.60984   0.72394   0.00000  Uiso   1.00
C1629  C     0.81013   0.94018   0.83339   0.00000  Uiso   1.00
C1630  C     0.77501   0.65439   0.72261   0.00000  Uiso   1.00
C1631  C     0.75139   0.89051   0.94232   0.00000  Uiso   1.00
C1632  C     0.77595   0.84591   0.94378   0.00000  Uiso   1.00
C1633  C     0.75000   0.89000   0.72394   0.00000  Uiso   1.00
C1634  C     0.72526   0.84549   0.72257   0.00000  Uiso   1.00
C1635  C     0.74898   0.60965   0.94231   0.00000  Uiso   1.00
C1636  C     0.72430   0.65418   0.94351   0.00000  Uiso   1.00
C1637  C     0.68981   0.55978   0.83334   0.00000  Uiso   1.00
C1638  C     0.68997   0.94005   0.83328   0.00000  Uiso   1.00
C1639  C     0.81012   0.55985   0.83330   0.00000  Uiso   1.00
C1640  C     0.99960   0.78985   0.69065   0.00000  Uiso   1.00
H1641  H     0.92554   0.62960   0.76801   0.00000  Uiso   1.00
H1642  H     0.82597   0.62050   0.89816   0.00000  Uiso   1.00
H1643  H     0.86861   0.57277   0.76801   0.00000  Uiso   1.00
H1644  H     0.67620   0.87711   0.89662   0.00000  Uiso   1.00
H1645  H     0.86502   0.92295   0.90130   0.00000  Uiso   1.00
H1646  H     0.67191   0.61829   0.76698   0.00000  Uiso   1.00
H1647  H     0.63297   0.57444   0.89987   0.00000  Uiso   1.00
H1648  H     0.83001   0.88425   0.76558   0.00000  Uiso   1.00
H1649  H     0.95083   0.86235   0.74644   0.00000  Uiso   1.00
H1650  H     0.93206   0.82989   0.69947   0.00000  Uiso   1.00
H1651  H     0.95772   0.88843   0.98155   0.00000  Uiso   1.00
H1652  H     0.62297   0.81784   0.89411   0.00000  Uiso   1.00
H1653  H     0.93319   0.91741   0.69415   0.00000  Uiso   1.00
H1654  H     0.99148   0.91386   0.69152   0.00000  Uiso   1.00
H1655  H     0.92947   0.66877   0.94979   0.00000  Uiso   1.00
H1656  H     0.95345   0.63674   0.99469   0.00000  Uiso   1.00
H1657  H     0.92499   0.58744   0.93403   0.00000  Uiso   1.00
H1658  H     0.96302   0.61251   0.89507   0.00000  Uiso   1.00
H1659  H     0.98267   0.58100   0.94283   0.00000  Uiso   1.00
H1660  H     0.56748   0.66688   0.71626   0.00000  Uiso   1.00
H1661  H     0.54180   0.63427   0.67275   0.00000  Uiso   1.00
H1662  H     0.56988   0.58596   0.73448   0.00000  Uiso   1.00
H1663  H     0.57309   0.87180   0.76907   0.00000  Uiso   1.00
H1664  H     0.53336   0.61339   0.77331   0.00000  Uiso   1.00
H1665  H     0.51189   0.58105   0.72701   0.00000  Uiso   1.00
H1666  H     0.57235   0.82710   0.94867   0.00000  Uiso   1.00
H1667  H     0.55128   0.85941   0.99467   0.00000  Uiso   1.00
H1668  H     0.58160   0.90786   0.93376   0.00000  Uiso   1.00
H1669  H     0.54038   0.88681   0.89584   0.00000  Uiso   1.00
H1670  H     0.52508   0.91874   0.94476   0.00000  Uiso   1.00
H1671  H     0.74281   0.60395   0.75963   0.00000  Uiso   1.00
H1672  H     0.71968   0.61313   0.70445   0.00000  Uiso   1.00
H1673  H     0.78565   0.66250   0.68797   0.00000  Uiso   1.00
H1674  H     0.87895   0.67997   0.89569   0.00000  Uiso   1.00
H1675  H     0.75380   0.68204   0.73484   0.00000  Uiso   1.00
H1676  H     0.80406   0.65240   0.74464   0.00000  Uiso   1.00
H1677  H     0.74447   0.89670   0.90655   0.00000  Uiso   1.00
H1678  H     0.72045   0.88705   0.96125   0.00000  Uiso   1.00
H1679  H     0.75488   0.81841   0.93083   0.00000  Uiso   1.00
H1680  H     0.80537   0.84802   0.92239   0.00000  Uiso   1.00
H1681  H     0.78599   0.83741   0.97853   0.00000  Uiso   1.00
H1682  H     0.75783   0.89566   0.75961   0.00000  Uiso   1.00
H1683  H     0.78052   0.88679   0.70431   0.00000  Uiso   1.00
H1684  H     0.74657   0.81771   0.73446   0.00000  Uiso   1.00
H1685  H     0.57627   0.63132   0.89995   0.00000  Uiso   1.00
H1686  H     0.69643   0.84736   0.74487   0.00000  Uiso   1.00
H1687  H     0.71423   0.83769   0.68796   0.00000  Uiso   1.00
H1688  H     0.75630   0.60362   0.90662   0.00000  Uiso   1.00
H1689  H     0.77973   0.61311   0.96162   0.00000  Uiso   1.00
H1690  H     0.74542   0.68179   0.93092   0.00000  Uiso   1.00
H1691  H     0.69510   0.65205   0.92171   0.00000  Uiso   1.00
H1692  H     0.71389   0.66247   0.97816   0.00000  Uiso   1.00
H1693  H     0.88303   0.82492   0.76734   0.00000  Uiso   1.00
H1694  H     0.92168   0.86624   0.90127   0.00000  Uiso   1.00
H1695  H     0.61917   0.67789   0.76932   0.00000  Uiso   1.00
H1696  H     0.63004   0.92870   0.76908   0.00000  Uiso   1.00
N1697  N     0.50000   0.75000   0.95240   0.00000  Uiso   1.00
N1698  N     0.50000   0.75000   0.71427   0.00000  Uiso   1.00
N1699  N     0.75000   0.50000   0.95240   0.00000  Uiso   1.00
N1700  N     0.75000   0.50000   0.71427   0.00000  Uiso   1.00
O1701  O     0.54580   0.70419   0.87154   0.00000  Uiso   1.00
O1702  O     0.70419   0.54581   0.79513   0.00000  Uiso   1.00
O1703  O     0.70419   0.54581   0.87154   0.00000  Uiso   1.00
O1704  O     0.79580   0.95419   0.79513   0.00000  Uiso   1.00
O1705  O     0.70419   0.95419   0.79513   0.00000  Uiso   1.00
O1706  O     0.79580   0.54581   0.87154   0.00000  Uiso   1.00
O1707  O     0.79580   0.54581   0.79513   0.00000  Uiso   1.00
O1708  O     0.70419   0.95419   0.87154   0.00000  Uiso   1.00
O1709  O     0.50006   0.83025   0.71406   0.00000  Uiso   1.00
O1710  O     0.99696   0.67030   0.95167   0.00000  Uiso   1.00
O1711  O     0.99999   0.67031   0.71530   0.00000  Uiso   1.00
O1712  O     0.95419   0.79581   0.79513   0.00000  Uiso   1.00
O1713  O     0.50492   0.82968   0.95193   0.00000  Uiso   1.00
O1714  O     0.77738   0.57484   0.70862   0.00000  Uiso   1.00
O1715  O     0.77821   0.92545   0.95832   0.00000  Uiso   1.00
O1716  O     0.72285   0.92509   0.70884   0.00000  Uiso   1.00
O1717  O     0.72205   0.57464   0.95796   0.00000  Uiso   1.00
O1718  O     0.95419   0.79581   0.87154   0.00000  Uiso   1.00
O1719  O     0.54580   0.70419   0.79513   0.00000  Uiso   1.00
O1720  O     0.95419   0.70419   0.79513   0.00000  Uiso   1.00
O1721  O     0.54580   0.79581   0.87154   0.00000  Uiso   1.00
O1722  O     0.54580   0.79581   0.79513   0.00000  Uiso   1.00
O1723  O     0.95419   0.70419   0.87154   0.00000  Uiso   1.00
O1724  O     0.79580   0.95419   0.87154   0.00000  Uiso   1.00
Zn1725 Zn    0.50000   0.75000   0.88437   0.00000  Uiso   1.00
Zn1726 Zn    0.50000   0.75000   0.78229   0.00000  Uiso   1.00
Zn1727 Zn    0.75000   0.50000   0.88437   0.00000  Uiso   1.00
Zn1728 Zn    0.75000   0.50000   0.78229   0.00000  Uiso   1.00
loop_
_geom_bond_atom_site_label_1
_geom_bond_atom_site_label_2
_geom_bond_distance
_geom_bond_site_symmetry_2
_ccdc_geom_bond_type
C1     O117    1.284   .     A
C1     O135    1.291   .     A
C1     C30     1.416   .     S
C2     O126    1.384   .     S
C2     C723    1.442   .     S
C2     N257    1.371   .     S
C3     C1298   1.442   1_454 S
C3     N114    1.370   .     S
C3     O271    1.384   1_455 S
C4     N113    1.370   .     A
C4     O129    1.382   .     S
C4     C776    1.435   1_455 S
C5     N116    1.375   .     A
C5     O130    1.386   .     S
C5     C1160   1.432   1_554 S
C6     O131    1.385   .     S
C6     C583    1.432   .     S
C6     N403    1.376   .     S
C7     O132    1.386   .     S
C7     C1158   1.432   1_554 S
C7     N404    1.374   .     S
C8     N115    1.376   .     A
C8     O133    1.385   .     S
C8     C581    1.432   .     S
C9     H57     1.084   .     S
C9     C20     1.373   .     A
C9     C28     1.398   .     A
C10    C27     1.390   .     A
C10    C21     1.368   .     A
C10    H68     1.082   .     S
C11    C18     1.374   .     A
C11    C27     1.398   .     A
C11    H79     1.084   .     S
C12    C29     1.416   .     S
C12    O134    1.284   .     A
C12    O128    1.291   .     A
C13    H90     1.082   .     S
C13    C19     1.367   .     A
C13    C28     1.391   .     A
C14    C30     1.398   .     A
C14    H101    1.084   .     S
C14    C25     1.373   .     A
C15    H109    1.083   .     S
C15    C29     1.392   .     A
C15    C26     1.367   .     A
C16    H110    1.084   .     S
C16    C29     1.398   .     A
C16    C22     1.372   .     A
C17    C30     1.392   .     A
C17    H111    1.082   .     S
C17    C24     1.367   .     A
C18    H112    1.084   .     S
C18    C32     1.397   .     A
C19    C31     1.395   .     A
C19    H58     1.075   .     S
C20    H59     1.084   .     S
C20    C31     1.397   .     A
C21    H60     1.074   .     S
C21    C32     1.395   .     A
C22    C35     1.397   .     A
C22    H61     1.084   .     S
C23    O136    1.283   .     A
C23    O139    1.291   .     A
C23    C28     1.414   .     S
C24    H62     1.076   .     S
C24    C33     1.395   .     A
C25    H63     1.084   .     S
C25    C33     1.397   .     A
C26    H64     1.077   .     S
C26    C35     1.396   .     A
C27    C34     1.414   .     S
C31    C55     1.419   .     S
C32    C54     1.419   .     S
C33    C53     1.420   .     S
C34    O138    1.282   .     A
C34    O137    1.291   .     A
C35    C45     1.419   .     S
C36    C37     1.525   .     S
C36    H65     1.105   .     S
C36    H66     1.117   .     S
C36    O269    1.419   .     S
C37    H69     1.111   .     S
C37    H70     1.111   .     S
C37    H1219   1.107   1_554 S
C38    C39     1.522   .     S
C38    O126    1.413   .     S
C38    H72     1.108   .     S
C38    H71     1.109   .     S
C39    H74     1.109   .     S
C39    H75     1.111   .     S
C39    H73     1.111   .     S
C40    H76     1.110   .     S
C40    C41     1.522   .     S
C40    H77     1.109   .     S
C40    O271    1.413   1_455 S
C41    H80     1.109   .     S
C41    H78     1.111   .     S
C41    H81     1.111   .     S
C42    H82     1.110   .     S
C42    C43     1.523   .     S
C42    H83     1.109   .     S
C42    O129    1.415   .     S
C43    H84     1.110   .     S
C43    H85     1.109   .     S
C43    H86     1.110   .     S
C44    O130    1.408   .     S
C44    H87     1.100   .     S
C44    C46     1.524   .     S
C44    H88     1.112   .     S
C45    O140    1.288   .     A
C45    O120    1.289   .     A
C46    H89     1.108   .     S
C46    H92     1.111   .     S
C46    H91     1.110   .     S
C47    O131    1.407   .     S
C47    C48     1.524   .     S
C47    H93     1.100   .     S
C47    H94     1.113   .     S
C48    H95     1.111   .     S
C48    H97     1.107   .     S
C48    H96     1.110   .     S
C49    H98     1.101   .     S
C49    O132    1.408   .     S
C49    H99     1.112   .     S
C49    C50     1.524   .     S
C50    H103    1.108   .     S
C50    H102    1.111   .     S
C50    H100    1.111   .     S
C51    C52     1.524   .     S
C51    H105    1.113   .     S
C51    H104    1.100   .     S
C51    O133    1.408   .     S
C52    H107    1.111   .     S
C52    H106    1.111   .     S
C52    H108    1.108   .     S
C53    O119    1.287   .     A
C53    O118    1.289   .     A
C54    O121    1.287   .     A
C54    O124    1.289   .     A
C55    O122    1.289   .     A
C55    O123    1.287   .     A
C56    N258    1.373   .     A
C56    C1300   1.435   1_554 S
C56    O269    1.385   .     S
H67    C613    1.107   .     S
N113   C146    1.371   1_455 S
N113   Zn141   2.023   .     S
N114   C200    1.373   1_455 A
N114   Zn142   2.023   .     S
N115   Zn143   2.023   .     S
N115   C294    1.376   1_545 S
N116   Zn144   2.023   .     S
N116   C295    1.374   1_545 S
O117   Zn141   1.997   .     S
O118   Zn144   1.997   .     S
O119   Zn143   1.996   .     S
O120   Zn432   1.996   .     S
O121   Zn432   1.995   .     S
O122   Zn143   1.995   .     S
O123   Zn144   1.995   .     S
O124   Zn431   1.995   .     S
O125   C180    1.419   1_455 S
O125   C200    1.385   1_455 S
O127   C184    1.413   .     S
O127   C147    1.384   .     S
O128   Zn286   1.997   .     S
O134   Zn285   1.996   .     S
O135   Zn142   1.996   .     S
O136   Zn286   1.995   .     S
O137   Zn141   1.995   .     S
O138   Zn142   1.995   .     S
O139   Zn285   1.995   .     S
O140   Zn431   1.997   .     S
Zn141  O283    1.995   1_455 S
Zn141  O278    1.996   1_455 S
Zn142  O280    1.995   1_455 S
Zn142  O272    1.997   1_455 S
Zn143  O412    1.995   1_545 S
Zn143  O428    1.997   1_545 S
Zn144  O409    1.995   1_545 S
Zn144  O408    1.996   1_545 S
C145   O261    1.284   .     A
C145   O279    1.291   .     A
C145   C174    1.416   .     S
C146   O270    1.384   .     S
C146   C579    1.442   1_655 S
C146   N113    1.371   1_655 S
C147   C1154   1.442   1_554 S
C147   N258    1.370   .     S
C148   N257    1.370   .     A
C148   O273    1.382   .     S
C148   C632    1.435   .     S
C149   N260    1.375   .     A
C149   O274    1.386   .     S
C149   C1304   1.432   1_554 S
C150   O275    1.385   .     S
C150   C727    1.432   .     S
C150   N547    1.376   .     S
C151   O276    1.386   .     S
C151   C1302   1.432   1_554 S
C151   N548    1.374   .     S
C152   N259    1.376   .     A
C152   O277    1.385   .     S
C152   C725    1.432   .     S
C153   H201    1.084   .     S
C153   C164    1.373   .     A
C153   C172    1.398   .     A
C154   C171    1.390   .     A
C154   C165    1.368   .     A
C154   H212    1.082   .     S
C155   C162    1.374   .     A
C155   C171    1.398   .     A
C155   H223    1.084   .     S
C156   C173    1.416   .     S
C156   O278    1.284   .     A
C156   O272    1.291   .     A
C157   H234    1.082   .     S
C157   C163    1.367   .     A
C157   C172    1.391   .     A
C158   C174    1.398   .     A
C158   H245    1.084   .     S
C158   C169    1.373   .     A
C159   H253    1.083   .     S
C159   C173    1.392   .     A
C159   C170    1.367   .     A
C160   H254    1.084   .     S
C160   C173    1.398   .     A
C160   C166    1.372   .     A
C161   C174    1.392   .     A
C161   H255    1.082   .     S
C161   C168    1.367   .     A
C162   H256    1.084   .     S
C162   C176    1.397   .     A
C163   C175    1.395   .     A
C163   H202    1.075   .     S
C164   H203    1.084   .     S
C164   C175    1.397   .     A
C165   H204    1.074   .     S
C165   C176    1.395   .     A
C166   C179    1.397   .     A
C166   H205    1.084   .     S
C167   O280    1.283   .     A
C167   O283    1.291   .     A
C167   C172    1.414   .     S
C168   H206    1.076   .     S
C168   C177    1.395   .     A
C169   H207    1.084   .     S
C169   C177    1.397   .     A
C170   H208    1.077   .     S
C170   C179    1.396   .     A
C171   C178    1.414   .     S
C175   C199    1.419   .     S
C176   C198    1.419   .     S
C177   C197    1.420   .     S
C178   O282    1.282   .     A
C178   O281    1.291   .     A
C179   C189    1.419   .     S
C180   C181    1.525   .     S
C180   H209    1.105   .     S
C180   H210    1.117   .     S
C180   O125    1.419   1_655 S
C181   H213    1.111   .     S
C181   H214    1.111   .     S
C181   H1363   1.107   1_554 S
C182   C183    1.522   .     S
C182   O270    1.413   .     S
C182   H216    1.108   .     S
C182   H215    1.109   .     S
C183   H218    1.109   .     S
C183   H219    1.111   .     S
C183   H217    1.111   .     S
C184   H220    1.110   .     S
C184   C185    1.522   .     S
C184   H221    1.109   .     S
C185   H224    1.109   .     S
C185   H222    1.111   .     S
C185   H225    1.111   .     S
C186   H226    1.110   .     S
C186   C187    1.523   .     S
C186   H227    1.109   .     S
C186   O273    1.415   .     S
C187   H228    1.110   .     S
C187   H229    1.109   .     S
C187   H230    1.110   .     S
C188   O274    1.408   .     S
C188   H231    1.100   .     S
C188   C190    1.524   .     S
C188   H232    1.112   .     S
C189   O284    1.288   .     A
C189   O264    1.289   .     A
C190   H233    1.108   .     S
C190   H236    1.111   .     S
C190   H235    1.110   .     S
C191   O275    1.407   .     S
C191   C192    1.524   .     S
C191   H237    1.100   .     S
C191   H238    1.113   .     S
C192   H239    1.111   .     S
C192   H241    1.107   .     S
C192   H240    1.110   .     S
C193   H242    1.101   .     S
C193   O276    1.408   .     S
C193   H243    1.112   .     S
C193   C194    1.524   .     S
C194   H247    1.108   .     S
C194   H246    1.111   .     S
C194   H244    1.111   .     S
C195   C196    1.524   .     S
C195   H249    1.113   .     S
C195   H248    1.100   .     S
C195   O277    1.408   .     S
C196   H251    1.111   .     S
C196   H250    1.111   .     S
C196   H252    1.108   .     S
C197   O263    1.287   .     A
C197   O262    1.289   .     A
C198   O265    1.287   .     A
C198   O268    1.289   .     A
C199   O266    1.289   .     A
C199   O267    1.287   .     A
C200   N114    1.373   1_655 A
C200   C1156   1.435   1_654 S
C200   O125    1.385   1_655 S
H211   C757    1.107   .     S
N257   Zn285   2.023   .     S
N258   Zn286   2.023   .     S
N259   Zn287   2.023   .     S
N259   C438    1.376   1_545 S
N260   Zn288   2.023   .     S
N260   C439    1.374   1_545 S
O261   Zn285   1.997   .     S
O262   Zn288   1.997   .     S
O263   Zn287   1.996   .     S
O264   Zn576   1.996   .     S
O265   Zn576   1.995   .     S
O266   Zn287   1.995   .     S
O267   Zn288   1.995   .     S
O268   Zn575   1.995   .     S
O271   C40     1.413   1_655 S
O271   C3      1.384   1_655 S
O272   Zn142   1.997   1_655 S
O278   Zn141   1.996   1_655 S
O279   Zn286   1.996   .     S
O280   Zn142   1.995   1_655 S
O281   Zn285   1.995   .     S
O282   Zn286   1.995   .     S
O283   Zn141   1.995   1_655 S
O284   Zn575   1.997   .     S
Zn287  O556    1.995   1_545 S
Zn287  O572    1.997   1_545 S
Zn288  O553    1.995   1_545 S
Zn288  O552    1.996   1_545 S
C289   O405    1.284   .     A
C289   O423    1.291   .     A
C289   C318    1.416   .     S
C290   O414    1.384   .     S
C290   C1011   1.442   .     S
C290   N545    1.371   .     S
C291   C1586   1.442   1_454 S
C291   N402    1.370   .     S
C291   O559    1.384   1_455 S
C292   N401    1.370   .     A
C292   O417    1.382   .     S
C292   C1064   1.435   1_455 S
C293   N404    1.375   .     A
C293   O418    1.386   .     S
C293   C1448   1.432   1_554 S
C294   O419    1.385   .     S
C294   C871    1.432   .     S
C294   N115    1.376   1_565 S
C295   O420    1.386   .     S
C295   C1446   1.432   1_554 S
C295   N116    1.374   1_565 S
C296   N403    1.376   .     A
C296   O421    1.385   .     S
C296   C869    1.432   .     S
C297   H345    1.084   .     S
C297   C308    1.373   .     A
C297   C316    1.398   .     A
C298   C315    1.390   .     A
C298   C309    1.368   .     A
C298   H356    1.082   .     S
C299   C306    1.374   .     A
C299   C315    1.398   .     A
C299   H367    1.084   .     S
C300   C317    1.416   .     S
C300   O422    1.284   .     A
C300   O416    1.291   .     A
C301   H378    1.082   .     S
C301   C307    1.367   .     A
C301   C316    1.391   .     A
C302   C318    1.398   .     A
C302   H389    1.084   .     S
C302   C313    1.373   .     A
C303   H397    1.083   .     S
C303   C317    1.392   .     A
C303   C314    1.367   .     A
C304   H398    1.084   .     S
C304   C317    1.398   .     A
C304   C310    1.372   .     A
C305   C318    1.392   .     A
C305   H399    1.082   .     S
C305   C312    1.367   .     A
C306   H400    1.084   .     S
C306   C320    1.397   .     A
C307   C319    1.395   .     A
C307   H346    1.075   .     S
C308   H347    1.084   .     S
C308   C319    1.397   .     A
C309   H348    1.074   .     S
C309   C320    1.395   .     A
C310   C323    1.397   .     A
C310   H349    1.084   .     S
C311   O424    1.283   .     A
C311   O427    1.291   .     A
C311   C316    1.414   .     S
C312   H350    1.076   .     S
C312   C321    1.395   .     A
C313   H351    1.084   .     S
C313   C321    1.397   .     A
C314   H352    1.077   .     S
C314   C323    1.396   .     A
C315   C322    1.414   .     S
C319   C343    1.419   .     S
C320   C342    1.419   .     S
C321   C341    1.420   .     S
C322   O426    1.282   .     A
C322   O425    1.291   .     A
C323   C333    1.419   .     S
C324   C325    1.525   .     S
C324   H353    1.105   .     S
C324   H354    1.117   .     S
C324   O557    1.419   .     S
C325   H357    1.111   .     S
C325   H358    1.111   .     S
C325   H1507   1.107   1_554 S
C326   C327    1.522   .     S
C326   O414    1.413   .     S
C326   H360    1.108   .     S
C326   H359    1.109   .     S
C327   H362    1.109   .     S
C327   H363    1.111   .     S
C327   H361    1.111   .     S
C328   H364    1.110   .     S
C328   C329    1.522   .     S
C328   H365    1.109   .     S
C328   O559    1.413   1_455 S
C329   H368    1.109   .     S
C329   H366    1.111   .     S
C329   H369    1.111   .     S
C330   H370    1.110   .     S
C330   C331    1.523   .     S
C330   H371    1.109   .     S
C330   O417    1.415   .     S
C331   H372    1.110   .     S
C331   H373    1.109   .     S
C331   H374    1.110   .     S
C332   O418    1.408   .     S
C332   H375    1.100   .     S
C332   C334    1.524   .     S
C332   H376    1.112   .     S
C333   O428    1.288   .     A
C333   O408    1.289   .     A
C334   H377    1.108   .     S
C334   H380    1.111   .     S
C334   H379    1.110   .     S
C335   O419    1.407   .     S
C335   C336    1.524   .     S
C335   H381    1.100   .     S
C335   H382    1.113   .     S
C336   H383    1.111   .     S
C336   H385    1.107   .     S
C336   H384    1.110   .     S
C337   H386    1.101   .     S
C337   O420    1.408   .     S
C337   H387    1.112   .     S
C337   C338    1.524   .     S
C338   H391    1.108   .     S
C338   H390    1.111   .     S
C338   H388    1.111   .     S
C339   C340    1.524   .     S
C339   H393    1.113   .     S
C339   H392    1.100   .     S
C339   O421    1.408   .     S
C340   H395    1.111   .     S
C340   H394    1.111   .     S
C340   H396    1.108   .     S
C341   O407    1.287   .     A
C341   O406    1.289   .     A
C342   O409    1.287   .     A
C342   O412    1.289   .     A
C343   O410    1.289   .     A
C343   O411    1.287   .     A
C344   N546    1.373   .     A
C344   C1588   1.435   1_554 S
C344   O557    1.385   .     S
H355   C901    1.107   .     S
N401   C434    1.371   1_455 S
N401   Zn429   2.023   .     S
N402   C488    1.373   1_455 A
N402   Zn430   2.023   .     S
N403   Zn431   2.023   .     S
N404   Zn432   2.023   .     S
O405   Zn429   1.997   .     S
O406   Zn432   1.997   .     S
O407   Zn431   1.996   .     S
O408   Zn144   1.996   1_565 S
O409   Zn144   1.995   1_565 S
O410   Zn431   1.995   .     S
O411   Zn432   1.995   .     S
O412   Zn143   1.995   1_565 S
O413   C468    1.419   1_455 S
O413   C488    1.385   1_455 S
O415   C472    1.413   .     S
O415   C435    1.384   .     S
O416   Zn574   1.997   .     S
O422   Zn573   1.996   .     S
O423   Zn430   1.996   .     S
O424   Zn574   1.995   .     S
O425   Zn429   1.995   .     S
O426   Zn430   1.995   .     S
O427   Zn573   1.995   .     S
O428   Zn143   1.997   1_565 S
Zn429  O571    1.995   1_455 S
Zn429  O566    1.996   1_455 S
Zn430  O568    1.995   1_455 S
Zn430  O560    1.997   1_455 S
C433   O549    1.284   .     A
C433   O567    1.291   .     A
C433   C462    1.416   .     S
C434   O558    1.384   .     S
C434   C867    1.442   1_655 S
C434   N401    1.371   1_655 S
C435   C1442   1.442   1_554 S
C435   N546    1.370   .     S
C436   N545    1.370   .     A
C436   O561    1.382   .     S
C436   C920    1.435   .     S
C437   N548    1.375   .     A
C437   O562    1.386   .     S
C437   C1592   1.432   1_554 S
C438   O563    1.385   .     S
C438   C1015   1.432   .     S
C438   N259    1.376   1_565 S
C439   O564    1.386   .     S
C439   C1590   1.432   1_554 S
C439   N260    1.374   1_565 S
C440   N547    1.376   .     A
C440   O565    1.385   .     S
C440   C1013   1.432   .     S
C441   H489    1.084   .     S
C441   C452    1.373   .     A
C441   C460    1.398   .     A
C442   C459    1.390   .     A
C442   C453    1.368   .     A
C442   H500    1.082   .     S
C443   C450    1.374   .     A
C443   C459    1.398   .     A
C443   H511    1.084   .     S
C444   C461    1.416   .     S
C444   O566    1.284   .     A
C444   O560    1.291   .     A
C445   H522    1.082   .     S
C445   C451    1.367   .     A
C445   C460    1.391   .     A
C446   C462    1.398   .     A
C446   H533    1.084   .     S
C446   C457    1.373   .     A
C447   H541    1.083   .     S
C447   C461    1.392   .     A
C447   C458    1.367   .     A
C448   H542    1.084   .     S
C448   C461    1.398   .     A
C448   C454    1.372   .     A
C449   C462    1.392   .     A
C449   H543    1.082   .     S
C449   C456    1.367   .     A
C450   H544    1.084   .     S
C450   C464    1.397   .     A
C451   C463    1.395   .     A
C451   H490    1.075   .     S
C452   H491    1.084   .     S
C452   C463    1.397   .     A
C453   H492    1.074   .     S
C453   C464    1.395   .     A
C454   C467    1.397   .     A
C454   H493    1.084   .     S
C455   O568    1.283   .     A
C455   O571    1.291   .     A
C455   C460    1.414   .     S
C456   H494    1.076   .     S
C456   C465    1.395   .     A
C457   H495    1.084   .     S
C457   C465    1.397   .     A
C458   H496    1.077   .     S
C458   C467    1.396   .     A
C459   C466    1.414   .     S
C463   C487    1.419   .     S
C464   C486    1.419   .     S
C465   C485    1.420   .     S
C466   O570    1.282   .     A
C466   O569    1.291   .     A
C467   C477    1.419   .     S
C468   C469    1.525   .     S
C468   H497    1.105   .     S
C468   H498    1.117   .     S
C468   O413    1.419   1_655 S
C469   H501    1.111   .     S
C469   H502    1.111   .     S
C469   H1651   1.107   1_554 S
C470   C471    1.522   .     S
C470   O558    1.413   .     S
C470   H504    1.108   .     S
C470   H503    1.109   .     S
C471   H506    1.109   .     S
C471   H507    1.111   .     S
C471   H505    1.111   .     S
C472   H508    1.110   .     S
C472   C473    1.522   .     S
C472   H509    1.109   .     S
C473   H512    1.109   .     S
C473   H510    1.111   .     S
C473   H513    1.111   .     S
C474   H514    1.110   .     S
C474   C475    1.523   .     S
C474   H515    1.109   .     S
C474   O561    1.415   .     S
C475   H516    1.110   .     S
C475   H517    1.109   .     S
C475   H518    1.110   .     S
C476   O562    1.408   .     S
C476   H519    1.100   .     S
C476   C478    1.524   .     S
C476   H520    1.112   .     S
C477   O572    1.288   .     A
C477   O552    1.289   .     A
C478   H521    1.108   .     S
C478   H524    1.111   .     S
C478   H523    1.110   .     S
C479   O563    1.407   .     S
C479   C480    1.524   .     S
C479   H525    1.100   .     S
C479   H526    1.113   .     S
C480   H527    1.111   .     S
C480   H529    1.107   .     S
C480   H528    1.110   .     S
C481   H530    1.101   .     S
C481   O564    1.408   .     S
C481   H531    1.112   .     S
C481   C482    1.524   .     S
C482   H535    1.108   .     S
C482   H534    1.111   .     S
C482   H532    1.111   .     S
C483   C484    1.524   .     S
C483   H537    1.113   .     S
C483   H536    1.100   .     S
C483   O565    1.408   .     S
C484   H539    1.111   .     S
C484   H538    1.111   .     S
C484   H540    1.108   .     S
C485   O551    1.287   .     A
C485   O550    1.289   .     A
C486   O553    1.287   .     A
C486   O556    1.289   .     A
C487   O554    1.289   .     A
C487   O555    1.287   .     A
C488   N402    1.373   1_655 A
C488   C1444   1.435   1_654 S
C488   O413    1.385   1_655 S
H499   C1045   1.107   .     S
N545   Zn573   2.023   .     S
N546   Zn574   2.023   .     S
N547   Zn575   2.023   .     S
N548   Zn576   2.023   .     S
O549   Zn573   1.997   .     S
O550   Zn576   1.997   .     S
O551   Zn575   1.996   .     S
O552   Zn288   1.996   1_565 S
O553   Zn288   1.995   1_565 S
O554   Zn575   1.995   .     S
O555   Zn576   1.995   .     S
O556   Zn287   1.995   1_565 S
O559   C328    1.413   1_655 S
O559   C291    1.384   1_655 S
O560   Zn430   1.997   1_655 S
O566   Zn429   1.996   1_655 S
O567   Zn574   1.996   .     S
O568   Zn430   1.995   1_655 S
O569   Zn573   1.995   .     S
O570   Zn574   1.995   .     S
O571   Zn429   1.995   1_655 S
O572   Zn287   1.997   1_565 S
C577   O693    1.284   .     A
C577   O711    1.291   .     A
C577   C606    1.416   .     S
C578   O702    1.384   .     S
C578   C1299   1.442   .     S
C578   N833    1.371   .     S
C579   C146    1.442   1_455 S
C579   N690    1.370   .     S
C579   O847    1.384   1_455 S
C580   N689    1.370   .     A
C580   O705    1.382   .     S
C580   C1352   1.435   1_455 S
C581   N692    1.375   .     A
C581   O706    1.386   .     S
C582   O707    1.385   .     S
C582   C1159   1.432   .     S
C582   N979    1.376   .     S
C583   O708    1.386   .     S
C583   N980    1.374   .     S
C584   N691    1.376   .     A
C584   O709    1.385   .     S
C584   C1157   1.432   .     S
C585   H633    1.084   .     S
C585   C596    1.373   .     A
C585   C604    1.398   .     A
C586   C603    1.390   .     A
C586   C597    1.368   .     A
C586   H644    1.082   .     S
C587   C594    1.374   .     A
C587   C603    1.398   .     A
C587   H655    1.084   .     S
C588   C605    1.416   .     S
C588   O710    1.284   .     A
C588   O704    1.291   .     A
C589   H666    1.082   .     S
C589   C595    1.367   .     A
C589   C604    1.391   .     A
C590   C606    1.398   .     A
C590   H677    1.084   .     S
C590   C601    1.373   .     A
C591   H685    1.083   .     S
C591   C605    1.392   .     A
C591   C602    1.367   .     A
C592   H686    1.084   .     S
C592   C605    1.398   .     A
C592   C598    1.372   .     A
C593   C606    1.392   .     A
C593   H687    1.082   .     S
C593   C600    1.367   .     A
C594   H688    1.084   .     S
C594   C608    1.397   .     A
C595   C607    1.395   .     A
C595   H634    1.075   .     S
C596   H635    1.084   .     S
C596   C607    1.397   .     A
C597   H636    1.074   .     S
C597   C608    1.395   .     A
C598   C611    1.397   .     A
C598   H637    1.084   .     S
C599   O712    1.283   .     A
C599   O715    1.291   .     A
C599   C604    1.414   .     S
C600   H638    1.076   .     S
C600   C609    1.395   .     A
C601   H639    1.084   .     S
C601   C609    1.397   .     A
C602   H640    1.077   .     S
C602   C611    1.396   .     A
C603   C610    1.414   .     S
C607   C631    1.419   .     S
C608   C630    1.419   .     S
C609   C629    1.420   .     S
C610   O714    1.282   .     A
C610   O713    1.291   .     A
C611   C621    1.419   .     S
C612   C613    1.525   .     S
C612   H641    1.105   .     S
C612   H642    1.117   .     S
C612   O845    1.419   .     S
C613   H645    1.111   .     S
C613   H646    1.111   .     S
C614   C615    1.522   .     S
C614   O702    1.413   .     S
C614   H648    1.108   .     S
C614   H647    1.109   .     S
C615   H650    1.109   .     S
C615   H651    1.111   .     S
C615   H649    1.111   .     S
C616   H652    1.110   .     S
C616   C617    1.522   .     S
C616   H653    1.109   .     S
C616   O847    1.413   1_455 S
C617   H656    1.109   .     S
C617   H654    1.111   .     S
C617   H657    1.111   .     S
C618   H658    1.110   .     S
C618   C619    1.523   .     S
C618   H659    1.109   .     S
C618   O705    1.415   .     S
C619   H660    1.110   .     S
C619   H661    1.109   .     S
C619   H662    1.110   .     S
C620   O706    1.408   .     S
C620   H663    1.100   .     S
C620   C622    1.524   .     S
C620   H664    1.112   .     S
C621   O716    1.288   .     A
C621   O696    1.289   .     A
C622   H665    1.108   .     S
C622   H668    1.111   .     S
C622   H667    1.110   .     S
C623   O707    1.407   .     S
C623   C624    1.524   .     S
C623   H669    1.100   .     S
C623   H670    1.113   .     S
C624   H671    1.111   .     S
C624   H673    1.107   .     S
C624   H672    1.110   .     S
C625   H674    1.101   .     S
C625   O708    1.408   .     S
C625   H675    1.112   .     S
C625   C626    1.524   .     S
C626   H679    1.108   .     S
C626   H678    1.111   .     S
C626   H676    1.111   .     S
C627   C628    1.524   .     S
C627   H681    1.113   .     S
C627   H680    1.100   .     S
C627   O709    1.408   .     S
C628   H683    1.111   .     S
C628   H682    1.111   .     S
C628   H684    1.108   .     S
C629   O695    1.287   .     A
C629   O694    1.289   .     A
C630   O697    1.287   .     A
C630   O700    1.289   .     A
C631   O698    1.289   .     A
C631   O699    1.287   .     A
C632   N834    1.373   .     A
C632   O845    1.385   .     S
H643   C1189   1.107   .     S
N689   C722    1.371   1_455 S
N689   Zn717   2.023   .     S
N690   C776    1.373   1_455 A
N690   Zn718   2.023   .     S
N691   Zn719   2.023   .     S
N691   C870    1.376   1_545 S
N692   Zn720   2.023   .     S
N692   C871    1.374   1_545 S
O693   Zn717   1.997   .     S
O694   Zn720   1.997   .     S
O695   Zn719   1.996   .     S
O696   Zn1008  1.996   .     S
O697   Zn1008  1.995   .     S
O698   Zn719   1.995   .     S
O699   Zn720   1.995   .     S
O700   Zn1007  1.995   .     S
O701   C756    1.419   1_455 S
O701   C776    1.385   1_455 S
O703   C760    1.413   .     S
O703   C723    1.384   .     S
O704   Zn862   1.997   .     S
O710   Zn861   1.996   .     S
O711   Zn718   1.996   .     S
O712   Zn862   1.995   .     S
O713   Zn717   1.995   .     S
O714   Zn718   1.995   .     S
O715   Zn861   1.995   .     S
O716   Zn1007  1.997   .     S
Zn717  O859    1.995   1_455 S
Zn717  O854    1.996   1_455 S
Zn718  O856    1.995   1_455 S
Zn718  O848    1.997   1_455 S
Zn719  O988    1.995   1_545 S
Zn719  O1004   1.997   1_545 S
Zn720  O985    1.995   1_545 S
Zn720  O984    1.996   1_545 S
C721   O837    1.284   .     A
C721   O855    1.291   .     A
C721   C750    1.416   .     S
C722   O846    1.384   .     S
C722   C1155   1.442   1_655 S
C722   N689    1.371   1_655 S
C723   N834    1.370   .     S
C724   N833    1.370   .     A
C724   O849    1.382   .     S
C724   C1208   1.435   .     S
C725   N836    1.375   .     A
C725   O850    1.386   .     S
C726   O851    1.385   .     S
C726   C1303   1.432   .     S
C726   N1123   1.376   .     S
C727   O852    1.386   .     S
C727   N1124   1.374   .     S
C728   N835    1.376   .     A
C728   O853    1.385   .     S
C728   C1301   1.432   .     S
C729   H777    1.084   .     S
C729   C740    1.373   .     A
C729   C748    1.398   .     A
C730   C747    1.390   .     A
C730   C741    1.368   .     A
C730   H788    1.082   .     S
C731   C738    1.374   .     A
C731   C747    1.398   .     A
C731   H799    1.084   .     S
C732   C749    1.416   .     S
C732   O854    1.284   .     A
C732   O848    1.291   .     A
C733   H810    1.082   .     S
C733   C739    1.367   .     A
C733   C748    1.391   .     A
C734   C750    1.398   .     A
C734   H821    1.084   .     S
C734   C745    1.373   .     A
C735   H829    1.083   .     S
C735   C749    1.392   .     A
C735   C746    1.367   .     A
C736   H830    1.084   .     S
C736   C749    1.398   .     A
C736   C742    1.372   .     A
C737   C750    1.392   .     A
C737   H831    1.082   .     S
C737   C744    1.367   .     A
C738   H832    1.084   .     S
C738   C752    1.397   .     A
C739   C751    1.395   .     A
C739   H778    1.075   .     S
C740   H779    1.084   .     S
C740   C751    1.397   .     A
C741   H780    1.074   .     S
C741   C752    1.395   .     A
C742   C755    1.397   .     A
C742   H781    1.084   .     S
C743   O856    1.283   .     A
C743   O859    1.291   .     A
C743   C748    1.414   .     S
C744   H782    1.076   .     S
C744   C753    1.395   .     A
C745   H783    1.084   .     S
C745   C753    1.397   .     A
C746   H784    1.077   .     S
C746   C755    1.396   .     A
C747   C754    1.414   .     S
C751   C775    1.419   .     S
C752   C774    1.419   .     S
C753   C773    1.420   .     S
C754   O858    1.282   .     A
C754   O857    1.291   .     A
C755   C765    1.419   .     S
C756   C757    1.525   .     S
C756   H785    1.105   .     S
C756   H786    1.117   .     S
C756   O701    1.419   1_655 S
C757   H789    1.111   .     S
C757   H790    1.111   .     S
C758   C759    1.522   .     S
C758   O846    1.413   .     S
C758   H792    1.108   .     S
C758   H791    1.109   .     S
C759   H794    1.109   .     S
C759   H795    1.111   .     S
C759   H793    1.111   .     S
C760   H796    1.110   .     S
C760   C761    1.522   .     S
C760   H797    1.109   .     S
C761   H800    1.109   .     S
C761   H798    1.111   .     S
C761   H801    1.111   .     S
C762   H802    1.110   .     S
C762   C763    1.523   .     S
C762   H803    1.109   .     S
C762   O849    1.415   .     S
C763   H804    1.110   .     S
C763   H805    1.109   .     S
C763   H806    1.110   .     S
C764   O850    1.408   .     S
C764   H807    1.100   .     S
C764   C766    1.524   .     S
C764   H808    1.112   .     S
C765   O860    1.288   .     A
C765   O840    1.289   .     A
C766   H809    1.108   .     S
C766   H812    1.111   .     S
C766   H811    1.110   .     S
C767   O851    1.407   .     S
C767   C768    1.524   .     S
C767   H813    1.100   .     S
C767   H814    1.113   .     S
C768   H815    1.111   .     S
C768   H817    1.107   .     S
C768   H816    1.110   .     S
C769   H818    1.101   .     S
C769   O852    1.408   .     S
C769   H819    1.112   .     S
C769   C770    1.524   .     S
C770   H823    1.108   .     S
C770   H822    1.111   .     S
C770   H820    1.111   .     S
C771   C772    1.524   .     S
C771   H825    1.113   .     S
C771   H824    1.100   .     S
C771   O853    1.408   .     S
C772   H827    1.111   .     S
C772   H826    1.111   .     S
C772   H828    1.108   .     S
C773   O839    1.287   .     A
C773   O838    1.289   .     A
C774   O841    1.287   .     A
C774   O844    1.289   .     A
C775   O842    1.289   .     A
C775   O843    1.287   .     A
C776   N690    1.373   1_655 A
C776   C4      1.435   1_655 S
C776   O701    1.385   1_655 S
H787   C1333   1.107   .     S
N833   Zn861   2.023   .     S
N834   Zn862   2.023   .     S
N835   Zn863   2.023   .     S
N835   C1014   1.376   1_545 S
N836   Zn864   2.023   .     S
N836   C1015   1.374   1_545 S
O837   Zn861   1.997   .     S
O838   Zn864   1.997   .     S
O839   Zn863   1.996   .     S
O840   Zn1152  1.996   .     S
O841   Zn1152  1.995   .     S
O842   Zn863   1.995   .     S
O843   Zn864   1.995   .     S
O844   Zn1151  1.995   .     S
O847   C616    1.413   1_655 S
O847   C579    1.384   1_655 S
O848   Zn718   1.997   1_655 S
O854   Zn717   1.996   1_655 S
O855   Zn862   1.996   .     S
O856   Zn718   1.995   1_655 S
O857   Zn861   1.995   .     S
O858   Zn862   1.995   .     S
O859   Zn717   1.995   1_655 S
O860   Zn1151  1.997   .     S
Zn863  O1132   1.995   1_545 S
Zn863  O1148   1.997   1_545 S
Zn864  O1129   1.995   1_545 S
Zn864  O1128   1.996   1_545 S
C865   O981    1.284   .     A
C865   O999    1.291   .     A
C865   C894    1.416   .     S
C866   O990    1.384   .     S
C866   C1587   1.442   .     S
C866   N1121   1.371   .     S
C867   C434    1.442   1_455 S
C867   N978    1.370   .     S
C867   O1135   1.384   1_455 S
C868   N977    1.370   .     A
C868   O993    1.382   .     S
C868   C1640   1.435   1_455 S
C869   N980    1.375   .     A
C869   O994    1.386   .     S
C870   O995    1.385   .     S
C870   C1447   1.432   .     S
C870   N691    1.376   1_565 S
C871   O996    1.386   .     S
C871   N692    1.374   1_565 S
C872   N979    1.376   .     A
C872   O997    1.385   .     S
C872   C1445   1.432   .     S
C873   H921    1.084   .     S
C873   C884    1.373   .     A
C873   C892    1.398   .     A
C874   C891    1.390   .     A
C874   C885    1.368   .     A
C874   H932    1.082   .     S
C875   C882    1.374   .     A
C875   C891    1.398   .     A
C875   H943    1.084   .     S
C876   C893    1.416   .     S
C876   O998    1.284   .     A
C876   O992    1.291   .     A
C877   H954    1.082   .     S
C877   C883    1.367   .     A
C877   C892    1.391   .     A
C878   C894    1.398   .     A
C878   H965    1.084   .     S
C878   C889    1.373   .     A
C879   H973    1.083   .     S
C879   C893    1.392   .     A
C879   C890    1.367   .     A
C880   H974    1.084   .     S
C880   C893    1.398   .     A
C880   C886    1.372   .     A
C881   C894    1.392   .     A
C881   H975    1.082   .     S
C881   C888    1.367   .     A
C882   H976    1.084   .     S
C882   C896    1.397   .     A
C883   C895    1.395   .     A
C883   H922    1.075   .     S
C884   H923    1.084   .     S
C884   C895    1.397   .     A
C885   H924    1.074   .     S
C885   C896    1.395   .     A
C886   C899    1.397   .     A
C886   H925    1.084   .     S
C887   O1000   1.283   .     A
C887   O1003   1.291   .     A
C887   C892    1.414   .     S
C888   H926    1.076   .     S
C888   C897    1.395   .     A
C889   H927    1.084   .     S
C889   C897    1.397   .     A
C890   H928    1.077   .     S
C890   C899    1.396   .     A
C891   C898    1.414   .     S
C895   C919    1.419   .     S
C896   C918    1.419   .     S
C897   C917    1.420   .     S
C898   O1002   1.282   .     A
C898   O1001   1.291   .     A
C899   C909    1.419   .     S
C900   C901    1.525   .     S
C900   H929    1.105   .     S
C900   H930    1.117   .     S
C900   O1133   1.419   .     S
C901   H933    1.111   .     S
C901   H934    1.111   .     S
C902   C903    1.522   .     S
C902   O990    1.413   .     S
C902   H936    1.108   .     S
C902   H935    1.109   .     S
C903   H938    1.109   .     S
C903   H939    1.111   .     S
C903   H937    1.111   .     S
C904   H940    1.110   .     S
C904   C905    1.522   .     S
C904   H941    1.109   .     S
C904   O1135   1.413   1_455 S
C905   H944    1.109   .     S
C905   H942    1.111   .     S
C905   H945    1.111   .     S
C906   H946    1.110   .     S
C906   C907    1.523   .     S
C906   H947    1.109   .     S
C906   O993    1.415   .     S
C907   H948    1.110   .     S
C907   H949    1.109   .     S
C907   H950    1.110   .     S
C908   O994    1.408   .     S
C908   H951    1.100   .     S
C908   C910    1.524   .     S
C908   H952    1.112   .     S
C909   O1004   1.288   .     A
C909   O984    1.289   .     A
C910   H953    1.108   .     S
C910   H956    1.111   .     S
C910   H955    1.110   .     S
C911   O995    1.407   .     S
C911   C912    1.524   .     S
C911   H957    1.100   .     S
C911   H958    1.113   .     S
C912   H959    1.111   .     S
C912   H961    1.107   .     S
C912   H960    1.110   .     S
C913   H962    1.101   .     S
C913   O996    1.408   .     S
C913   H963    1.112   .     S
C913   C914    1.524   .     S
C914   H967    1.108   .     S
C914   H966    1.111   .     S
C914   H964    1.111   .     S
C915   C916    1.524   .     S
C915   H969    1.113   .     S
C915   H968    1.100   .     S
C915   O997    1.408   .     S
C916   H971    1.111   .     S
C916   H970    1.111   .     S
C916   H972    1.108   .     S
C917   O983    1.287   .     A
C917   O982    1.289   .     A
C918   O985    1.287   .     A
C918   O988    1.289   .     A
C919   O986    1.289   .     A
C919   O987    1.287   .     A
C920   N1122   1.373   .     A
C920   O1133   1.385   .     S
H931   C1477   1.107   .     S
N977   C1010   1.371   1_455 S
N977   Zn1005  2.023   .     S
N978   C1064   1.373   1_455 A
N978   Zn1006  2.023   .     S
N979   Zn1007  2.023   .     S
N980   Zn1008  2.023   .     S
O981   Zn1005  1.997   .     S
O982   Zn1008  1.997   .     S
O983   Zn1007  1.996   .     S
O984   Zn720   1.996   1_565 S
O985   Zn720   1.995   1_565 S
O986   Zn1007  1.995   .     S
O987   Zn1008  1.995   .     S
O988   Zn719   1.995   1_565 S
O989   C1044   1.419   1_455 S
O989   C1064   1.385   1_455 S
O991   C1048   1.413   .     S
O991   C1011   1.384   .     S
O992   Zn1150  1.997   .     S
O998   Zn1149  1.996   .     S
O999   Zn1006  1.996   .     S
O1000  Zn1150  1.995   .     S
O1001  Zn1005  1.995   .     S
O1002  Zn1006  1.995   .     S
O1003  Zn1149  1.995   .     S
O1004  Zn719   1.997   1_565 S
Zn1005 O1147   1.995   1_455 S
Zn1005 O1142   1.996   1_455 S
Zn1006 O1144   1.995   1_455 S
Zn1006 O1136   1.997   1_455 S
C1009  O1125   1.284   .     A
C1009  O1143   1.291   .     A
C1009  C1038   1.416   .     S
C1010  O1134   1.384   .     S
C1010  C1443   1.442   1_655 S
C1010  N977    1.371   1_655 S
C1011  N1122   1.370   .     S
C1012  N1121   1.370   .     A
C1012  O1137   1.382   .     S
C1012  C1496   1.435   .     S
C1013  N1124   1.375   .     A
C1013  O1138   1.386   .     S
C1014  O1139   1.385   .     S
C1014  C1591   1.432   .     S
C1014  N835    1.376   1_565 S
C1015  O1140   1.386   .     S
C1015  N836    1.374   1_565 S
C1016  N1123   1.376   .     A
C1016  O1141   1.385   .     S
C1016  C1589   1.432   .     S
C1017  H1065   1.084   .     S
C1017  C1028   1.373   .     A
C1017  C1036   1.398   .     A
C1018  C1035   1.390   .     A
C1018  C1029   1.368   .     A
C1018  H1076   1.082   .     S
C1019  C1026   1.374   .     A
C1019  C1035   1.398   .     A
C1019  H1087   1.084   .     S
C1020  C1037   1.416   .     S
C1020  O1142   1.284   .     A
C1020  O1136   1.291   .     A
C1021  H1098   1.082   .     S
C1021  C1027   1.367   .     A
C1021  C1036   1.391   .     A
C1022  C1038   1.398   .     A
C1022  H1109   1.084   .     S
C1022  C1033   1.373   .     A
C1023  H1117   1.083   .     S
C1023  C1037   1.392   .     A
C1023  C1034   1.367   .     A
C1024  H1118   1.084   .     S
C1024  C1037   1.398   .     A
C1024  C1030   1.372   .     A
C1025  C1038   1.392   .     A
C1025  H1119   1.082   .     S
C1025  C1032   1.367   .     A
C1026  H1120   1.084   .     S
C1026  C1040   1.397   .     A
C1027  C1039   1.395   .     A
C1027  H1066   1.075   .     S
C1028  H1067   1.084   .     S
C1028  C1039   1.397   .     A
C1029  H1068   1.074   .     S
C1029  C1040   1.395   .     A
C1030  C1043   1.397   .     A
C1030  H1069   1.084   .     S
C1031  O1144   1.283   .     A
C1031  O1147   1.291   .     A
C1031  C1036   1.414   .     S
C1032  H1070   1.076   .     S
C1032  C1041   1.395   .     A
C1033  H1071   1.084   .     S
C1033  C1041   1.397   .     A
C1034  H1072   1.077   .     S
C1034  C1043   1.396   .     A
C1035  C1042   1.414   .     S
C1039  C1063   1.419   .     S
C1040  C1062   1.419   .     S
C1041  C1061   1.420   .     S
C1042  O1146   1.282   .     A
C1042  O1145   1.291   .     A
C1043  C1053   1.419   .     S
C1044  C1045   1.525   .     S
C1044  H1073   1.105   .     S
C1044  H1074   1.117   .     S
C1044  O989    1.419   1_655 S
C1045  H1077   1.111   .     S
C1045  H1078   1.111   .     S
C1046  C1047   1.522   .     S
C1046  O1134   1.413   .     S
C1046  H1080   1.108   .     S
C1046  H1079   1.109   .     S
C1047  H1082   1.109   .     S
C1047  H1083   1.111   .     S
C1047  H1081   1.111   .     S
C1048  H1084   1.110   .     S
C1048  C1049   1.522   .     S
C1048  H1085   1.109   .     S
C1049  H1088   1.109   .     S
C1049  H1086   1.111   .     S
C1049  H1089   1.111   .     S
C1050  H1090   1.110   .     S
C1050  C1051   1.523   .     S
C1050  H1091   1.109   .     S
C1050  O1137   1.415   .     S
C1051  H1092   1.110   .     S
C1051  H1093   1.109   .     S
C1051  H1094   1.110   .     S
C1052  O1138   1.408   .     S
C1052  H1095   1.100   .     S
C1052  C1054   1.524   .     S
C1052  H1096   1.112   .     S
C1053  O1148   1.288   .     A
C1053  O1128   1.289   .     A
C1054  H1097   1.108   .     S
C1054  H1100   1.111   .     S
C1054  H1099   1.110   .     S
C1055  O1139   1.407   .     S
C1055  C1056   1.524   .     S
C1055  H1101   1.100   .     S
C1055  H1102   1.113   .     S
C1056  H1103   1.111   .     S
C1056  H1105   1.107   .     S
C1056  H1104   1.110   .     S
C1057  H1106   1.101   .     S
C1057  O1140   1.408   .     S
C1057  H1107   1.112   .     S
C1057  C1058   1.524   .     S
C1058  H1111   1.108   .     S
C1058  H1110   1.111   .     S
C1058  H1108   1.111   .     S
C1059  C1060   1.524   .     S
C1059  H1113   1.113   .     S
C1059  H1112   1.100   .     S
C1059  O1141   1.408   .     S
C1060  H1115   1.111   .     S
C1060  H1114   1.111   .     S
C1060  H1116   1.108   .     S
C1061  O1127   1.287   .     A
C1061  O1126   1.289   .     A
C1062  O1129   1.287   .     A
C1062  O1132   1.289   .     A
C1063  O1130   1.289   .     A
C1063  O1131   1.287   .     A
C1064  N978    1.373   1_655 A
C1064  C292    1.435   1_655 S
C1064  O989    1.385   1_655 S
H1075  C1621   1.107   .     S
N1121  Zn1149  2.023   .     S
N1122  Zn1150  2.023   .     S
N1123  Zn1151  2.023   .     S
N1124  Zn1152  2.023   .     S
O1125  Zn1149  1.997   .     S
O1126  Zn1152  1.997   .     S
O1127  Zn1151  1.996   .     S
O1128  Zn864   1.996   1_565 S
O1129  Zn864   1.995   1_565 S
O1130  Zn1151  1.995   .     S
O1131  Zn1152  1.995   .     S
O1132  Zn863   1.995   1_565 S
O1135  C904    1.413   1_655 S
O1135  C867    1.384   1_655 S
O1136  Zn1006  1.997   1_655 S
O1142  Zn1005  1.996   1_655 S
O1143  Zn1150  1.996   .     S
O1144  Zn1006  1.995   1_655 S
O1145  Zn1149  1.995   .     S
O1146  Zn1150  1.995   .     S
O1147  Zn1005  1.995   1_655 S
O1148  Zn863   1.997   1_565 S
C1153  O1269   1.284   .     A
C1153  O1287   1.291   .     A
C1153  C1182   1.416   .     S
C1154  O1278   1.384   .     S
C1154  C147    1.442   1_556 S
C1154  N1409   1.371   .     S
C1155  C722    1.442   1_455 S
C1155  N1266   1.370   .     S
C1155  O1423   1.384   1_455 S
C1156  N1265   1.370   .     A
C1156  O1281   1.382   .     S
C1156  C200    1.435   1_456 S
C1157  N1268   1.375   .     A
C1157  O1282   1.386   .     S
C1158  O1283   1.385   .     S
C1158  C7      1.432   1_556 S
C1158  N1555   1.376   .     S
C1159  O1284   1.386   .     S
C1159  N1556   1.374   .     S
C1160  N1267   1.376   .     A
C1160  O1285   1.385   .     S
C1160  C5      1.432   1_556 S
C1161  H1209   1.084   .     S
C1161  C1172   1.373   .     A
C1161  C1180   1.398   .     A
C1162  C1179   1.390   .     A
C1162  C1173   1.368   .     A
C1162  H1220   1.082   .     S
C1163  C1170   1.374   .     A
C1163  C1179   1.398   .     A
C1163  H1231   1.084   .     S
C1164  C1181   1.416   .     S
C1164  O1286   1.284   .     A
C1164  O1280   1.291   .     A
C1165  H1242   1.082   .     S
C1165  C1171   1.367   .     A
C1165  C1180   1.391   .     A
C1166  C1182   1.398   .     A
C1166  H1253   1.084   .     S
C1166  C1177   1.373   .     A
C1167  H1261   1.083   .     S
C1167  C1181   1.392   .     A
C1167  C1178   1.367   .     A
C1168  H1262   1.084   .     S
C1168  C1181   1.398   .     A
C1168  C1174   1.372   .     A
C1169  C1182   1.392   .     A
C1169  H1263   1.082   .     S
C1169  C1176   1.367   .     A
C1170  H1264   1.084   .     S
C1170  C1184   1.397   .     A
C1171  C1183   1.395   .     A
C1171  H1210   1.075   .     S
C1172  H1211   1.084   .     S
C1172  C1183   1.397   .     A
C1173  H1212   1.074   .     S
C1173  C1184   1.395   .     A
C1174  C1187   1.397   .     A
C1174  H1213   1.084   .     S
C1175  O1288   1.283   .     A
C1175  O1291   1.291   .     A
C1175  C1180   1.414   .     S
C1176  H1214   1.076   .     S
C1176  C1185   1.395   .     A
C1177  H1215   1.084   .     S
C1177  C1185   1.397   .     A
C1178  H1216   1.077   .     S
C1178  C1187   1.396   .     A
C1179  C1186   1.414   .     S
C1183  C1207   1.419   .     S
C1184  C1206   1.419   .     S
C1185  C1205   1.420   .     S
C1186  O1290   1.282   .     A
C1186  O1289   1.291   .     A
C1187  C1197   1.419   .     S
C1188  C1189   1.525   .     S
C1188  H1217   1.105   .     S
C1188  H1218   1.117   .     S
C1188  O1421   1.419   .     S
C1189  H1221   1.111   .     S
C1189  H1222   1.111   .     S
C1190  C1191   1.522   .     S
C1190  O1278   1.413   .     S
C1190  H1224   1.108   .     S
C1190  H1223   1.109   .     S
C1191  H1226   1.109   .     S
C1191  H1227   1.111   .     S
C1191  H1225   1.111   .     S
C1192  H1228   1.110   .     S
C1192  C1193   1.522   .     S
C1192  H1229   1.109   .     S
C1192  O1423   1.413   1_455 S
C1193  H1232   1.109   .     S
C1193  H1230   1.111   .     S
C1193  H1233   1.111   .     S
C1194  H1234   1.110   .     S
C1194  C1195   1.523   .     S
C1194  H1235   1.109   .     S
C1194  O1281   1.415   .     S
C1195  H1236   1.110   .     S
C1195  H1237   1.109   .     S
C1195  H1238   1.110   .     S
C1196  O1282   1.408   .     S
C1196  H1239   1.100   .     S
C1196  C1198   1.524   .     S
C1196  H1240   1.112   .     S
C1197  O1292   1.288   .     A
C1197  O1272   1.289   .     A
C1198  H1241   1.108   .     S
C1198  H1244   1.111   .     S
C1198  H1243   1.110   .     S
C1199  O1283   1.407   .     S
C1199  C1200   1.524   .     S
C1199  H1245   1.100   .     S
C1199  H1246   1.113   .     S
C1200  H1247   1.111   .     S
C1200  H1249   1.107   .     S
C1200  H1248   1.110   .     S
C1201  H1250   1.101   .     S
C1201  O1284   1.408   .     S
C1201  H1251   1.112   .     S
C1201  C1202   1.524   .     S
C1202  H1255   1.108   .     S
C1202  H1254   1.111   .     S
C1202  H1252   1.111   .     S
C1203  C1204   1.524   .     S
C1203  H1257   1.113   .     S
C1203  H1256   1.100   .     S
C1203  O1285   1.408   .     S
C1204  H1259   1.111   .     S
C1204  H1258   1.111   .     S
C1204  H1260   1.108   .     S
C1205  O1271   1.287   .     A
C1205  O1270   1.289   .     A
C1206  O1273   1.287   .     A
C1206  O1276   1.289   .     A
C1207  O1274   1.289   .     A
C1207  O1275   1.287   .     A
C1208  N1410   1.373   .     A
C1208  O1421   1.385   .     S
H1219  C37     1.107   1_556 S
N1265  C1298   1.371   1_455 S
N1265  Zn1293  2.023   .     S
N1266  C1352   1.373   1_455 A
N1266  Zn1294  2.023   .     S
N1267  Zn1295  2.023   .     S
N1267  C1446   1.376   1_545 S
N1268  Zn1296  2.023   .     S
N1268  C1447   1.374   1_545 S
O1269  Zn1293  1.997   .     S
O1270  Zn1296  1.997   .     S
O1271  Zn1295  1.996   .     S
O1272  Zn1584  1.996   .     S
O1273  Zn1584  1.995   .     S
O1274  Zn1295  1.995   .     S
O1275  Zn1296  1.995   .     S
O1276  Zn1583  1.995   .     S
O1277  C1332   1.419   1_455 S
O1277  C1352   1.385   1_455 S
O1279  C1336   1.413   .     S
O1279  C1299   1.384   .     S
O1280  Zn1438  1.997   .     S
O1286  Zn1437  1.996   .     S
O1287  Zn1294  1.996   .     S
O1288  Zn1438  1.995   .     S
O1289  Zn1293  1.995   .     S
O1290  Zn1294  1.995   .     S
O1291  Zn1437  1.995   .     S
O1292  Zn1583  1.997   .     S
Zn1293 O1435   1.995   1_455 S
Zn1293 O1430   1.996   1_455 S
Zn1294 O1432   1.995   1_455 S
Zn1294 O1424   1.997   1_455 S
Zn1295 O1564   1.995   1_545 S
Zn1295 O1580   1.997   1_545 S
Zn1296 O1561   1.995   1_545 S
Zn1296 O1560   1.996   1_545 S
C1297  O1413   1.284   .     A
C1297  O1431   1.291   .     A
C1297  C1326   1.416   .     S
C1298  O1422   1.384   .     S
C1298  C3      1.442   1_656 S
C1298  N1265   1.371   1_655 S
C1299  N1410   1.370   .     S
C1300  N1409   1.370   .     A
C1300  O1425   1.382   .     S
C1300  C56     1.435   1_556 S
C1301  N1412   1.375   .     A
C1301  O1426   1.386   .     S
C1302  O1427   1.385   .     S
C1302  C151    1.432   1_556 S
C1302  N1699   1.376   .     S
C1303  O1428   1.386   .     S
C1303  N1700   1.374   .     S
C1304  N1411   1.376   .     A
C1304  O1429   1.385   .     S
C1304  C149    1.432   1_556 S
C1305  H1353   1.084   .     S
C1305  C1316   1.373   .     A
C1305  C1324   1.398   .     A
C1306  C1323   1.390   .     A
C1306  C1317   1.368   .     A
C1306  H1364   1.082   .     S
C1307  C1314   1.374   .     A
C1307  C1323   1.398   .     A
C1307  H1375   1.084   .     S
C1308  C1325   1.416   .     S
C1308  O1430   1.284   .     A
C1308  O1424   1.291   .     A
C1309  H1386   1.082   .     S
C1309  C1315   1.367   .     A
C1309  C1324   1.391   .     A
C1310  C1326   1.398   .     A
C1310  H1397   1.084   .     S
C1310  C1321   1.373   .     A
C1311  H1405   1.083   .     S
C1311  C1325   1.392   .     A
C1311  C1322   1.367   .     A
C1312  H1406   1.084   .     S
C1312  C1325   1.398   .     A
C1312  C1318   1.372   .     A
C1313  C1326   1.392   .     A
C1313  H1407   1.082   .     S
C1313  C1320   1.367   .     A
C1314  H1408   1.084   .     S
C1314  C1328   1.397   .     A
C1315  C1327   1.395   .     A
C1315  H1354   1.075   .     S
C1316  H1355   1.084   .     S
C1316  C1327   1.397   .     A
C1317  H1356   1.074   .     S
C1317  C1328   1.395   .     A
C1318  C1331   1.397   .     A
C1318  H1357   1.084   .     S
C1319  O1432   1.283   .     A
C1319  O1435   1.291   .     A
C1319  C1324   1.414   .     S
C1320  H1358   1.076   .     S
C1320  C1329   1.395   .     A
C1321  H1359   1.084   .     S
C1321  C1329   1.397   .     A
C1322  H1360   1.077   .     S
C1322  C1331   1.396   .     A
C1323  C1330   1.414   .     S
C1327  C1351   1.419   .     S
C1328  C1350   1.419   .     S
C1329  C1349   1.420   .     S
C1330  O1434   1.282   .     A
C1330  O1433   1.291   .     A
C1331  C1341   1.419   .     S
C1332  C1333   1.525   .     S
C1332  H1361   1.105   .     S
C1332  H1362   1.117   .     S
C1332  O1277   1.419   1_655 S
C1333  H1365   1.111   .     S
C1333  H1366   1.111   .     S
C1334  C1335   1.522   .     S
C1334  O1422   1.413   .     S
C1334  H1368   1.108   .     S
C1334  H1367   1.109   .     S
C1335  H1370   1.109   .     S
C1335  H1371   1.111   .     S
C1335  H1369   1.111   .     S
C1336  H1372   1.110   .     S
C1336  C1337   1.522   .     S
C1336  H1373   1.109   .     S
C1337  H1376   1.109   .     S
C1337  H1374   1.111   .     S
C1337  H1377   1.111   .     S
C1338  H1378   1.110   .     S
C1338  C1339   1.523   .     S
C1338  H1379   1.109   .     S
C1338  O1425   1.415   .     S
C1339  H1380   1.110   .     S
C1339  H1381   1.109   .     S
C1339  H1382   1.110   .     S
C1340  O1426   1.408   .     S
C1340  H1383   1.100   .     S
C1340  C1342   1.524   .     S
C1340  H1384   1.112   .     S
C1341  O1436   1.288   .     A
C1341  O1416   1.289   .     A
C1342  H1385   1.108   .     S
C1342  H1388   1.111   .     S
C1342  H1387   1.110   .     S
C1343  O1427   1.407   .     S
C1343  C1344   1.524   .     S
C1343  H1389   1.100   .     S
C1343  H1390   1.113   .     S
C1344  H1391   1.111   .     S
C1344  H1393   1.107   .     S
C1344  H1392   1.110   .     S
C1345  H1394   1.101   .     S
C1345  O1428   1.408   .     S
C1345  H1395   1.112   .     S
C1345  C1346   1.524   .     S
C1346  H1399   1.108   .     S
C1346  H1398   1.111   .     S
C1346  H1396   1.111   .     S
C1347  C1348   1.524   .     S
C1347  H1401   1.113   .     S
C1347  H1400   1.100   .     S
C1347  O1429   1.408   .     S
C1348  H1403   1.111   .     S
C1348  H1402   1.111   .     S
C1348  H1404   1.108   .     S
C1349  O1415   1.287   .     A
C1349  O1414   1.289   .     A
C1350  O1417   1.287   .     A
C1350  O1420   1.289   .     A
C1351  O1418   1.289   .     A
C1351  O1419   1.287   .     A
C1352  N1266   1.373   1_655 A
C1352  C580    1.435   1_655 S
C1352  O1277   1.385   1_655 S
H1363  C181    1.107   1_556 S
N1409  Zn1437  2.023   .     S
N1410  Zn1438  2.023   .     S
N1411  Zn1439  2.023   .     S
N1411  C1590   1.376   1_545 S
N1412  Zn1440  2.023   .     S
N1412  C1591   1.374   1_545 S
O1413  Zn1437  1.997   .     S
O1414  Zn1440  1.997   .     S
O1415  Zn1439  1.996   .     S
O1416  Zn1728  1.996   .     S
O1417  Zn1728  1.995   .     S
O1418  Zn1439  1.995   .     S
O1419  Zn1440  1.995   .     S
O1420  Zn1727  1.995   .     S
O1423  C1192   1.413   1_655 S
O1423  C1155   1.384   1_655 S
O1424  Zn1294  1.997   1_655 S
O1430  Zn1293  1.996   1_655 S
O1431  Zn1438  1.996   .     S
O1432  Zn1294  1.995   1_655 S
O1433  Zn1437  1.995   .     S
O1434  Zn1438  1.995   .     S
O1435  Zn1293  1.995   1_655 S
O1436  Zn1727  1.997   .     S
Zn1439 O1708   1.995   1_545 S
Zn1439 O1724   1.997   1_545 S
Zn1440 O1705   1.995   1_545 S
Zn1440 O1704   1.996   1_545 S
C1441  O1557   1.284   .     A
C1441  O1575   1.291   .     A
C1441  C1470   1.416   .     S
C1442  O1566   1.384   .     S
C1442  C435    1.442   1_556 S
C1442  N1697   1.371   .     S
C1443  C1010   1.442   1_455 S
C1443  N1554   1.370   .     S
C1443  O1711   1.384   1_455 S
C1444  N1553   1.370   .     A
C1444  O1569   1.382   .     S
C1444  C488    1.435   1_456 S
C1445  N1556   1.375   .     A
C1445  O1570   1.386   .     S
C1446  O1571   1.385   .     S
C1446  C295    1.432   1_556 S
C1446  N1267   1.376   1_565 S
C1447  O1572   1.386   .     S
C1447  N1268   1.374   1_565 S
C1448  N1555   1.376   .     A
C1448  O1573   1.385   .     S
C1448  C293    1.432   1_556 S
C1449  H1497   1.084   .     S
C1449  C1460   1.373   .     A
C1449  C1468   1.398   .     A
C1450  C1467   1.390   .     A
C1450  C1461   1.368   .     A
C1450  H1508   1.082   .     S
C1451  C1458   1.374   .     A
C1451  C1467   1.398   .     A
C1451  H1519   1.084   .     S
C1452  C1469   1.416   .     S
C1452  O1574   1.284   .     A
C1452  O1568   1.291   .     A
C1453  H1530   1.082   .     S
C1453  C1459   1.367   .     A
C1453  C1468   1.391   .     A
C1454  C1470   1.398   .     A
C1454  H1541   1.084   .     S
C1454  C1465   1.373   .     A
C1455  H1549   1.083   .     S
C1455  C1469   1.392   .     A
C1455  C1466   1.367   .     A
C1456  H1550   1.084   .     S
C1456  C1469   1.398   .     A
C1456  C1462   1.372   .     A
C1457  C1470   1.392   .     A
C1457  H1551   1.082   .     S
C1457  C1464   1.367   .     A
C1458  H1552   1.084   .     S
C1458  C1472   1.397   .     A
C1459  C1471   1.395   .     A
C1459  H1498   1.075   .     S
C1460  H1499   1.084   .     S
C1460  C1471   1.397   .     A
C1461  H1500   1.074   .     S
C1461  C1472   1.395   .     A
C1462  C1475   1.397   .     A
C1462  H1501   1.084   .     S
C1463  O1576   1.283   .     A
C1463  O1579   1.291   .     A
C1463  C1468   1.414   .     S
C1464  H1502   1.076   .     S
C1464  C1473   1.395   .     A
C1465  H1503   1.084   .     S
C1465  C1473   1.397   .     A
C1466  H1504   1.077   .     S
C1466  C1475   1.396   .     A
C1467  C1474   1.414   .     S
C1471  C1495   1.419   .     S
C1472  C1494   1.419   .     S
C1473  C1493   1.420   .     S
C1474  O1578   1.282   .     A
C1474  O1577   1.291   .     A
C1475  C1485   1.419   .     S
C1476  C1477   1.525   .     S
C1476  H1505   1.105   .     S
C1476  H1506   1.117   .     S
C1476  O1709   1.419   .     S
C1477  H1509   1.111   .     S
C1477  H1510   1.111   .     S
C1478  C1479   1.522   .     S
C1478  O1566   1.413   .     S
C1478  H1512   1.108   .     S
C1478  H1511   1.109   .     S
C1479  H1514   1.109   .     S
C1479  H1515   1.111   .     S
C1479  H1513   1.111   .     S
C1480  H1516   1.110   .     S
C1480  C1481   1.522   .     S
C1480  H1517   1.109   .     S
C1480  O1711   1.413   1_455 S
C1481  H1520   1.109   .     S
C1481  H1518   1.111   .     S
C1481  H1521   1.111   .     S
C1482  H1522   1.110   .     S
C1482  C1483   1.523   .     S
C1482  H1523   1.109   .     S
C1482  O1569   1.415   .     S
C1483  H1524   1.110   .     S
C1483  H1525   1.109   .     S
C1483  H1526   1.110   .     S
C1484  O1570   1.408   .     S
C1484  H1527   1.100   .     S
C1484  C1486   1.524   .     S
C1484  H1528   1.112   .     S
C1485  O1580   1.288   .     A
C1485  O1560   1.289   .     A
C1486  H1529   1.108   .     S
C1486  H1532   1.111   .     S
C1486  H1531   1.110   .     S
C1487  O1571   1.407   .     S
C1487  C1488   1.524   .     S
C1487  H1533   1.100   .     S
C1487  H1534   1.113   .     S
C1488  H1535   1.111   .     S
C1488  H1537   1.107   .     S
C1488  H1536   1.110   .     S
C1489  H1538   1.101   .     S
C1489  O1572   1.408   .     S
C1489  H1539   1.112   .     S
C1489  C1490   1.524   .     S
C1490  H1543   1.108   .     S
C1490  H1542   1.111   .     S
C1490  H1540   1.111   .     S
C1491  C1492   1.524   .     S
C1491  H1545   1.113   .     S
C1491  H1544   1.100   .     S
C1491  O1573   1.408   .     S
C1492  H1547   1.111   .     S
C1492  H1546   1.111   .     S
C1492  H1548   1.108   .     S
C1493  O1559   1.287   .     A
C1493  O1558   1.289   .     A
C1494  O1561   1.287   .     A
C1494  O1564   1.289   .     A
C1495  O1562   1.289   .     A
C1495  O1563   1.287   .     A
C1496  N1698   1.373   .     A
C1496  O1709   1.385   .     S
H1507  C325    1.107   1_556 S
N1553  C1586   1.371   1_455 S
N1553  Zn1581  2.023   .     S
N1554  C1640   1.373   1_455 A
N1554  Zn1582  2.023   .     S
N1555  Zn1583  2.023   .     S
N1556  Zn1584  2.023   .     S
O1557  Zn1581  1.997   .     S
O1558  Zn1584  1.997   .     S
O1559  Zn1583  1.996   .     S
O1560  Zn1296  1.996   1_565 S
O1561  Zn1296  1.995   1_565 S
O1562  Zn1583  1.995   .     S
O1563  Zn1584  1.995   .     S
O1564  Zn1295  1.995   1_565 S
O1565  C1620   1.419   1_455 S
O1565  C1640   1.385   1_455 S
O1567  C1624   1.413   .     S
O1567  C1587   1.384   .     S
O1568  Zn1726  1.997   .     S
O1574  Zn1725  1.996   .     S
O1575  Zn1582  1.996   .     S
O1576  Zn1726  1.995   .     S
O1577  Zn1581  1.995   .     S
O1578  Zn1582  1.995   .     S
O1579  Zn1725  1.995   .     S
O1580  Zn1295  1.997   1_565 S
Zn1581 O1723   1.995   1_455 S
Zn1581 O1718   1.996   1_455 S
Zn1582 O1720   1.995   1_455 S
Zn1582 O1712   1.997   1_455 S
C1585  O1701   1.284   .     A
C1585  O1719   1.291   .     A
C1585  C1614   1.416   .     S
C1586  O1710   1.384   .     S
C1586  C291    1.442   1_656 S
C1586  N1553   1.371   1_655 S
C1587  N1698   1.370   .     S
C1588  N1697   1.370   .     A
C1588  O1713   1.382   .     S
C1588  C344    1.435   1_556 S
C1589  N1700   1.375   .     A
C1589  O1714   1.386   .     S
C1590  O1715   1.385   .     S
C1590  C439    1.432   1_556 S
C1590  N1411   1.376   1_565 S
C1591  O1716   1.386   .     S
C1591  N1412   1.374   1_565 S
C1592  N1699   1.376   .     A
C1592  O1717   1.385   .     S
C1592  C437    1.432   1_556 S
C1593  H1641   1.084   .     S
C1593  C1604   1.373   .     A
C1593  C1612   1.398   .     A
C1594  C1611   1.390   .     A
C1594  C1605   1.368   .     A
C1594  H1652   1.082   .     S
C1595  C1602   1.374   .     A
C1595  C1611   1.398   .     A
C1595  H1663   1.084   .     S
C1596  C1613   1.416   .     S
C1596  O1718   1.284   .     A
C1596  O1712   1.291   .     A
C1597  H1674   1.082   .     S
C1597  C1603   1.367   .     A
C1597  C1612   1.391   .     A
C1598  C1614   1.398   .     A
C1598  H1685   1.084   .     S
C1598  C1609   1.373   .     A
C1599  H1693   1.083   .     S
C1599  C1613   1.392   .     A
C1599  C1610   1.367   .     A
C1600  H1694   1.084   .     S
C1600  C1613   1.398   .     A
C1600  C1606   1.372   .     A
C1601  C1614   1.392   .     A
C1601  H1695   1.082   .     S
C1601  C1608   1.367   .     A
C1602  H1696   1.084   .     S
C1602  C1616   1.397   .     A
C1603  C1615   1.395   .     A
C1603  H1642   1.075   .     S
C1604  H1643   1.084   .     S
C1604  C1615   1.397   .     A
C1605  H1644   1.074   .     S
C1605  C1616   1.395   .     A
C1606  C1619   1.397   .     A
C1606  H1645   1.084   .     S
C1607  O1720   1.283   .     A
C1607  O1723   1.291   .     A
C1607  C1612   1.414   .     S
C1608  H1646   1.076   .     S
C1608  C1617   1.395   .     A
C1609  H1647   1.084   .     S
C1609  C1617   1.397   .     A
C1610  H1648   1.077   .     S
C1610  C1619   1.396   .     A
C1611  C1618   1.414   .     S
C1615  C1639   1.419   .     S
C1616  C1638   1.419   .     S
C1617  C1637   1.420   .     S
C1618  O1722   1.282   .     A
C1618  O1721   1.291   .     A
C1619  C1629   1.419   .     S
C1620  C1621   1.525   .     S
C1620  H1649   1.105   .     S
C1620  H1650   1.117   .     S
C1620  O1565   1.419   1_655 S
C1621  H1653   1.111   .     S
C1621  H1654   1.111   .     S
C1622  C1623   1.522   .     S
C1622  O1710   1.413   .     S
C1622  H1656   1.108   .     S
C1622  H1655   1.109   .     S
C1623  H1658   1.109   .     S
C1623  H1659   1.111   .     S
C1623  H1657   1.111   .     S
C1624  H1660   1.110   .     S
C1624  C1625   1.522   .     S
C1624  H1661   1.109   .     S
C1625  H1664   1.109   .     S
C1625  H1662   1.111   .     S
C1625  H1665   1.111   .     S
C1626  H1666   1.110   .     S
C1626  C1627   1.523   .     S
C1626  H1667   1.109   .     S
C1626  O1713   1.415   .     S
C1627  H1668   1.110   .     S
C1627  H1669   1.109   .     S
C1627  H1670   1.110   .     S
C1628  O1714   1.408   .     S
C1628  H1671   1.100   .     S
C1628  C1630   1.524   .     S
C1628  H1672   1.112   .     S
C1629  O1724   1.288   .     A
C1629  O1704   1.289   .     A
C1630  H1673   1.108   .     S
C1630  H1676   1.111   .     S
C1630  H1675   1.110   .     S
C1631  O1715   1.407   .     S
C1631  C1632   1.524   .     S
C1631  H1677   1.100   .     S
C1631  H1678   1.113   .     S
C1632  H1679   1.111   .     S
C1632  H1681   1.107   .     S
C1632  H1680   1.110   .     S
C1633  H1682   1.101   .     S
C1633  O1716   1.408   .     S
C1633  H1683   1.112   .     S
C1633  C1634   1.524   .     S
C1634  H1687   1.108   .     S
C1634  H1686   1.111   .     S
C1634  H1684   1.111   .     S
C1635  C1636   1.524   .     S
C1635  H1689   1.113   .     S
C1635  H1688   1.100   .     S
C1635  O1717   1.408   .     S
C1636  H1691   1.111   .     S
C1636  H1690   1.111   .     S
C1636  H1692   1.108   .     S
C1637  O1703   1.287   .     A
C1637  O1702   1.289   .     A
C1638  O1705   1.287   .     A
C1638  O1708   1.289   .     A
C1639  O1706   1.289   .     A
C1639  O1707   1.287   .     A
C1640  N1554   1.373   1_655 A
C1640  C868    1.435   1_655 S
C1640  O1565   1.385   1_655 S
H1651  C469    1.107   1_556 S
N1697  Zn1725  2.023   .     S
N1698  Zn1726  2.023   .     S
N1699  Zn1727  2.023   .     S
N1700  Zn1728  2.023   .     S
O1701  Zn1725  1.997   .     S
O1702  Zn1728  1.997   .     S
O1703  Zn1727  1.996   .     S
O1704  Zn1440  1.996   1_565 S
O1705  Zn1440  1.995   1_565 S
O1706  Zn1727  1.995   .     S
O1707  Zn1728  1.995   .     S
O1708  Zn1439  1.995   1_565 S
O1711  C1480   1.413   1_655 S
O1711  C1443   1.384   1_655 S
O1712  Zn1582  1.997   1_655 S
O1718  Zn1581  1.996   1_655 S
O1719  Zn1726  1.996   .     S
O1720  Zn1582  1.995   1_655 S
O1721  Zn1725  1.995   .     S
O1722  Zn1726  1.995   .     S
O1723  Zn1581  1.995   1_655 S
O1724  Zn1439  1.997   1_565 S
