data_str_m3_o10_o18_pcu_sym.73
_audit_creation_date              2020-01-03
_audit_creation_method            'Materials Studio'
_symmetry_space_group_name_H-M    'P1'
_symmetry_Int_Tables_number       1
_symmetry_cell_setting            triclinic
loop_
_symmetry_equiv_pos_as_xyz
  x,y,z
_cell_length_a                    23.7789
_cell_length_b                    25.6746
_cell_length_c                    27.7189
_cell_angle_alpha                 93.3975
_cell_angle_beta                  94.4196
_cell_angle_gamma                 93.8432
loop_
_atom_site_label
_atom_site_type_symbol
_atom_site_fract_x
_atom_site_fract_y
_atom_site_fract_z
_atom_site_U_iso_or_equiv
_atom_site_adp_type
_atom_site_occupancy
C1     C     0.01485   0.26470   0.24880   0.00000  Uiso   1.00
C2     C     0.31070   0.15742   0.15939   0.00000  Uiso   1.00
C3     C     0.03771   0.19166   0.39248   0.00000  Uiso   1.00
C4     C     0.29562   0.14167   0.10752   0.00000  Uiso   1.00
C5     C     0.01935   0.22248   0.47416   0.00000  Uiso   1.00
C6     C     0.31398   0.11085   0.02584   0.00000  Uiso   1.00
C7     C     0.00082   0.21329   0.42479   0.00000  Uiso   1.00
C8     C     0.33251   0.12004   0.07522   0.00000  Uiso   1.00
C9     C     0.09460   0.19110   0.40902   0.00000  Uiso   1.00
C10    C     0.23873   0.14223   0.09098   0.00000  Uiso   1.00
C11    C     0.10820   0.18619   0.45824   0.00000  Uiso   1.00
C12    C     0.31849   0.06863   0.25120   0.00000  Uiso   1.00
C13    C     0.22513   0.14714   0.04176   0.00000  Uiso   1.00
C14    C     0.07225   0.20724   0.49129   0.00000  Uiso   1.00
C15    C     0.26108   0.12609   0.00871   0.00000  Uiso   1.00
C16    C     0.15814   0.16405   0.47503   0.00000  Uiso   1.00
C17    C     0.17519   0.16928   0.02497   0.00000  Uiso   1.00
C18    C     0.19546   0.11359   0.11891   0.00000  Uiso   1.00
C19    C     0.13787   0.21974   0.38109   0.00000  Uiso   1.00
C20    C     0.05459   0.10115   0.09292   0.00000  Uiso   1.00
C21    C     0.27874   0.23218   0.40708   0.00000  Uiso   1.00
C22    C     0.14334   0.19851   0.05642   0.00000  Uiso   1.00
C23    C     0.19000   0.13482   0.44358   0.00000  Uiso   1.00
C24    C     0.09115   0.21521   0.04015   0.00000  Uiso   1.00
C25    C     0.24218   0.11813   0.45985   0.00000  Uiso   1.00
C26    C     0.02252   0.31931   0.24812   0.00000  Uiso   1.00
C27    C     0.31081   0.01402   0.25188   0.00000  Uiso   1.00
C28    C     0.02263   0.17591   0.34061   0.00000  Uiso   1.00
H29    H     0.06591   0.23467   0.06569   0.00000  Uiso   1.00
H30    H     0.17178   0.21251   0.28147   0.00000  Uiso   1.00
H31    H     0.17240   0.14168   0.14013   0.00000  Uiso   1.00
H32    H     0.16608   0.08769   0.09382   0.00000  Uiso   1.00
H33    H     0.21566   0.08703   0.14421   0.00000  Uiso   1.00
H34    H     0.16725   0.24565   0.40618   0.00000  Uiso   1.00
H35    H     0.16093   0.19166   0.35986   0.00000  Uiso   1.00
H36    H     0.11767   0.24631   0.35579   0.00000  Uiso   1.00
H37    H     0.04819   0.07236   0.12071   0.00000  Uiso   1.00
H38    H     0.07537   0.08187   0.06283   0.00000  Uiso   1.00
H39    H     0.08229   0.13486   0.10887   0.00000  Uiso   1.00
H40    H     0.26743   0.09867   0.43431   0.00000  Uiso   1.00
H41    H     0.28514   0.26097   0.37930   0.00000  Uiso   1.00
H42    H     0.25104   0.19847   0.39113   0.00000  Uiso   1.00
H43    H     0.25796   0.25145   0.43718   0.00000  Uiso   1.00
H44    H     0.32560   0.24018   0.49926   0.00000  Uiso   1.00
H45    H     0.00773   0.09315   0.00074   0.00000  Uiso   1.00
H46    H     0.15804   0.20818   0.09393   0.00000  Uiso   1.00
H47    H     0.17529   0.12515   0.40607   0.00000  Uiso   1.00
H48    H     0.06504   0.00291   0.24451   0.00000  Uiso   1.00
H49    H     0.26829   0.33042   0.25549   0.00000  Uiso   1.00
H50    H     0.16155   0.12082   0.21853   0.00000  Uiso   1.00
N51    N     0.14695   0.15216   0.23739   0.00000  Uiso   1.00
N52    N     0.18638   0.18117   0.26260   0.00000  Uiso   1.00
O53    O     0.29719   0.24631   0.25309   0.00000  Uiso   1.00
O54    O     0.03614   0.08702   0.24691   0.00000  Uiso   1.00
O55    O     0.05822   0.23702   0.24501   0.00000  Uiso   1.00
O56    O     0.27512   0.09632   0.25499   0.00000  Uiso   1.00
O57    O     0.30328   0.17397   0.32247   0.00000  Uiso   1.00
O58    O     0.03005   0.15937   0.17753   0.00000  Uiso   1.00
O59    O     0.06431   0.16467   0.31439   0.00000  Uiso   1.00
O60    O     0.26902   0.16866   0.18561   0.00000  Uiso   1.00
Zn61   Zn    0.27033   0.17287   0.25540   0.00000  Uiso   1.00
Zn62   Zn    0.06300   0.16046   0.24460   0.00000  Uiso   1.00
C63    C     0.34818   0.26470   0.24880   0.00000  Uiso   1.00
C64    C     0.64403   0.15742   0.15939   0.00000  Uiso   1.00
C65    C     0.37104   0.19166   0.39248   0.00000  Uiso   1.00
C66    C     0.62896   0.14167   0.10752   0.00000  Uiso   1.00
C67    C     0.35269   0.22248   0.47416   0.00000  Uiso   1.00
C68    C     0.64731   0.11085   0.02584   0.00000  Uiso   1.00
C69    C     0.33415   0.21329   0.42479   0.00000  Uiso   1.00
C70    C     0.66584   0.12004   0.07522   0.00000  Uiso   1.00
C71    C     0.42794   0.19110   0.40902   0.00000  Uiso   1.00
C72    C     0.57206   0.14223   0.09098   0.00000  Uiso   1.00
C73    C     0.44154   0.18619   0.45824   0.00000  Uiso   1.00
C74    C     0.65182   0.06863   0.25120   0.00000  Uiso   1.00
C75    C     0.55846   0.14714   0.04176   0.00000  Uiso   1.00
C76    C     0.40558   0.20724   0.49129   0.00000  Uiso   1.00
C77    C     0.59441   0.12609   0.00871   0.00000  Uiso   1.00
C78    C     0.49148   0.16405   0.47503   0.00000  Uiso   1.00
C79    C     0.50852   0.16928   0.02497   0.00000  Uiso   1.00
C80    C     0.52879   0.11359   0.11891   0.00000  Uiso   1.00
C81    C     0.47121   0.21974   0.38109   0.00000  Uiso   1.00
C82    C     0.38792   0.10115   0.09292   0.00000  Uiso   1.00
C83    C     0.61207   0.23218   0.40708   0.00000  Uiso   1.00
C84    C     0.47667   0.19851   0.05642   0.00000  Uiso   1.00
C85    C     0.52333   0.13482   0.44358   0.00000  Uiso   1.00
C86    C     0.42449   0.21521   0.04015   0.00000  Uiso   1.00
C87    C     0.57551   0.11813   0.45985   0.00000  Uiso   1.00
C88    C     0.35585   0.31931   0.24812   0.00000  Uiso   1.00
C89    C     0.64415   0.01402   0.25188   0.00000  Uiso   1.00
C90    C     0.35597   0.17591   0.34061   0.00000  Uiso   1.00
H91    H     0.39924   0.23467   0.06569   0.00000  Uiso   1.00
H92    H     0.50512   0.21251   0.28147   0.00000  Uiso   1.00
H93    H     0.50574   0.14168   0.14013   0.00000  Uiso   1.00
H94    H     0.49941   0.08769   0.09382   0.00000  Uiso   1.00
H95    H     0.54899   0.08703   0.14421   0.00000  Uiso   1.00
H96    H     0.50059   0.24565   0.40618   0.00000  Uiso   1.00
H97    H     0.49426   0.19166   0.35986   0.00000  Uiso   1.00
H98    H     0.45101   0.24631   0.35579   0.00000  Uiso   1.00
H99    H     0.38152   0.07236   0.12071   0.00000  Uiso   1.00
H100   H     0.40871   0.08187   0.06283   0.00000  Uiso   1.00
H101   H     0.41562   0.13486   0.10887   0.00000  Uiso   1.00
H102   H     0.60076   0.09867   0.43431   0.00000  Uiso   1.00
H103   H     0.61848   0.26097   0.37930   0.00000  Uiso   1.00
H104   H     0.58438   0.19847   0.39113   0.00000  Uiso   1.00
H105   H     0.59129   0.25145   0.43718   0.00000  Uiso   1.00
H106   H     0.65894   0.24018   0.49926   0.00000  Uiso   1.00
H107   H     0.34106   0.09315   0.00074   0.00000  Uiso   1.00
H108   H     0.49138   0.20818   0.09393   0.00000  Uiso   1.00
H109   H     0.50863   0.12515   0.40607   0.00000  Uiso   1.00
H110   H     0.39837   0.00291   0.24451   0.00000  Uiso   1.00
H111   H     0.60163   0.33042   0.25549   0.00000  Uiso   1.00
H112   H     0.49488   0.12082   0.21853   0.00000  Uiso   1.00
N113   N     0.48029   0.15216   0.23739   0.00000  Uiso   1.00
N114   N     0.51971   0.18117   0.26260   0.00000  Uiso   1.00
O115   O     0.63052   0.24631   0.25309   0.00000  Uiso   1.00
O116   O     0.36948   0.08702   0.24691   0.00000  Uiso   1.00
O117   O     0.39155   0.23702   0.24501   0.00000  Uiso   1.00
O118   O     0.60845   0.09632   0.25499   0.00000  Uiso   1.00
O119   O     0.63662   0.17397   0.32247   0.00000  Uiso   1.00
O120   O     0.36338   0.15937   0.17753   0.00000  Uiso   1.00
O121   O     0.39764   0.16467   0.31439   0.00000  Uiso   1.00
O122   O     0.60236   0.16866   0.18561   0.00000  Uiso   1.00
Zn123  Zn    0.60366   0.17287   0.25540   0.00000  Uiso   1.00
Zn124  Zn    0.39634   0.16046   0.24460   0.00000  Uiso   1.00
C125   C     0.68151   0.26470   0.24880   0.00000  Uiso   1.00
C126   C     0.97737   0.15742   0.15939   0.00000  Uiso   1.00
C127   C     0.70437   0.19166   0.39248   0.00000  Uiso   1.00
C128   C     0.96229   0.14167   0.10752   0.00000  Uiso   1.00
C129   C     0.68602   0.22248   0.47416   0.00000  Uiso   1.00
C130   C     0.98064   0.11085   0.02584   0.00000  Uiso   1.00
C131   C     0.66749   0.21329   0.42479   0.00000  Uiso   1.00
C132   C     0.99918   0.12004   0.07522   0.00000  Uiso   1.00
C133   C     0.76127   0.19110   0.40902   0.00000  Uiso   1.00
C134   C     0.90540   0.14223   0.09098   0.00000  Uiso   1.00
C135   C     0.77487   0.18619   0.45824   0.00000  Uiso   1.00
C136   C     0.98516   0.06863   0.25120   0.00000  Uiso   1.00
C137   C     0.89180   0.14714   0.04176   0.00000  Uiso   1.00
C138   C     0.73892   0.20724   0.49129   0.00000  Uiso   1.00
C139   C     0.92775   0.12609   0.00871   0.00000  Uiso   1.00
C140   C     0.82481   0.16405   0.47503   0.00000  Uiso   1.00
C141   C     0.84186   0.16928   0.02497   0.00000  Uiso   1.00
C142   C     0.86213   0.11359   0.11891   0.00000  Uiso   1.00
C143   C     0.80454   0.21974   0.38109   0.00000  Uiso   1.00
C144   C     0.72126   0.10115   0.09292   0.00000  Uiso   1.00
C145   C     0.94541   0.23218   0.40708   0.00000  Uiso   1.00
C146   C     0.81000   0.19851   0.05642   0.00000  Uiso   1.00
C147   C     0.85666   0.13482   0.44358   0.00000  Uiso   1.00
C148   C     0.75782   0.21521   0.04015   0.00000  Uiso   1.00
C149   C     0.90885   0.11813   0.45985   0.00000  Uiso   1.00
C150   C     0.68919   0.31931   0.24812   0.00000  Uiso   1.00
C151   C     0.97748   0.01402   0.25188   0.00000  Uiso   1.00
C152   C     0.68930   0.17591   0.34061   0.00000  Uiso   1.00
H153   H     0.73257   0.23467   0.06569   0.00000  Uiso   1.00
H154   H     0.83845   0.21251   0.28147   0.00000  Uiso   1.00
H155   H     0.83907   0.14168   0.14013   0.00000  Uiso   1.00
H156   H     0.83275   0.08769   0.09382   0.00000  Uiso   1.00
H157   H     0.88233   0.08703   0.14421   0.00000  Uiso   1.00
H158   H     0.83392   0.24565   0.40618   0.00000  Uiso   1.00
H159   H     0.82760   0.19166   0.35986   0.00000  Uiso   1.00
H160   H     0.78434   0.24631   0.35579   0.00000  Uiso   1.00
H161   H     0.71485   0.07236   0.12071   0.00000  Uiso   1.00
H162   H     0.74204   0.08187   0.06283   0.00000  Uiso   1.00
H163   H     0.74896   0.13486   0.10887   0.00000  Uiso   1.00
H164   H     0.93409   0.09867   0.43431   0.00000  Uiso   1.00
H165   H     0.95181   0.26097   0.37930   0.00000  Uiso   1.00
H166   H     0.91771   0.19847   0.39113   0.00000  Uiso   1.00
H167   H     0.92462   0.25145   0.43718   0.00000  Uiso   1.00
H168   H     0.99227   0.24018   0.49926   0.00000  Uiso   1.00
H169   H     0.67440   0.09315   0.00074   0.00000  Uiso   1.00
H170   H     0.82471   0.20818   0.09393   0.00000  Uiso   1.00
H171   H     0.84196   0.12515   0.40607   0.00000  Uiso   1.00
H172   H     0.73171   0.00291   0.24451   0.00000  Uiso   1.00
H173   H     0.93496   0.33042   0.25549   0.00000  Uiso   1.00
H174   H     0.82822   0.12082   0.21853   0.00000  Uiso   1.00
N175   N     0.81362   0.15216   0.23739   0.00000  Uiso   1.00
N176   N     0.85305   0.18117   0.26260   0.00000  Uiso   1.00
O177   O     0.96386   0.24631   0.25309   0.00000  Uiso   1.00
O178   O     0.70281   0.08702   0.24691   0.00000  Uiso   1.00
O179   O     0.72488   0.23702   0.24501   0.00000  Uiso   1.00
O180   O     0.94178   0.09632   0.25499   0.00000  Uiso   1.00
O181   O     0.96995   0.17397   0.32247   0.00000  Uiso   1.00
O182   O     0.69672   0.15937   0.17753   0.00000  Uiso   1.00
O183   O     0.73098   0.16467   0.31439   0.00000  Uiso   1.00
O184   O     0.93569   0.16866   0.18561   0.00000  Uiso   1.00
Zn185  Zn    0.93700   0.17287   0.25540   0.00000  Uiso   1.00
Zn186  Zn    0.72967   0.16046   0.24460   0.00000  Uiso   1.00
C187   C     0.01485   0.59803   0.24880   0.00000  Uiso   1.00
C188   C     0.31070   0.49075   0.15939   0.00000  Uiso   1.00
C189   C     0.03771   0.52500   0.39248   0.00000  Uiso   1.00
C190   C     0.29562   0.47500   0.10752   0.00000  Uiso   1.00
C191   C     0.01935   0.55581   0.47416   0.00000  Uiso   1.00
C192   C     0.31398   0.44418   0.02584   0.00000  Uiso   1.00
C193   C     0.00082   0.54662   0.42479   0.00000  Uiso   1.00
C194   C     0.33251   0.45337   0.07522   0.00000  Uiso   1.00
C195   C     0.09460   0.52444   0.40902   0.00000  Uiso   1.00
C196   C     0.23873   0.47556   0.09098   0.00000  Uiso   1.00
C197   C     0.10820   0.51953   0.45824   0.00000  Uiso   1.00
C198   C     0.31849   0.40197   0.25120   0.00000  Uiso   1.00
C199   C     0.22513   0.48047   0.04176   0.00000  Uiso   1.00
C200   C     0.07225   0.54057   0.49129   0.00000  Uiso   1.00
C201   C     0.26108   0.45943   0.00871   0.00000  Uiso   1.00
C202   C     0.15814   0.49738   0.47503   0.00000  Uiso   1.00
C203   C     0.17519   0.50262   0.02497   0.00000  Uiso   1.00
C204   C     0.19546   0.44692   0.11891   0.00000  Uiso   1.00
C205   C     0.13787   0.55308   0.38109   0.00000  Uiso   1.00
C206   C     0.05459   0.43448   0.09292   0.00000  Uiso   1.00
C207   C     0.27874   0.56551   0.40708   0.00000  Uiso   1.00
C208   C     0.14334   0.53185   0.05642   0.00000  Uiso   1.00
C209   C     0.19000   0.46815   0.44358   0.00000  Uiso   1.00
C210   C     0.09115   0.54854   0.04015   0.00000  Uiso   1.00
C211   C     0.24218   0.45146   0.45985   0.00000  Uiso   1.00
C212   C     0.02252   0.65265   0.24812   0.00000  Uiso   1.00
C213   C     0.31081   0.34735   0.25188   0.00000  Uiso   1.00
C214   C     0.02263   0.50925   0.34061   0.00000  Uiso   1.00
H215   H     0.06591   0.56800   0.06569   0.00000  Uiso   1.00
H216   H     0.17178   0.54584   0.28147   0.00000  Uiso   1.00
H217   H     0.17240   0.47501   0.14013   0.00000  Uiso   1.00
H218   H     0.16608   0.42102   0.09382   0.00000  Uiso   1.00
H219   H     0.21566   0.42036   0.14421   0.00000  Uiso   1.00
H220   H     0.16725   0.57898   0.40618   0.00000  Uiso   1.00
H221   H     0.16093   0.52499   0.35986   0.00000  Uiso   1.00
H222   H     0.11767   0.57964   0.35579   0.00000  Uiso   1.00
H223   H     0.04819   0.40569   0.12071   0.00000  Uiso   1.00
H224   H     0.07537   0.41521   0.06283   0.00000  Uiso   1.00
H225   H     0.08229   0.46819   0.10887   0.00000  Uiso   1.00
H226   H     0.26743   0.43200   0.43431   0.00000  Uiso   1.00
H227   H     0.28514   0.59431   0.37930   0.00000  Uiso   1.00
H228   H     0.25104   0.53180   0.39113   0.00000  Uiso   1.00
H229   H     0.25796   0.58478   0.43718   0.00000  Uiso   1.00
H230   H     0.32560   0.57352   0.49926   0.00000  Uiso   1.00
H231   H     0.00773   0.42648   0.00074   0.00000  Uiso   1.00
H232   H     0.15804   0.54151   0.09393   0.00000  Uiso   1.00
H233   H     0.17529   0.45849   0.40607   0.00000  Uiso   1.00
H234   H     0.06504   0.33625   0.24451   0.00000  Uiso   1.00
H235   H     0.26829   0.66375   0.25549   0.00000  Uiso   1.00
H236   H     0.16155   0.45416   0.21853   0.00000  Uiso   1.00
N237   N     0.14695   0.48550   0.23739   0.00000  Uiso   1.00
N238   N     0.18638   0.51450   0.26260   0.00000  Uiso   1.00
O239   O     0.29719   0.57964   0.25309   0.00000  Uiso   1.00
O240   O     0.03614   0.42036   0.24691   0.00000  Uiso   1.00
O241   O     0.05822   0.57035   0.24501   0.00000  Uiso   1.00
O242   O     0.27512   0.42965   0.25499   0.00000  Uiso   1.00
O243   O     0.30328   0.50730   0.32247   0.00000  Uiso   1.00
O244   O     0.03005   0.49270   0.17753   0.00000  Uiso   1.00
O245   O     0.06431   0.49801   0.31439   0.00000  Uiso   1.00
O246   O     0.26902   0.50199   0.18561   0.00000  Uiso   1.00
Zn247  Zn    0.27033   0.50621   0.25540   0.00000  Uiso   1.00
Zn248  Zn    0.06300   0.49379   0.24460   0.00000  Uiso   1.00
C249   C     0.34818   0.59803   0.24880   0.00000  Uiso   1.00
C250   C     0.64403   0.49075   0.15939   0.00000  Uiso   1.00
C251   C     0.37104   0.52500   0.39248   0.00000  Uiso   1.00
C252   C     0.62896   0.47500   0.10752   0.00000  Uiso   1.00
C253   C     0.35269   0.55581   0.47416   0.00000  Uiso   1.00
C254   C     0.64731   0.44418   0.02584   0.00000  Uiso   1.00
C255   C     0.33415   0.54662   0.42479   0.00000  Uiso   1.00
C256   C     0.66584   0.45337   0.07522   0.00000  Uiso   1.00
C257   C     0.42794   0.52444   0.40902   0.00000  Uiso   1.00
C258   C     0.57206   0.47556   0.09098   0.00000  Uiso   1.00
C259   C     0.44154   0.51953   0.45824   0.00000  Uiso   1.00
C260   C     0.65182   0.40197   0.25120   0.00000  Uiso   1.00
C261   C     0.55846   0.48047   0.04176   0.00000  Uiso   1.00
C262   C     0.40558   0.54057   0.49129   0.00000  Uiso   1.00
C263   C     0.59441   0.45943   0.00871   0.00000  Uiso   1.00
C264   C     0.49148   0.49738   0.47503   0.00000  Uiso   1.00
C265   C     0.50852   0.50262   0.02497   0.00000  Uiso   1.00
C266   C     0.52879   0.44692   0.11891   0.00000  Uiso   1.00
C267   C     0.47121   0.55308   0.38109   0.00000  Uiso   1.00
C268   C     0.38792   0.43448   0.09292   0.00000  Uiso   1.00
C269   C     0.61207   0.56551   0.40708   0.00000  Uiso   1.00
C270   C     0.47667   0.53185   0.05642   0.00000  Uiso   1.00
C271   C     0.52333   0.46815   0.44358   0.00000  Uiso   1.00
C272   C     0.42449   0.54854   0.04015   0.00000  Uiso   1.00
C273   C     0.57551   0.45146   0.45985   0.00000  Uiso   1.00
C274   C     0.35585   0.65265   0.24812   0.00000  Uiso   1.00
C275   C     0.64415   0.34735   0.25188   0.00000  Uiso   1.00
C276   C     0.35597   0.50925   0.34061   0.00000  Uiso   1.00
H277   H     0.39924   0.56800   0.06569   0.00000  Uiso   1.00
H278   H     0.50512   0.54584   0.28147   0.00000  Uiso   1.00
H279   H     0.50574   0.47501   0.14013   0.00000  Uiso   1.00
H280   H     0.49941   0.42102   0.09382   0.00000  Uiso   1.00
H281   H     0.54899   0.42036   0.14421   0.00000  Uiso   1.00
H282   H     0.50059   0.57898   0.40618   0.00000  Uiso   1.00
H283   H     0.49426   0.52499   0.35986   0.00000  Uiso   1.00
H284   H     0.45101   0.57964   0.35579   0.00000  Uiso   1.00
H285   H     0.38152   0.40569   0.12071   0.00000  Uiso   1.00
H286   H     0.40871   0.41521   0.06283   0.00000  Uiso   1.00
H287   H     0.41562   0.46819   0.10887   0.00000  Uiso   1.00
H288   H     0.60076   0.43200   0.43431   0.00000  Uiso   1.00
H289   H     0.61848   0.59431   0.37930   0.00000  Uiso   1.00
H290   H     0.58438   0.53180   0.39113   0.00000  Uiso   1.00
H291   H     0.59129   0.58478   0.43718   0.00000  Uiso   1.00
H292   H     0.65894   0.57352   0.49926   0.00000  Uiso   1.00
H293   H     0.34106   0.42648   0.00074   0.00000  Uiso   1.00
H294   H     0.49138   0.54151   0.09393   0.00000  Uiso   1.00
H295   H     0.50863   0.45849   0.40607   0.00000  Uiso   1.00
H296   H     0.39837   0.33625   0.24451   0.00000  Uiso   1.00
H297   H     0.60163   0.66375   0.25549   0.00000  Uiso   1.00
H298   H     0.49488   0.45416   0.21853   0.00000  Uiso   1.00
N299   N     0.48029   0.48550   0.23739   0.00000  Uiso   1.00
N300   N     0.51971   0.51450   0.26260   0.00000  Uiso   1.00
O301   O     0.63052   0.57964   0.25309   0.00000  Uiso   1.00
O302   O     0.36948   0.42036   0.24691   0.00000  Uiso   1.00
O303   O     0.39155   0.57035   0.24501   0.00000  Uiso   1.00
O304   O     0.60845   0.42965   0.25499   0.00000  Uiso   1.00
O305   O     0.63662   0.50730   0.32247   0.00000  Uiso   1.00
O306   O     0.36338   0.49270   0.17753   0.00000  Uiso   1.00
O307   O     0.39764   0.49801   0.31439   0.00000  Uiso   1.00
O308   O     0.60236   0.50199   0.18561   0.00000  Uiso   1.00
Zn309  Zn    0.60366   0.50621   0.25540   0.00000  Uiso   1.00
Zn310  Zn    0.39634   0.49379   0.24460   0.00000  Uiso   1.00
C311   C     0.68151   0.59803   0.24880   0.00000  Uiso   1.00
C312   C     0.97737   0.49075   0.15939   0.00000  Uiso   1.00
C313   C     0.70437   0.52500   0.39248   0.00000  Uiso   1.00
C314   C     0.96229   0.47500   0.10752   0.00000  Uiso   1.00
C315   C     0.68602   0.55581   0.47416   0.00000  Uiso   1.00
C316   C     0.98064   0.44418   0.02584   0.00000  Uiso   1.00
C317   C     0.66749   0.54662   0.42479   0.00000  Uiso   1.00
C318   C     0.99918   0.45337   0.07522   0.00000  Uiso   1.00
C319   C     0.76127   0.52444   0.40902   0.00000  Uiso   1.00
C320   C     0.90540   0.47556   0.09098   0.00000  Uiso   1.00
C321   C     0.77487   0.51953   0.45824   0.00000  Uiso   1.00
C322   C     0.98516   0.40197   0.25120   0.00000  Uiso   1.00
C323   C     0.89180   0.48047   0.04176   0.00000  Uiso   1.00
C324   C     0.73892   0.54057   0.49129   0.00000  Uiso   1.00
C325   C     0.92775   0.45943   0.00871   0.00000  Uiso   1.00
C326   C     0.82481   0.49738   0.47503   0.00000  Uiso   1.00
C327   C     0.84186   0.50262   0.02497   0.00000  Uiso   1.00
C328   C     0.86213   0.44692   0.11891   0.00000  Uiso   1.00
C329   C     0.80454   0.55308   0.38109   0.00000  Uiso   1.00
C330   C     0.72126   0.43448   0.09292   0.00000  Uiso   1.00
C331   C     0.94541   0.56551   0.40708   0.00000  Uiso   1.00
C332   C     0.81000   0.53185   0.05642   0.00000  Uiso   1.00
C333   C     0.85666   0.46815   0.44358   0.00000  Uiso   1.00
C334   C     0.75782   0.54854   0.04015   0.00000  Uiso   1.00
C335   C     0.90885   0.45146   0.45985   0.00000  Uiso   1.00
C336   C     0.68919   0.65265   0.24812   0.00000  Uiso   1.00
C337   C     0.97748   0.34735   0.25188   0.00000  Uiso   1.00
C338   C     0.68930   0.50925   0.34061   0.00000  Uiso   1.00
H339   H     0.73257   0.56800   0.06569   0.00000  Uiso   1.00
H340   H     0.83845   0.54584   0.28147   0.00000  Uiso   1.00
H341   H     0.83907   0.47501   0.14013   0.00000  Uiso   1.00
H342   H     0.83275   0.42102   0.09382   0.00000  Uiso   1.00
H343   H     0.88233   0.42036   0.14421   0.00000  Uiso   1.00
H344   H     0.83392   0.57898   0.40618   0.00000  Uiso   1.00
H345   H     0.82760   0.52499   0.35986   0.00000  Uiso   1.00
H346   H     0.78434   0.57964   0.35579   0.00000  Uiso   1.00
H347   H     0.71485   0.40569   0.12071   0.00000  Uiso   1.00
H348   H     0.74204   0.41521   0.06283   0.00000  Uiso   1.00
H349   H     0.74896   0.46819   0.10887   0.00000  Uiso   1.00
H350   H     0.93409   0.43200   0.43431   0.00000  Uiso   1.00
H351   H     0.95181   0.59431   0.37930   0.00000  Uiso   1.00
H352   H     0.91771   0.53180   0.39113   0.00000  Uiso   1.00
H353   H     0.92462   0.58478   0.43718   0.00000  Uiso   1.00
H354   H     0.99227   0.57352   0.49926   0.00000  Uiso   1.00
H355   H     0.67440   0.42648   0.00074   0.00000  Uiso   1.00
H356   H     0.82471   0.54151   0.09393   0.00000  Uiso   1.00
H357   H     0.84196   0.45849   0.40607   0.00000  Uiso   1.00
H358   H     0.73171   0.33625   0.24451   0.00000  Uiso   1.00
H359   H     0.93496   0.66375   0.25549   0.00000  Uiso   1.00
H360   H     0.82822   0.45416   0.21853   0.00000  Uiso   1.00
N361   N     0.81362   0.48550   0.23739   0.00000  Uiso   1.00
N362   N     0.85305   0.51450   0.26260   0.00000  Uiso   1.00
O363   O     0.96386   0.57964   0.25309   0.00000  Uiso   1.00
O364   O     0.70281   0.42036   0.24691   0.00000  Uiso   1.00
O365   O     0.72488   0.57035   0.24501   0.00000  Uiso   1.00
O366   O     0.94178   0.42965   0.25499   0.00000  Uiso   1.00
O367   O     0.96995   0.50730   0.32247   0.00000  Uiso   1.00
O368   O     0.69672   0.49270   0.17753   0.00000  Uiso   1.00
O369   O     0.73098   0.49801   0.31439   0.00000  Uiso   1.00
O370   O     0.93569   0.50199   0.18561   0.00000  Uiso   1.00
Zn371  Zn    0.93700   0.50621   0.25540   0.00000  Uiso   1.00
Zn372  Zn    0.72967   0.49379   0.24460   0.00000  Uiso   1.00
C373   C     0.01485   0.93137   0.24880   0.00000  Uiso   1.00
C374   C     0.31070   0.82409   0.15939   0.00000  Uiso   1.00
C375   C     0.03771   0.85833   0.39248   0.00000  Uiso   1.00
C376   C     0.29562   0.80833   0.10752   0.00000  Uiso   1.00
C377   C     0.01935   0.88915   0.47416   0.00000  Uiso   1.00
C378   C     0.31398   0.77752   0.02584   0.00000  Uiso   1.00
C379   C     0.00082   0.87996   0.42479   0.00000  Uiso   1.00
C380   C     0.33251   0.78670   0.07522   0.00000  Uiso   1.00
C381   C     0.09460   0.85777   0.40902   0.00000  Uiso   1.00
C382   C     0.23873   0.80890   0.09098   0.00000  Uiso   1.00
C383   C     0.10820   0.85286   0.45824   0.00000  Uiso   1.00
C384   C     0.31849   0.73530   0.25120   0.00000  Uiso   1.00
C385   C     0.22513   0.81381   0.04176   0.00000  Uiso   1.00
C386   C     0.07225   0.87390   0.49129   0.00000  Uiso   1.00
C387   C     0.26108   0.79276   0.00871   0.00000  Uiso   1.00
C388   C     0.15814   0.83072   0.47503   0.00000  Uiso   1.00
C389   C     0.17519   0.83595   0.02497   0.00000  Uiso   1.00
C390   C     0.19546   0.78026   0.11891   0.00000  Uiso   1.00
C391   C     0.13787   0.88641   0.38109   0.00000  Uiso   1.00
C392   C     0.05459   0.76781   0.09292   0.00000  Uiso   1.00
C393   C     0.27874   0.89885   0.40708   0.00000  Uiso   1.00
C394   C     0.14334   0.86518   0.05642   0.00000  Uiso   1.00
C395   C     0.19000   0.80149   0.44358   0.00000  Uiso   1.00
C396   C     0.09115   0.88187   0.04015   0.00000  Uiso   1.00
C397   C     0.24218   0.78479   0.45985   0.00000  Uiso   1.00
C398   C     0.02252   0.98598   0.24812   0.00000  Uiso   1.00
C399   C     0.31081   0.68069   0.25188   0.00000  Uiso   1.00
C400   C     0.02263   0.84258   0.34061   0.00000  Uiso   1.00
H401   H     0.06591   0.90133   0.06569   0.00000  Uiso   1.00
H402   H     0.17178   0.87918   0.28147   0.00000  Uiso   1.00
H403   H     0.17240   0.80834   0.14013   0.00000  Uiso   1.00
H404   H     0.16608   0.75435   0.09382   0.00000  Uiso   1.00
H405   H     0.21566   0.75369   0.14421   0.00000  Uiso   1.00
H406   H     0.16725   0.91231   0.40618   0.00000  Uiso   1.00
H407   H     0.16093   0.85832   0.35986   0.00000  Uiso   1.00
H408   H     0.11767   0.91297   0.35579   0.00000  Uiso   1.00
H409   H     0.04819   0.73902   0.12071   0.00000  Uiso   1.00
H410   H     0.07537   0.74854   0.06283   0.00000  Uiso   1.00
H411   H     0.08229   0.80153   0.10887   0.00000  Uiso   1.00
H412   H     0.26743   0.76533   0.43431   0.00000  Uiso   1.00
H413   H     0.28514   0.92764   0.37930   0.00000  Uiso   1.00
H414   H     0.25104   0.86514   0.39113   0.00000  Uiso   1.00
H415   H     0.25796   0.91812   0.43718   0.00000  Uiso   1.00
H416   H     0.32560   0.90685   0.49926   0.00000  Uiso   1.00
H417   H     0.00773   0.75981   0.00074   0.00000  Uiso   1.00
H418   H     0.15804   0.87485   0.09393   0.00000  Uiso   1.00
H419   H     0.17529   0.79182   0.40607   0.00000  Uiso   1.00
H420   H     0.06504   0.66958   0.24451   0.00000  Uiso   1.00
H421   H     0.26829   0.99709   0.25549   0.00000  Uiso   1.00
H422   H     0.16155   0.78749   0.21853   0.00000  Uiso   1.00
N423   N     0.14695   0.81883   0.23739   0.00000  Uiso   1.00
N424   N     0.18638   0.84784   0.26260   0.00000  Uiso   1.00
O425   O     0.29719   0.91298   0.25309   0.00000  Uiso   1.00
O426   O     0.03614   0.75369   0.24691   0.00000  Uiso   1.00
O427   O     0.05822   0.90368   0.24501   0.00000  Uiso   1.00
O428   O     0.27512   0.76298   0.25499   0.00000  Uiso   1.00
O429   O     0.30328   0.84063   0.32247   0.00000  Uiso   1.00
O430   O     0.03005   0.82603   0.17753   0.00000  Uiso   1.00
O431   O     0.06431   0.83134   0.31439   0.00000  Uiso   1.00
O432   O     0.26902   0.83533   0.18561   0.00000  Uiso   1.00
Zn433  Zn    0.27033   0.83954   0.25540   0.00000  Uiso   1.00
Zn434  Zn    0.06300   0.82713   0.24460   0.00000  Uiso   1.00
C435   C     0.34818   0.93137   0.24880   0.00000  Uiso   1.00
C436   C     0.64403   0.82409   0.15939   0.00000  Uiso   1.00
C437   C     0.37104   0.85833   0.39248   0.00000  Uiso   1.00
C438   C     0.62896   0.80833   0.10752   0.00000  Uiso   1.00
C439   C     0.35269   0.88915   0.47416   0.00000  Uiso   1.00
C440   C     0.64731   0.77752   0.02584   0.00000  Uiso   1.00
C441   C     0.33415   0.87996   0.42479   0.00000  Uiso   1.00
C442   C     0.66584   0.78670   0.07522   0.00000  Uiso   1.00
C443   C     0.42794   0.85777   0.40902   0.00000  Uiso   1.00
C444   C     0.57206   0.80890   0.09098   0.00000  Uiso   1.00
C445   C     0.44154   0.85286   0.45824   0.00000  Uiso   1.00
C446   C     0.65182   0.73530   0.25120   0.00000  Uiso   1.00
C447   C     0.55846   0.81381   0.04176   0.00000  Uiso   1.00
C448   C     0.40558   0.87390   0.49129   0.00000  Uiso   1.00
C449   C     0.59441   0.79276   0.00871   0.00000  Uiso   1.00
C450   C     0.49148   0.83072   0.47503   0.00000  Uiso   1.00
C451   C     0.50852   0.83595   0.02497   0.00000  Uiso   1.00
C452   C     0.52879   0.78026   0.11891   0.00000  Uiso   1.00
C453   C     0.47121   0.88641   0.38109   0.00000  Uiso   1.00
C454   C     0.38792   0.76781   0.09292   0.00000  Uiso   1.00
C455   C     0.61207   0.89885   0.40708   0.00000  Uiso   1.00
C456   C     0.47667   0.86518   0.05642   0.00000  Uiso   1.00
C457   C     0.52333   0.80149   0.44358   0.00000  Uiso   1.00
C458   C     0.42449   0.88187   0.04015   0.00000  Uiso   1.00
C459   C     0.57551   0.78479   0.45985   0.00000  Uiso   1.00
C460   C     0.35585   0.98598   0.24812   0.00000  Uiso   1.00
C461   C     0.64415   0.68069   0.25188   0.00000  Uiso   1.00
C462   C     0.35597   0.84258   0.34061   0.00000  Uiso   1.00
H463   H     0.39924   0.90133   0.06569   0.00000  Uiso   1.00
H464   H     0.50512   0.87918   0.28147   0.00000  Uiso   1.00
H465   H     0.50574   0.80834   0.14013   0.00000  Uiso   1.00
H466   H     0.49941   0.75435   0.09382   0.00000  Uiso   1.00
H467   H     0.54899   0.75369   0.14421   0.00000  Uiso   1.00
H468   H     0.50059   0.91231   0.40618   0.00000  Uiso   1.00
H469   H     0.49426   0.85832   0.35986   0.00000  Uiso   1.00
H470   H     0.45101   0.91297   0.35579   0.00000  Uiso   1.00
H471   H     0.38152   0.73902   0.12071   0.00000  Uiso   1.00
H472   H     0.40871   0.74854   0.06283   0.00000  Uiso   1.00
H473   H     0.41562   0.80153   0.10887   0.00000  Uiso   1.00
H474   H     0.60076   0.76533   0.43431   0.00000  Uiso   1.00
H475   H     0.61848   0.92764   0.37930   0.00000  Uiso   1.00
H476   H     0.58438   0.86514   0.39113   0.00000  Uiso   1.00
H477   H     0.59129   0.91812   0.43718   0.00000  Uiso   1.00
H478   H     0.65894   0.90685   0.49926   0.00000  Uiso   1.00
H479   H     0.34106   0.75981   0.00074   0.00000  Uiso   1.00
H480   H     0.49138   0.87485   0.09393   0.00000  Uiso   1.00
H481   H     0.50863   0.79182   0.40607   0.00000  Uiso   1.00
H482   H     0.39837   0.66958   0.24451   0.00000  Uiso   1.00
H483   H     0.60163   0.99709   0.25549   0.00000  Uiso   1.00
H484   H     0.49488   0.78749   0.21853   0.00000  Uiso   1.00
N485   N     0.48029   0.81883   0.23739   0.00000  Uiso   1.00
N486   N     0.51971   0.84784   0.26260   0.00000  Uiso   1.00
O487   O     0.63052   0.91298   0.25309   0.00000  Uiso   1.00
O488   O     0.36948   0.75369   0.24691   0.00000  Uiso   1.00
O489   O     0.39155   0.90368   0.24501   0.00000  Uiso   1.00
O490   O     0.60845   0.76298   0.25499   0.00000  Uiso   1.00
O491   O     0.63662   0.84063   0.32247   0.00000  Uiso   1.00
O492   O     0.36338   0.82603   0.17753   0.00000  Uiso   1.00
O493   O     0.39764   0.83134   0.31439   0.00000  Uiso   1.00
O494   O     0.60236   0.83533   0.18561   0.00000  Uiso   1.00
Zn495  Zn    0.60366   0.83954   0.25540   0.00000  Uiso   1.00
Zn496  Zn    0.39634   0.82713   0.24460   0.00000  Uiso   1.00
C497   C     0.68151   0.93137   0.24880   0.00000  Uiso   1.00
C498   C     0.97737   0.82409   0.15939   0.00000  Uiso   1.00
C499   C     0.70437   0.85833   0.39248   0.00000  Uiso   1.00
C500   C     0.96229   0.80833   0.10752   0.00000  Uiso   1.00
C501   C     0.68602   0.88915   0.47416   0.00000  Uiso   1.00
C502   C     0.98064   0.77752   0.02584   0.00000  Uiso   1.00
C503   C     0.66749   0.87996   0.42479   0.00000  Uiso   1.00
C504   C     0.99918   0.78670   0.07522   0.00000  Uiso   1.00
C505   C     0.76127   0.85777   0.40902   0.00000  Uiso   1.00
C506   C     0.90540   0.80890   0.09098   0.00000  Uiso   1.00
C507   C     0.77487   0.85286   0.45824   0.00000  Uiso   1.00
C508   C     0.98516   0.73530   0.25120   0.00000  Uiso   1.00
C509   C     0.89180   0.81381   0.04176   0.00000  Uiso   1.00
C510   C     0.73892   0.87390   0.49129   0.00000  Uiso   1.00
C511   C     0.92775   0.79276   0.00871   0.00000  Uiso   1.00
C512   C     0.82481   0.83072   0.47503   0.00000  Uiso   1.00
C513   C     0.84186   0.83595   0.02497   0.00000  Uiso   1.00
C514   C     0.86213   0.78026   0.11891   0.00000  Uiso   1.00
C515   C     0.80454   0.88641   0.38109   0.00000  Uiso   1.00
C516   C     0.72126   0.76781   0.09292   0.00000  Uiso   1.00
C517   C     0.94541   0.89885   0.40708   0.00000  Uiso   1.00
C518   C     0.81000   0.86518   0.05642   0.00000  Uiso   1.00
C519   C     0.85666   0.80149   0.44358   0.00000  Uiso   1.00
C520   C     0.75782   0.88187   0.04015   0.00000  Uiso   1.00
C521   C     0.90885   0.78479   0.45985   0.00000  Uiso   1.00
C522   C     0.68919   0.98598   0.24812   0.00000  Uiso   1.00
C523   C     0.97748   0.68069   0.25188   0.00000  Uiso   1.00
C524   C     0.68930   0.84258   0.34061   0.00000  Uiso   1.00
H525   H     0.73257   0.90133   0.06569   0.00000  Uiso   1.00
H526   H     0.83845   0.87918   0.28147   0.00000  Uiso   1.00
H527   H     0.83907   0.80834   0.14013   0.00000  Uiso   1.00
H528   H     0.83275   0.75435   0.09382   0.00000  Uiso   1.00
H529   H     0.88233   0.75369   0.14421   0.00000  Uiso   1.00
H530   H     0.83392   0.91231   0.40618   0.00000  Uiso   1.00
H531   H     0.82760   0.85832   0.35986   0.00000  Uiso   1.00
H532   H     0.78434   0.91297   0.35579   0.00000  Uiso   1.00
H533   H     0.71485   0.73902   0.12071   0.00000  Uiso   1.00
H534   H     0.74204   0.74854   0.06283   0.00000  Uiso   1.00
H535   H     0.74896   0.80153   0.10887   0.00000  Uiso   1.00
H536   H     0.93409   0.76533   0.43431   0.00000  Uiso   1.00
H537   H     0.95181   0.92764   0.37930   0.00000  Uiso   1.00
H538   H     0.91771   0.86514   0.39113   0.00000  Uiso   1.00
H539   H     0.92462   0.91812   0.43718   0.00000  Uiso   1.00
H540   H     0.99227   0.90685   0.49926   0.00000  Uiso   1.00
H541   H     0.67440   0.75981   0.00074   0.00000  Uiso   1.00
H542   H     0.82471   0.87485   0.09393   0.00000  Uiso   1.00
H543   H     0.84196   0.79182   0.40607   0.00000  Uiso   1.00
H544   H     0.73171   0.66958   0.24451   0.00000  Uiso   1.00
H545   H     0.93496   0.99709   0.25549   0.00000  Uiso   1.00
H546   H     0.82822   0.78749   0.21853   0.00000  Uiso   1.00
N547   N     0.81362   0.81883   0.23739   0.00000  Uiso   1.00
N548   N     0.85305   0.84784   0.26260   0.00000  Uiso   1.00
O549   O     0.96386   0.91298   0.25309   0.00000  Uiso   1.00
O550   O     0.70281   0.75369   0.24691   0.00000  Uiso   1.00
O551   O     0.72488   0.90368   0.24501   0.00000  Uiso   1.00
O552   O     0.94178   0.76298   0.25499   0.00000  Uiso   1.00
O553   O     0.96995   0.84063   0.32247   0.00000  Uiso   1.00
O554   O     0.69672   0.82603   0.17753   0.00000  Uiso   1.00
O555   O     0.73098   0.83134   0.31439   0.00000  Uiso   1.00
O556   O     0.93569   0.83533   0.18561   0.00000  Uiso   1.00
Zn557  Zn    0.93700   0.83954   0.25540   0.00000  Uiso   1.00
Zn558  Zn    0.72967   0.82713   0.24460   0.00000  Uiso   1.00
C559   C     0.01485   0.26470   0.74880   0.00000  Uiso   1.00
C560   C     0.31070   0.15742   0.65939   0.00000  Uiso   1.00
C561   C     0.03771   0.19166   0.89248   0.00000  Uiso   1.00
C562   C     0.29562   0.14167   0.60752   0.00000  Uiso   1.00
C563   C     0.01935   0.22248   0.97416   0.00000  Uiso   1.00
C564   C     0.31398   0.11085   0.52584   0.00000  Uiso   1.00
C565   C     0.00082   0.21329   0.92479   0.00000  Uiso   1.00
C566   C     0.33251   0.12004   0.57522   0.00000  Uiso   1.00
C567   C     0.09460   0.19110   0.90902   0.00000  Uiso   1.00
C568   C     0.23873   0.14223   0.59098   0.00000  Uiso   1.00
C569   C     0.10820   0.18619   0.95824   0.00000  Uiso   1.00
C570   C     0.31849   0.06863   0.75120   0.00000  Uiso   1.00
C571   C     0.22513   0.14714   0.54176   0.00000  Uiso   1.00
C572   C     0.07225   0.20724   0.99129   0.00000  Uiso   1.00
C573   C     0.26108   0.12609   0.50871   0.00000  Uiso   1.00
C574   C     0.15814   0.16405   0.97503   0.00000  Uiso   1.00
C575   C     0.17519   0.16928   0.52497   0.00000  Uiso   1.00
C576   C     0.19546   0.11359   0.61891   0.00000  Uiso   1.00
C577   C     0.13787   0.21974   0.88109   0.00000  Uiso   1.00
C578   C     0.05459   0.10115   0.59292   0.00000  Uiso   1.00
C579   C     0.27874   0.23218   0.90708   0.00000  Uiso   1.00
C580   C     0.14334   0.19851   0.55642   0.00000  Uiso   1.00
C581   C     0.19000   0.13482   0.94358   0.00000  Uiso   1.00
C582   C     0.09115   0.21521   0.54015   0.00000  Uiso   1.00
C583   C     0.24218   0.11813   0.95985   0.00000  Uiso   1.00
C584   C     0.02252   0.31931   0.74812   0.00000  Uiso   1.00
C585   C     0.31081   0.01402   0.75188   0.00000  Uiso   1.00
C586   C     0.02263   0.17591   0.84061   0.00000  Uiso   1.00
H587   H     0.06591   0.23467   0.56569   0.00000  Uiso   1.00
H588   H     0.17178   0.21251   0.78147   0.00000  Uiso   1.00
H589   H     0.17240   0.14168   0.64013   0.00000  Uiso   1.00
H590   H     0.16608   0.08769   0.59382   0.00000  Uiso   1.00
H591   H     0.21566   0.08703   0.64421   0.00000  Uiso   1.00
H592   H     0.16725   0.24565   0.90618   0.00000  Uiso   1.00
H593   H     0.16093   0.19166   0.85986   0.00000  Uiso   1.00
H594   H     0.11767   0.24631   0.85579   0.00000  Uiso   1.00
H595   H     0.04819   0.07236   0.62071   0.00000  Uiso   1.00
H596   H     0.07537   0.08187   0.56283   0.00000  Uiso   1.00
H597   H     0.08229   0.13486   0.60887   0.00000  Uiso   1.00
H598   H     0.26743   0.09867   0.93431   0.00000  Uiso   1.00
H599   H     0.28514   0.26097   0.87930   0.00000  Uiso   1.00
H600   H     0.25104   0.19847   0.89113   0.00000  Uiso   1.00
H601   H     0.25796   0.25145   0.93718   0.00000  Uiso   1.00
H602   H     0.32560   0.24018   0.99926   0.00000  Uiso   1.00
H603   H     0.00773   0.09315   0.50074   0.00000  Uiso   1.00
H604   H     0.15804   0.20818   0.59393   0.00000  Uiso   1.00
H605   H     0.17529   0.12515   0.90607   0.00000  Uiso   1.00
H606   H     0.06504   0.00291   0.74451   0.00000  Uiso   1.00
H607   H     0.26829   0.33042   0.75549   0.00000  Uiso   1.00
H608   H     0.16155   0.12082   0.71853   0.00000  Uiso   1.00
N609   N     0.14695   0.15216   0.73739   0.00000  Uiso   1.00
N610   N     0.18638   0.18117   0.76260   0.00000  Uiso   1.00
O611   O     0.29719   0.24631   0.75309   0.00000  Uiso   1.00
O612   O     0.03614   0.08702   0.74691   0.00000  Uiso   1.00
O613   O     0.05822   0.23702   0.74501   0.00000  Uiso   1.00
O614   O     0.27512   0.09632   0.75499   0.00000  Uiso   1.00
O615   O     0.30328   0.17397   0.82247   0.00000  Uiso   1.00
O616   O     0.03005   0.15937   0.67753   0.00000  Uiso   1.00
O617   O     0.06431   0.16467   0.81439   0.00000  Uiso   1.00
O618   O     0.26902   0.16866   0.68561   0.00000  Uiso   1.00
Zn619  Zn    0.27033   0.17287   0.75540   0.00000  Uiso   1.00
Zn620  Zn    0.06300   0.16046   0.74460   0.00000  Uiso   1.00
C621   C     0.34818   0.26470   0.74880   0.00000  Uiso   1.00
C622   C     0.64403   0.15742   0.65939   0.00000  Uiso   1.00
C623   C     0.37104   0.19166   0.89248   0.00000  Uiso   1.00
C624   C     0.62896   0.14167   0.60752   0.00000  Uiso   1.00
C625   C     0.35269   0.22248   0.97416   0.00000  Uiso   1.00
C626   C     0.64731   0.11085   0.52584   0.00000  Uiso   1.00
C627   C     0.33415   0.21329   0.92479   0.00000  Uiso   1.00
C628   C     0.66584   0.12004   0.57522   0.00000  Uiso   1.00
C629   C     0.42794   0.19110   0.90902   0.00000  Uiso   1.00
C630   C     0.57206   0.14223   0.59098   0.00000  Uiso   1.00
C631   C     0.44154   0.18619   0.95824   0.00000  Uiso   1.00
C632   C     0.65182   0.06863   0.75120   0.00000  Uiso   1.00
C633   C     0.55846   0.14714   0.54176   0.00000  Uiso   1.00
C634   C     0.40558   0.20724   0.99129   0.00000  Uiso   1.00
C635   C     0.59441   0.12609   0.50871   0.00000  Uiso   1.00
C636   C     0.49148   0.16405   0.97503   0.00000  Uiso   1.00
C637   C     0.50852   0.16928   0.52497   0.00000  Uiso   1.00
C638   C     0.52879   0.11359   0.61891   0.00000  Uiso   1.00
C639   C     0.47121   0.21974   0.88109   0.00000  Uiso   1.00
C640   C     0.38792   0.10115   0.59292   0.00000  Uiso   1.00
C641   C     0.61207   0.23218   0.90708   0.00000  Uiso   1.00
C642   C     0.47667   0.19851   0.55642   0.00000  Uiso   1.00
C643   C     0.52333   0.13482   0.94358   0.00000  Uiso   1.00
C644   C     0.42449   0.21521   0.54015   0.00000  Uiso   1.00
C645   C     0.57551   0.11813   0.95985   0.00000  Uiso   1.00
C646   C     0.35585   0.31931   0.74812   0.00000  Uiso   1.00
C647   C     0.64415   0.01402   0.75188   0.00000  Uiso   1.00
C648   C     0.35597   0.17591   0.84061   0.00000  Uiso   1.00
H649   H     0.39924   0.23467   0.56569   0.00000  Uiso   1.00
H650   H     0.50512   0.21251   0.78147   0.00000  Uiso   1.00
H651   H     0.50574   0.14168   0.64013   0.00000  Uiso   1.00
H652   H     0.49941   0.08769   0.59382   0.00000  Uiso   1.00
H653   H     0.54899   0.08703   0.64421   0.00000  Uiso   1.00
H654   H     0.50059   0.24565   0.90618   0.00000  Uiso   1.00
H655   H     0.49426   0.19166   0.85986   0.00000  Uiso   1.00
H656   H     0.45101   0.24631   0.85579   0.00000  Uiso   1.00
H657   H     0.38152   0.07236   0.62071   0.00000  Uiso   1.00
H658   H     0.40871   0.08187   0.56283   0.00000  Uiso   1.00
H659   H     0.41562   0.13486   0.60887   0.00000  Uiso   1.00
H660   H     0.60076   0.09867   0.93431   0.00000  Uiso   1.00
H661   H     0.61848   0.26097   0.87930   0.00000  Uiso   1.00
H662   H     0.58438   0.19847   0.89113   0.00000  Uiso   1.00
H663   H     0.59129   0.25145   0.93718   0.00000  Uiso   1.00
H664   H     0.65894   0.24018   0.99926   0.00000  Uiso   1.00
H665   H     0.34106   0.09315   0.50074   0.00000  Uiso   1.00
H666   H     0.49138   0.20818   0.59393   0.00000  Uiso   1.00
H667   H     0.50863   0.12515   0.90607   0.00000  Uiso   1.00
H668   H     0.39837   0.00291   0.74451   0.00000  Uiso   1.00
H669   H     0.60163   0.33042   0.75549   0.00000  Uiso   1.00
H670   H     0.49488   0.12082   0.71853   0.00000  Uiso   1.00
N671   N     0.48029   0.15216   0.73739   0.00000  Uiso   1.00
N672   N     0.51971   0.18117   0.76260   0.00000  Uiso   1.00
O673   O     0.63052   0.24631   0.75309   0.00000  Uiso   1.00
O674   O     0.36948   0.08702   0.74691   0.00000  Uiso   1.00
O675   O     0.39155   0.23702   0.74501   0.00000  Uiso   1.00
O676   O     0.60845   0.09632   0.75499   0.00000  Uiso   1.00
O677   O     0.63662   0.17397   0.82247   0.00000  Uiso   1.00
O678   O     0.36338   0.15937   0.67753   0.00000  Uiso   1.00
O679   O     0.39764   0.16467   0.81439   0.00000  Uiso   1.00
O680   O     0.60236   0.16866   0.68561   0.00000  Uiso   1.00
Zn681  Zn    0.60366   0.17287   0.75540   0.00000  Uiso   1.00
Zn682  Zn    0.39634   0.16046   0.74460   0.00000  Uiso   1.00
C683   C     0.68151   0.26470   0.74880   0.00000  Uiso   1.00
C684   C     0.97737   0.15742   0.65939   0.00000  Uiso   1.00
C685   C     0.70437   0.19166   0.89248   0.00000  Uiso   1.00
C686   C     0.96229   0.14167   0.60752   0.00000  Uiso   1.00
C687   C     0.68602   0.22248   0.97416   0.00000  Uiso   1.00
C688   C     0.98064   0.11085   0.52584   0.00000  Uiso   1.00
C689   C     0.66749   0.21329   0.92479   0.00000  Uiso   1.00
C690   C     0.99918   0.12004   0.57522   0.00000  Uiso   1.00
C691   C     0.76127   0.19110   0.90902   0.00000  Uiso   1.00
C692   C     0.90540   0.14223   0.59098   0.00000  Uiso   1.00
C693   C     0.77487   0.18619   0.95824   0.00000  Uiso   1.00
C694   C     0.98516   0.06863   0.75120   0.00000  Uiso   1.00
C695   C     0.89180   0.14714   0.54176   0.00000  Uiso   1.00
C696   C     0.73892   0.20724   0.99129   0.00000  Uiso   1.00
C697   C     0.92775   0.12609   0.50871   0.00000  Uiso   1.00
C698   C     0.82481   0.16405   0.97503   0.00000  Uiso   1.00
C699   C     0.84186   0.16928   0.52497   0.00000  Uiso   1.00
C700   C     0.86213   0.11359   0.61891   0.00000  Uiso   1.00
C701   C     0.80454   0.21974   0.88109   0.00000  Uiso   1.00
C702   C     0.72126   0.10115   0.59292   0.00000  Uiso   1.00
C703   C     0.94541   0.23218   0.90708   0.00000  Uiso   1.00
C704   C     0.81000   0.19851   0.55642   0.00000  Uiso   1.00
C705   C     0.85666   0.13482   0.94358   0.00000  Uiso   1.00
C706   C     0.75782   0.21521   0.54015   0.00000  Uiso   1.00
C707   C     0.90885   0.11813   0.95985   0.00000  Uiso   1.00
C708   C     0.68919   0.31931   0.74812   0.00000  Uiso   1.00
C709   C     0.97748   0.01402   0.75188   0.00000  Uiso   1.00
C710   C     0.68930   0.17591   0.84061   0.00000  Uiso   1.00
H711   H     0.73257   0.23467   0.56569   0.00000  Uiso   1.00
H712   H     0.83845   0.21251   0.78147   0.00000  Uiso   1.00
H713   H     0.83907   0.14168   0.64013   0.00000  Uiso   1.00
H714   H     0.83275   0.08769   0.59382   0.00000  Uiso   1.00
H715   H     0.88233   0.08703   0.64421   0.00000  Uiso   1.00
H716   H     0.83392   0.24565   0.90618   0.00000  Uiso   1.00
H717   H     0.82760   0.19166   0.85986   0.00000  Uiso   1.00
H718   H     0.78434   0.24631   0.85579   0.00000  Uiso   1.00
H719   H     0.71485   0.07236   0.62071   0.00000  Uiso   1.00
H720   H     0.74204   0.08187   0.56283   0.00000  Uiso   1.00
H721   H     0.74896   0.13486   0.60887   0.00000  Uiso   1.00
H722   H     0.93409   0.09867   0.93431   0.00000  Uiso   1.00
H723   H     0.95181   0.26097   0.87930   0.00000  Uiso   1.00
H724   H     0.91771   0.19847   0.89113   0.00000  Uiso   1.00
H725   H     0.92462   0.25145   0.93718   0.00000  Uiso   1.00
H726   H     0.99227   0.24018   0.99926   0.00000  Uiso   1.00
H727   H     0.67440   0.09315   0.50074   0.00000  Uiso   1.00
H728   H     0.82471   0.20818   0.59393   0.00000  Uiso   1.00
H729   H     0.84196   0.12515   0.90607   0.00000  Uiso   1.00
H730   H     0.73171   0.00291   0.74451   0.00000  Uiso   1.00
H731   H     0.93496   0.33042   0.75549   0.00000  Uiso   1.00
H732   H     0.82822   0.12082   0.71853   0.00000  Uiso   1.00
N733   N     0.81362   0.15216   0.73739   0.00000  Uiso   1.00
N734   N     0.85305   0.18117   0.76260   0.00000  Uiso   1.00
O735   O     0.96386   0.24631   0.75309   0.00000  Uiso   1.00
O736   O     0.70281   0.08702   0.74691   0.00000  Uiso   1.00
O737   O     0.72488   0.23702   0.74501   0.00000  Uiso   1.00
O738   O     0.94178   0.09632   0.75499   0.00000  Uiso   1.00
O739   O     0.96995   0.17397   0.82247   0.00000  Uiso   1.00
O740   O     0.69672   0.15937   0.67753   0.00000  Uiso   1.00
O741   O     0.73098   0.16467   0.81439   0.00000  Uiso   1.00
O742   O     0.93569   0.16866   0.68561   0.00000  Uiso   1.00
Zn743  Zn    0.93700   0.17287   0.75540   0.00000  Uiso   1.00
Zn744  Zn    0.72967   0.16046   0.74460   0.00000  Uiso   1.00
C745   C     0.01485   0.59803   0.74880   0.00000  Uiso   1.00
C746   C     0.31070   0.49075   0.65939   0.00000  Uiso   1.00
C747   C     0.03771   0.52500   0.89248   0.00000  Uiso   1.00
C748   C     0.29562   0.47500   0.60752   0.00000  Uiso   1.00
C749   C     0.01935   0.55581   0.97416   0.00000  Uiso   1.00
C750   C     0.31398   0.44418   0.52584   0.00000  Uiso   1.00
C751   C     0.00082   0.54662   0.92479   0.00000  Uiso   1.00
C752   C     0.33251   0.45337   0.57522   0.00000  Uiso   1.00
C753   C     0.09460   0.52444   0.90902   0.00000  Uiso   1.00
C754   C     0.23873   0.47556   0.59098   0.00000  Uiso   1.00
C755   C     0.10820   0.51953   0.95824   0.00000  Uiso   1.00
C756   C     0.31849   0.40197   0.75120   0.00000  Uiso   1.00
C757   C     0.22513   0.48047   0.54176   0.00000  Uiso   1.00
C758   C     0.07225   0.54057   0.99129   0.00000  Uiso   1.00
C759   C     0.26108   0.45943   0.50871   0.00000  Uiso   1.00
C760   C     0.15814   0.49738   0.97503   0.00000  Uiso   1.00
C761   C     0.17519   0.50262   0.52497   0.00000  Uiso   1.00
C762   C     0.19546   0.44692   0.61891   0.00000  Uiso   1.00
C763   C     0.13787   0.55308   0.88109   0.00000  Uiso   1.00
C764   C     0.05459   0.43448   0.59292   0.00000  Uiso   1.00
C765   C     0.27874   0.56551   0.90708   0.00000  Uiso   1.00
C766   C     0.14334   0.53185   0.55642   0.00000  Uiso   1.00
C767   C     0.19000   0.46815   0.94358   0.00000  Uiso   1.00
C768   C     0.09115   0.54854   0.54015   0.00000  Uiso   1.00
C769   C     0.24218   0.45146   0.95985   0.00000  Uiso   1.00
C770   C     0.02252   0.65265   0.74812   0.00000  Uiso   1.00
C771   C     0.31081   0.34735   0.75188   0.00000  Uiso   1.00
C772   C     0.02263   0.50925   0.84061   0.00000  Uiso   1.00
H773   H     0.06591   0.56800   0.56569   0.00000  Uiso   1.00
H774   H     0.17178   0.54584   0.78147   0.00000  Uiso   1.00
H775   H     0.17240   0.47501   0.64013   0.00000  Uiso   1.00
H776   H     0.16608   0.42102   0.59382   0.00000  Uiso   1.00
H777   H     0.21566   0.42036   0.64421   0.00000  Uiso   1.00
H778   H     0.16725   0.57898   0.90618   0.00000  Uiso   1.00
H779   H     0.16093   0.52499   0.85986   0.00000  Uiso   1.00
H780   H     0.11767   0.57964   0.85579   0.00000  Uiso   1.00
H781   H     0.04819   0.40569   0.62071   0.00000  Uiso   1.00
H782   H     0.07537   0.41521   0.56283   0.00000  Uiso   1.00
H783   H     0.08229   0.46819   0.60887   0.00000  Uiso   1.00
H784   H     0.26743   0.43200   0.93431   0.00000  Uiso   1.00
H785   H     0.28514   0.59431   0.87930   0.00000  Uiso   1.00
H786   H     0.25104   0.53180   0.89113   0.00000  Uiso   1.00
H787   H     0.25796   0.58478   0.93718   0.00000  Uiso   1.00
H788   H     0.32560   0.57352   0.99926   0.00000  Uiso   1.00
H789   H     0.00773   0.42648   0.50074   0.00000  Uiso   1.00
H790   H     0.15804   0.54151   0.59393   0.00000  Uiso   1.00
H791   H     0.17529   0.45849   0.90607   0.00000  Uiso   1.00
H792   H     0.06504   0.33625   0.74451   0.00000  Uiso   1.00
H793   H     0.26829   0.66375   0.75549   0.00000  Uiso   1.00
H794   H     0.16155   0.45416   0.71853   0.00000  Uiso   1.00
N795   N     0.14695   0.48550   0.73739   0.00000  Uiso   1.00
N796   N     0.18638   0.51450   0.76260   0.00000  Uiso   1.00
O797   O     0.29719   0.57964   0.75309   0.00000  Uiso   1.00
O798   O     0.03614   0.42036   0.74691   0.00000  Uiso   1.00
O799   O     0.05822   0.57035   0.74501   0.00000  Uiso   1.00
O800   O     0.27512   0.42965   0.75499   0.00000  Uiso   1.00
O801   O     0.30328   0.50730   0.82247   0.00000  Uiso   1.00
O802   O     0.03005   0.49270   0.67753   0.00000  Uiso   1.00
O803   O     0.06431   0.49801   0.81439   0.00000  Uiso   1.00
O804   O     0.26902   0.50199   0.68561   0.00000  Uiso   1.00
Zn805  Zn    0.27033   0.50621   0.75540   0.00000  Uiso   1.00
Zn806  Zn    0.06300   0.49379   0.74460   0.00000  Uiso   1.00
C807   C     0.34818   0.59803   0.74880   0.00000  Uiso   1.00
C808   C     0.64403   0.49075   0.65939   0.00000  Uiso   1.00
C809   C     0.37104   0.52500   0.89248   0.00000  Uiso   1.00
C810   C     0.62896   0.47500   0.60752   0.00000  Uiso   1.00
C811   C     0.35269   0.55581   0.97416   0.00000  Uiso   1.00
C812   C     0.64731   0.44418   0.52584   0.00000  Uiso   1.00
C813   C     0.33415   0.54662   0.92479   0.00000  Uiso   1.00
C814   C     0.66584   0.45337   0.57522   0.00000  Uiso   1.00
C815   C     0.42794   0.52444   0.90902   0.00000  Uiso   1.00
C816   C     0.57206   0.47556   0.59098   0.00000  Uiso   1.00
C817   C     0.44154   0.51953   0.95824   0.00000  Uiso   1.00
C818   C     0.65182   0.40197   0.75120   0.00000  Uiso   1.00
C819   C     0.55846   0.48047   0.54176   0.00000  Uiso   1.00
C820   C     0.40558   0.54057   0.99129   0.00000  Uiso   1.00
C821   C     0.59441   0.45943   0.50871   0.00000  Uiso   1.00
C822   C     0.49148   0.49738   0.97503   0.00000  Uiso   1.00
C823   C     0.50852   0.50262   0.52497   0.00000  Uiso   1.00
C824   C     0.52879   0.44692   0.61891   0.00000  Uiso   1.00
C825   C     0.47121   0.55308   0.88109   0.00000  Uiso   1.00
C826   C     0.38792   0.43448   0.59292   0.00000  Uiso   1.00
C827   C     0.61207   0.56551   0.90708   0.00000  Uiso   1.00
C828   C     0.47667   0.53185   0.55642   0.00000  Uiso   1.00
C829   C     0.52333   0.46815   0.94358   0.00000  Uiso   1.00
C830   C     0.42449   0.54854   0.54015   0.00000  Uiso   1.00
C831   C     0.57551   0.45146   0.95985   0.00000  Uiso   1.00
C832   C     0.35585   0.65265   0.74812   0.00000  Uiso   1.00
C833   C     0.64415   0.34735   0.75188   0.00000  Uiso   1.00
C834   C     0.35597   0.50925   0.84061   0.00000  Uiso   1.00
H835   H     0.39924   0.56800   0.56569   0.00000  Uiso   1.00
H836   H     0.50512   0.54584   0.78147   0.00000  Uiso   1.00
H837   H     0.50574   0.47501   0.64013   0.00000  Uiso   1.00
H838   H     0.49941   0.42102   0.59382   0.00000  Uiso   1.00
H839   H     0.54899   0.42036   0.64421   0.00000  Uiso   1.00
H840   H     0.50059   0.57898   0.90618   0.00000  Uiso   1.00
H841   H     0.49426   0.52499   0.85986   0.00000  Uiso   1.00
H842   H     0.45101   0.57964   0.85579   0.00000  Uiso   1.00
H843   H     0.38152   0.40569   0.62071   0.00000  Uiso   1.00
H844   H     0.40871   0.41521   0.56283   0.00000  Uiso   1.00
H845   H     0.41562   0.46819   0.60887   0.00000  Uiso   1.00
H846   H     0.60076   0.43200   0.93431   0.00000  Uiso   1.00
H847   H     0.61848   0.59431   0.87930   0.00000  Uiso   1.00
H848   H     0.58438   0.53180   0.89113   0.00000  Uiso   1.00
H849   H     0.59129   0.58478   0.93718   0.00000  Uiso   1.00
H850   H     0.65894   0.57352   0.99926   0.00000  Uiso   1.00
H851   H     0.34106   0.42648   0.50074   0.00000  Uiso   1.00
H852   H     0.49138   0.54151   0.59393   0.00000  Uiso   1.00
H853   H     0.50863   0.45849   0.90607   0.00000  Uiso   1.00
H854   H     0.39837   0.33625   0.74451   0.00000  Uiso   1.00
H855   H     0.60163   0.66375   0.75549   0.00000  Uiso   1.00
H856   H     0.49488   0.45416   0.71853   0.00000  Uiso   1.00
N857   N     0.48029   0.48550   0.73739   0.00000  Uiso   1.00
N858   N     0.51971   0.51450   0.76260   0.00000  Uiso   1.00
O859   O     0.63052   0.57964   0.75309   0.00000  Uiso   1.00
O860   O     0.36948   0.42036   0.74691   0.00000  Uiso   1.00
O861   O     0.39155   0.57035   0.74501   0.00000  Uiso   1.00
O862   O     0.60845   0.42965   0.75499   0.00000  Uiso   1.00
O863   O     0.63662   0.50730   0.82247   0.00000  Uiso   1.00
O864   O     0.36338   0.49270   0.67753   0.00000  Uiso   1.00
O865   O     0.39764   0.49801   0.81439   0.00000  Uiso   1.00
O866   O     0.60236   0.50199   0.68561   0.00000  Uiso   1.00
Zn867  Zn    0.60366   0.50621   0.75540   0.00000  Uiso   1.00
Zn868  Zn    0.39634   0.49379   0.74460   0.00000  Uiso   1.00
C869   C     0.68151   0.59803   0.74880   0.00000  Uiso   1.00
C870   C     0.97737   0.49075   0.65939   0.00000  Uiso   1.00
C871   C     0.70437   0.52500   0.89248   0.00000  Uiso   1.00
C872   C     0.96229   0.47500   0.60752   0.00000  Uiso   1.00
C873   C     0.68602   0.55581   0.97416   0.00000  Uiso   1.00
C874   C     0.98064   0.44418   0.52584   0.00000  Uiso   1.00
C875   C     0.66749   0.54662   0.92479   0.00000  Uiso   1.00
C876   C     0.99918   0.45337   0.57522   0.00000  Uiso   1.00
C877   C     0.76127   0.52444   0.90902   0.00000  Uiso   1.00
C878   C     0.90540   0.47556   0.59098   0.00000  Uiso   1.00
C879   C     0.77487   0.51953   0.95824   0.00000  Uiso   1.00
C880   C     0.98516   0.40197   0.75120   0.00000  Uiso   1.00
C881   C     0.89180   0.48047   0.54176   0.00000  Uiso   1.00
C882   C     0.73892   0.54057   0.99129   0.00000  Uiso   1.00
C883   C     0.92775   0.45943   0.50871   0.00000  Uiso   1.00
C884   C     0.82481   0.49738   0.97503   0.00000  Uiso   1.00
C885   C     0.84186   0.50262   0.52497   0.00000  Uiso   1.00
C886   C     0.86213   0.44692   0.61891   0.00000  Uiso   1.00
C887   C     0.80454   0.55308   0.88109   0.00000  Uiso   1.00
C888   C     0.72126   0.43448   0.59292   0.00000  Uiso   1.00
C889   C     0.94541   0.56551   0.90708   0.00000  Uiso   1.00
C890   C     0.81000   0.53185   0.55642   0.00000  Uiso   1.00
C891   C     0.85666   0.46815   0.94358   0.00000  Uiso   1.00
C892   C     0.75782   0.54854   0.54015   0.00000  Uiso   1.00
C893   C     0.90885   0.45146   0.95985   0.00000  Uiso   1.00
C894   C     0.68919   0.65265   0.74812   0.00000  Uiso   1.00
C895   C     0.97748   0.34735   0.75188   0.00000  Uiso   1.00
C896   C     0.68930   0.50925   0.84061   0.00000  Uiso   1.00
H897   H     0.73257   0.56800   0.56569   0.00000  Uiso   1.00
H898   H     0.83845   0.54584   0.78147   0.00000  Uiso   1.00
H899   H     0.83907   0.47501   0.64013   0.00000  Uiso   1.00
H900   H     0.83275   0.42102   0.59382   0.00000  Uiso   1.00
H901   H     0.88233   0.42036   0.64421   0.00000  Uiso   1.00
H902   H     0.83392   0.57898   0.90618   0.00000  Uiso   1.00
H903   H     0.82760   0.52499   0.85986   0.00000  Uiso   1.00
H904   H     0.78434   0.57964   0.85579   0.00000  Uiso   1.00
H905   H     0.71485   0.40569   0.62071   0.00000  Uiso   1.00
H906   H     0.74204   0.41521   0.56283   0.00000  Uiso   1.00
H907   H     0.74896   0.46819   0.60887   0.00000  Uiso   1.00
H908   H     0.93409   0.43200   0.93431   0.00000  Uiso   1.00
H909   H     0.95181   0.59431   0.87930   0.00000  Uiso   1.00
H910   H     0.91771   0.53180   0.89113   0.00000  Uiso   1.00
H911   H     0.92462   0.58478   0.93718   0.00000  Uiso   1.00
H912   H     0.99227   0.57352   0.99926   0.00000  Uiso   1.00
H913   H     0.67440   0.42648   0.50074   0.00000  Uiso   1.00
H914   H     0.82471   0.54151   0.59393   0.00000  Uiso   1.00
H915   H     0.84196   0.45849   0.90607   0.00000  Uiso   1.00
H916   H     0.73171   0.33625   0.74451   0.00000  Uiso   1.00
H917   H     0.93496   0.66375   0.75549   0.00000  Uiso   1.00
H918   H     0.82822   0.45416   0.71853   0.00000  Uiso   1.00
N919   N     0.81362   0.48550   0.73739   0.00000  Uiso   1.00
N920   N     0.85305   0.51450   0.76260   0.00000  Uiso   1.00
O921   O     0.96386   0.57964   0.75309   0.00000  Uiso   1.00
O922   O     0.70281   0.42036   0.74691   0.00000  Uiso   1.00
O923   O     0.72488   0.57035   0.74501   0.00000  Uiso   1.00
O924   O     0.94178   0.42965   0.75499   0.00000  Uiso   1.00
O925   O     0.96995   0.50730   0.82247   0.00000  Uiso   1.00
O926   O     0.69672   0.49270   0.67753   0.00000  Uiso   1.00
O927   O     0.73098   0.49801   0.81439   0.00000  Uiso   1.00
O928   O     0.93569   0.50199   0.68561   0.00000  Uiso   1.00
Zn929  Zn    0.93700   0.50621   0.75540   0.00000  Uiso   1.00
Zn930  Zn    0.72967   0.49379   0.74460   0.00000  Uiso   1.00
C931   C     0.01485   0.93137   0.74880   0.00000  Uiso   1.00
C932   C     0.31070   0.82409   0.65939   0.00000  Uiso   1.00
C933   C     0.03771   0.85833   0.89248   0.00000  Uiso   1.00
C934   C     0.29562   0.80833   0.60752   0.00000  Uiso   1.00
C935   C     0.01935   0.88915   0.97416   0.00000  Uiso   1.00
C936   C     0.31398   0.77752   0.52584   0.00000  Uiso   1.00
C937   C     0.00082   0.87996   0.92479   0.00000  Uiso   1.00
C938   C     0.33251   0.78670   0.57522   0.00000  Uiso   1.00
C939   C     0.09460   0.85777   0.90902   0.00000  Uiso   1.00
C940   C     0.23873   0.80890   0.59098   0.00000  Uiso   1.00
C941   C     0.10820   0.85286   0.95824   0.00000  Uiso   1.00
C942   C     0.31849   0.73530   0.75120   0.00000  Uiso   1.00
C943   C     0.22513   0.81381   0.54176   0.00000  Uiso   1.00
C944   C     0.07225   0.87390   0.99129   0.00000  Uiso   1.00
C945   C     0.26108   0.79276   0.50871   0.00000  Uiso   1.00
C946   C     0.15814   0.83072   0.97503   0.00000  Uiso   1.00
C947   C     0.17519   0.83595   0.52497   0.00000  Uiso   1.00
C948   C     0.19546   0.78026   0.61891   0.00000  Uiso   1.00
C949   C     0.13787   0.88641   0.88109   0.00000  Uiso   1.00
C950   C     0.05459   0.76781   0.59292   0.00000  Uiso   1.00
C951   C     0.27874   0.89885   0.90708   0.00000  Uiso   1.00
C952   C     0.14334   0.86518   0.55642   0.00000  Uiso   1.00
C953   C     0.19000   0.80149   0.94358   0.00000  Uiso   1.00
C954   C     0.09115   0.88187   0.54015   0.00000  Uiso   1.00
C955   C     0.24218   0.78479   0.95985   0.00000  Uiso   1.00
C956   C     0.02252   0.98598   0.74812   0.00000  Uiso   1.00
C957   C     0.31081   0.68069   0.75188   0.00000  Uiso   1.00
C958   C     0.02263   0.84258   0.84061   0.00000  Uiso   1.00
H959   H     0.06591   0.90133   0.56569   0.00000  Uiso   1.00
H960   H     0.17178   0.87918   0.78147   0.00000  Uiso   1.00
H961   H     0.17240   0.80834   0.64013   0.00000  Uiso   1.00
H962   H     0.16608   0.75435   0.59382   0.00000  Uiso   1.00
H963   H     0.21566   0.75369   0.64421   0.00000  Uiso   1.00
H964   H     0.16725   0.91231   0.90618   0.00000  Uiso   1.00
H965   H     0.16093   0.85832   0.85986   0.00000  Uiso   1.00
H966   H     0.11767   0.91297   0.85579   0.00000  Uiso   1.00
H967   H     0.04819   0.73902   0.62071   0.00000  Uiso   1.00
H968   H     0.07537   0.74854   0.56283   0.00000  Uiso   1.00
H969   H     0.08229   0.80153   0.60887   0.00000  Uiso   1.00
H970   H     0.26743   0.76533   0.93431   0.00000  Uiso   1.00
H971   H     0.28514   0.92764   0.87930   0.00000  Uiso   1.00
H972   H     0.25104   0.86514   0.89113   0.00000  Uiso   1.00
H973   H     0.25796   0.91812   0.93718   0.00000  Uiso   1.00
H974   H     0.32560   0.90685   0.99926   0.00000  Uiso   1.00
H975   H     0.00773   0.75981   0.50074   0.00000  Uiso   1.00
H976   H     0.15804   0.87485   0.59393   0.00000  Uiso   1.00
H977   H     0.17529   0.79182   0.90607   0.00000  Uiso   1.00
H978   H     0.06504   0.66958   0.74451   0.00000  Uiso   1.00
H979   H     0.26829   0.99709   0.75549   0.00000  Uiso   1.00
H980   H     0.16155   0.78749   0.71853   0.00000  Uiso   1.00
N981   N     0.14695   0.81883   0.73739   0.00000  Uiso   1.00
N982   N     0.18638   0.84784   0.76260   0.00000  Uiso   1.00
O983   O     0.29719   0.91298   0.75309   0.00000  Uiso   1.00
O984   O     0.03614   0.75369   0.74691   0.00000  Uiso   1.00
O985   O     0.05822   0.90368   0.74501   0.00000  Uiso   1.00
O986   O     0.27512   0.76298   0.75499   0.00000  Uiso   1.00
O987   O     0.30328   0.84063   0.82247   0.00000  Uiso   1.00
O988   O     0.03005   0.82603   0.67753   0.00000  Uiso   1.00
O989   O     0.06431   0.83134   0.81439   0.00000  Uiso   1.00
O990   O     0.26902   0.83533   0.68561   0.00000  Uiso   1.00
Zn991  Zn    0.27033   0.83954   0.75540   0.00000  Uiso   1.00
Zn992  Zn    0.06300   0.82713   0.74460   0.00000  Uiso   1.00
C993   C     0.34818   0.93137   0.74880   0.00000  Uiso   1.00
C994   C     0.64403   0.82409   0.65939   0.00000  Uiso   1.00
C995   C     0.37104   0.85833   0.89248   0.00000  Uiso   1.00
C996   C     0.62896   0.80833   0.60752   0.00000  Uiso   1.00
C997   C     0.35269   0.88915   0.97416   0.00000  Uiso   1.00
C998   C     0.64731   0.77752   0.52584   0.00000  Uiso   1.00
C999   C     0.33415   0.87996   0.92479   0.00000  Uiso   1.00
C1000  C     0.66584   0.78670   0.57522   0.00000  Uiso   1.00
C1001  C     0.42794   0.85777   0.90902   0.00000  Uiso   1.00
C1002  C     0.57206   0.80890   0.59098   0.00000  Uiso   1.00
C1003  C     0.44154   0.85286   0.95824   0.00000  Uiso   1.00
C1004  C     0.65182   0.73530   0.75120   0.00000  Uiso   1.00
C1005  C     0.55846   0.81381   0.54176   0.00000  Uiso   1.00
C1006  C     0.40558   0.87390   0.99129   0.00000  Uiso   1.00
C1007  C     0.59441   0.79276   0.50871   0.00000  Uiso   1.00
C1008  C     0.49148   0.83072   0.97503   0.00000  Uiso   1.00
C1009  C     0.50852   0.83595   0.52497   0.00000  Uiso   1.00
C1010  C     0.52879   0.78026   0.61891   0.00000  Uiso   1.00
C1011  C     0.47121   0.88641   0.88109   0.00000  Uiso   1.00
C1012  C     0.38792   0.76781   0.59292   0.00000  Uiso   1.00
C1013  C     0.61207   0.89885   0.90708   0.00000  Uiso   1.00
C1014  C     0.47667   0.86518   0.55642   0.00000  Uiso   1.00
C1015  C     0.52333   0.80149   0.94358   0.00000  Uiso   1.00
C1016  C     0.42449   0.88187   0.54015   0.00000  Uiso   1.00
C1017  C     0.57551   0.78479   0.95985   0.00000  Uiso   1.00
C1018  C     0.35585   0.98598   0.74812   0.00000  Uiso   1.00
C1019  C     0.64415   0.68069   0.75188   0.00000  Uiso   1.00
C1020  C     0.35597   0.84258   0.84061   0.00000  Uiso   1.00
H1021  H     0.39924   0.90133   0.56569   0.00000  Uiso   1.00
H1022  H     0.50512   0.87918   0.78147   0.00000  Uiso   1.00
H1023  H     0.50574   0.80834   0.64013   0.00000  Uiso   1.00
H1024  H     0.49941   0.75435   0.59382   0.00000  Uiso   1.00
H1025  H     0.54899   0.75369   0.64421   0.00000  Uiso   1.00
H1026  H     0.50059   0.91231   0.90618   0.00000  Uiso   1.00
H1027  H     0.49426   0.85832   0.85986   0.00000  Uiso   1.00
H1028  H     0.45101   0.91297   0.85579   0.00000  Uiso   1.00
H1029  H     0.38152   0.73902   0.62071   0.00000  Uiso   1.00
H1030  H     0.40871   0.74854   0.56283   0.00000  Uiso   1.00
H1031  H     0.41562   0.80153   0.60887   0.00000  Uiso   1.00
H1032  H     0.60076   0.76533   0.93431   0.00000  Uiso   1.00
H1033  H     0.61848   0.92764   0.87930   0.00000  Uiso   1.00
H1034  H     0.58438   0.86514   0.89113   0.00000  Uiso   1.00
H1035  H     0.59129   0.91812   0.93718   0.00000  Uiso   1.00
H1036  H     0.65894   0.90685   0.99926   0.00000  Uiso   1.00
H1037  H     0.34106   0.75981   0.50074   0.00000  Uiso   1.00
H1038  H     0.49138   0.87485   0.59393   0.00000  Uiso   1.00
H1039  H     0.50863   0.79182   0.90607   0.00000  Uiso   1.00
H1040  H     0.39837   0.66958   0.74451   0.00000  Uiso   1.00
H1041  H     0.60163   0.99709   0.75549   0.00000  Uiso   1.00
H1042  H     0.49488   0.78749   0.71853   0.00000  Uiso   1.00
N1043  N     0.48029   0.81883   0.73739   0.00000  Uiso   1.00
N1044  N     0.51971   0.84784   0.76260   0.00000  Uiso   1.00
O1045  O     0.63052   0.91298   0.75309   0.00000  Uiso   1.00
O1046  O     0.36948   0.75369   0.74691   0.00000  Uiso   1.00
O1047  O     0.39155   0.90368   0.74501   0.00000  Uiso   1.00
O1048  O     0.60845   0.76298   0.75499   0.00000  Uiso   1.00
O1049  O     0.63662   0.84063   0.82247   0.00000  Uiso   1.00
O1050  O     0.36338   0.82603   0.67753   0.00000  Uiso   1.00
O1051  O     0.39764   0.83134   0.81439   0.00000  Uiso   1.00
O1052  O     0.60236   0.83533   0.68561   0.00000  Uiso   1.00
Zn1053 Zn    0.60366   0.83954   0.75540   0.00000  Uiso   1.00
Zn1054 Zn    0.39634   0.82713   0.74460   0.00000  Uiso   1.00
C1055  C     0.68151   0.93137   0.74880   0.00000  Uiso   1.00
C1056  C     0.97737   0.82409   0.65939   0.00000  Uiso   1.00
C1057  C     0.70437   0.85833   0.89248   0.00000  Uiso   1.00
C1058  C     0.96229   0.80833   0.60752   0.00000  Uiso   1.00
C1059  C     0.68602   0.88915   0.97416   0.00000  Uiso   1.00
C1060  C     0.98064   0.77752   0.52584   0.00000  Uiso   1.00
C1061  C     0.66749   0.87996   0.92479   0.00000  Uiso   1.00
C1062  C     0.99918   0.78670   0.57522   0.00000  Uiso   1.00
C1063  C     0.76127   0.85777   0.90902   0.00000  Uiso   1.00
C1064  C     0.90540   0.80890   0.59098   0.00000  Uiso   1.00
C1065  C     0.77487   0.85286   0.95824   0.00000  Uiso   1.00
C1066  C     0.98516   0.73530   0.75120   0.00000  Uiso   1.00
C1067  C     0.89180   0.81381   0.54176   0.00000  Uiso   1.00
C1068  C     0.73892   0.87390   0.99129   0.00000  Uiso   1.00
C1069  C     0.92775   0.79276   0.50871   0.00000  Uiso   1.00
C1070  C     0.82481   0.83072   0.97503   0.00000  Uiso   1.00
C1071  C     0.84186   0.83595   0.52497   0.00000  Uiso   1.00
C1072  C     0.86213   0.78026   0.61891   0.00000  Uiso   1.00
C1073  C     0.80454   0.88641   0.88109   0.00000  Uiso   1.00
C1074  C     0.72126   0.76781   0.59292   0.00000  Uiso   1.00
C1075  C     0.94541   0.89885   0.90708   0.00000  Uiso   1.00
C1076  C     0.81000   0.86518   0.55642   0.00000  Uiso   1.00
C1077  C     0.85666   0.80149   0.94358   0.00000  Uiso   1.00
C1078  C     0.75782   0.88187   0.54015   0.00000  Uiso   1.00
C1079  C     0.90885   0.78479   0.95985   0.00000  Uiso   1.00
C1080  C     0.68919   0.98598   0.74812   0.00000  Uiso   1.00
C1081  C     0.97748   0.68069   0.75188   0.00000  Uiso   1.00
C1082  C     0.68930   0.84258   0.84061   0.00000  Uiso   1.00
H1083  H     0.73257   0.90133   0.56569   0.00000  Uiso   1.00
H1084  H     0.83845   0.87918   0.78147   0.00000  Uiso   1.00
H1085  H     0.83907   0.80834   0.64013   0.00000  Uiso   1.00
H1086  H     0.83275   0.75435   0.59382   0.00000  Uiso   1.00
H1087  H     0.88233   0.75369   0.64421   0.00000  Uiso   1.00
H1088  H     0.83392   0.91231   0.90618   0.00000  Uiso   1.00
H1089  H     0.82760   0.85832   0.85986   0.00000  Uiso   1.00
H1090  H     0.78434   0.91297   0.85579   0.00000  Uiso   1.00
H1091  H     0.71485   0.73902   0.62071   0.00000  Uiso   1.00
H1092  H     0.74204   0.74854   0.56283   0.00000  Uiso   1.00
H1093  H     0.74896   0.80153   0.60887   0.00000  Uiso   1.00
H1094  H     0.93409   0.76533   0.93431   0.00000  Uiso   1.00
H1095  H     0.95181   0.92764   0.87930   0.00000  Uiso   1.00
H1096  H     0.91771   0.86514   0.89113   0.00000  Uiso   1.00
H1097  H     0.92462   0.91812   0.93718   0.00000  Uiso   1.00
H1098  H     0.99227   0.90685   0.99926   0.00000  Uiso   1.00
H1099  H     0.67440   0.75981   0.50074   0.00000  Uiso   1.00
H1100  H     0.82471   0.87485   0.59393   0.00000  Uiso   1.00
H1101  H     0.84196   0.79182   0.90607   0.00000  Uiso   1.00
H1102  H     0.73171   0.66958   0.74451   0.00000  Uiso   1.00
H1103  H     0.93496   0.99709   0.75549   0.00000  Uiso   1.00
H1104  H     0.82822   0.78749   0.71853   0.00000  Uiso   1.00
N1105  N     0.81362   0.81883   0.73739   0.00000  Uiso   1.00
N1106  N     0.85305   0.84784   0.76260   0.00000  Uiso   1.00
O1107  O     0.96386   0.91298   0.75309   0.00000  Uiso   1.00
O1108  O     0.70281   0.75369   0.74691   0.00000  Uiso   1.00
O1109  O     0.72488   0.90368   0.74501   0.00000  Uiso   1.00
O1110  O     0.94178   0.76298   0.75499   0.00000  Uiso   1.00
O1111  O     0.96995   0.84063   0.82247   0.00000  Uiso   1.00
O1112  O     0.69672   0.82603   0.67753   0.00000  Uiso   1.00
O1113  O     0.73098   0.83134   0.81439   0.00000  Uiso   1.00
O1114  O     0.93569   0.83533   0.68561   0.00000  Uiso   1.00
Zn1115 Zn    0.93700   0.83954   0.75540   0.00000  Uiso   1.00
Zn1116 Zn    0.72967   0.82713   0.74460   0.00000  Uiso   1.00
loop_
_geom_bond_atom_site_label_1
_geom_bond_atom_site_label_2
_geom_bond_distance
_geom_bond_site_symmetry_2
_ccdc_geom_bond_type
C1     O55     1.298   .     A
C1     C26     1.403   .     S
C1     O177    1.288   1_455 S
C2     C4      1.480   .     S
C2     O60     1.311   .     A
C2     O120    1.310   .     S
C3     C9      1.396   .     A
C3     C28     1.480   .     S
C3     C7      1.417   .     A
C4     C10     1.396   .     A
C4     C8      1.417   .     A
C5     C14     1.399   .     A
C5     C7      1.406   .     A
C5     H168    1.085   1_455 S
C6     C8      1.406   .     A
C6     C15     1.399   .     A
C6     H107    1.085   .     S
C7     C145    1.492   1_455 S
C8     C82     1.492   .     S
C9     C11     1.393   .     A
C9     C19     1.513   .     S
C10    C18     1.513   .     S
C10    C13     1.393   .     A
C11    C16     1.410   .     A
C11    C14     1.409   .     A
C12    O56     1.298   .     A
C12    C27     1.403   .     S
C12    O116    1.288   .     S
C13    C17     1.410   .     A
C13    C15     1.409   .     A
C14    C582    1.393   .     S
C15    C583    1.393   1_554 S
C16    C23     1.413   .     A
C16    C575    1.408   .     S
C17    C22     1.413   .     A
C17    C574    1.408   1_554 S
C18    H33     1.112   .     S
C18    H32     1.106   .     S
C18    H31     1.104   .     S
C19    H35     1.104   .     S
C19    H36     1.112   .     S
C19    H34     1.106   .     S
C20    H38     1.110   .     S
C20    H37     1.111   .     S
C20    H39     1.101   .     S
C20    C132    1.492   1_455 S
C21    H43     1.110   .     S
C21    H41     1.111   .     S
C21    H42     1.101   .     S
C21    C69     1.492   .     S
C22    C24     1.391   .     A
C22    H46     1.080   .     S
C23    C25     1.391   .     A
C23    H47     1.080   .     S
C24    H29     1.084   .     S
C24    C572    1.393   1_554 S
C25    H40     1.084   .     S
C25    C573    1.393   .     S
C26    C337    1.337   1_455 S
C26    H234    1.088   .     S
C27    C460    1.337   1_545 S
C27    H421    1.088   1_545 S
C28    O59     1.311   .     A
C28    O181    1.310   1_455 S
H30    N52     1.028   .     S
H44    C67     1.085   .     S
H45    C130    1.085   1_455 S
H48    C398    1.088   1_545 S
H49    C213    1.088   .     S
H50    N51     1.028   .     S
N51    Zn62    2.045   .     S
N51    N52     1.291   .     D
N52    Zn61    2.045   .     S
O53    Zn61    1.956   .     S
O53    C63     1.288   .     S
O54    Zn62    1.956   .     S
O54    C136    1.288   1_455 S
O55    Zn62    1.976   .     S
O56    Zn61    1.976   .     S
O57    Zn61    1.959   .     S
O57    C90     1.310   .     S
O58    Zn62    1.959   .     S
O58    C126    1.310   1_455 S
O59    Zn62    1.929   .     S
O60    Zn61    1.929   .     S
C63    O117    1.298   .     A
C63    C88     1.403   .     S
C64    C66     1.480   .     S
C64    O122    1.311   .     A
C64    O182    1.310   .     S
C65    C71     1.396   .     A
C65    C90     1.480   .     S
C65    C69     1.417   .     A
C66    C72     1.396   .     A
C66    C70     1.417   .     A
C67    C76     1.399   .     A
C67    C69     1.406   .     A
C68    C70     1.406   .     A
C68    C77     1.399   .     A
C68    H169    1.085   .     S
C70    C144    1.492   .     S
C71    C73     1.393   .     A
C71    C81     1.513   .     S
C72    C80     1.513   .     S
C72    C75     1.393   .     A
C73    C78     1.410   .     A
C73    C76     1.409   .     A
C74    O118    1.298   .     A
C74    C89     1.403   .     S
C74    O178    1.288   .     S
C75    C79     1.410   .     A
C75    C77     1.409   .     A
C76    C644    1.393   .     S
C77    C645    1.393   1_554 S
C78    C85     1.413   .     A
C78    C637    1.408   .     S
C79    C84     1.413   .     A
C79    C636    1.408   1_554 S
C80    H95     1.112   .     S
C80    H94     1.106   .     S
C80    H93     1.104   .     S
C81    H97     1.104   .     S
C81    H98     1.112   .     S
C81    H96     1.106   .     S
C82    H100    1.110   .     S
C82    H99     1.111   .     S
C82    H101    1.101   .     S
C83    H105    1.110   .     S
C83    H103    1.111   .     S
C83    H104    1.101   .     S
C83    C131    1.492   .     S
C84    C86     1.391   .     A
C84    H108    1.080   .     S
C85    C87     1.391   .     A
C85    H109    1.080   .     S
C86    H91     1.084   .     S
C86    C634    1.393   1_554 S
C87    H102    1.084   .     S
C87    C635    1.393   .     S
C88    C213    1.337   .     S
C88    H296    1.088   .     S
C89    C522    1.337   1_545 S
C89    H483    1.088   1_545 S
C90    O121    1.311   .     A
H92    N114    1.028   .     S
H106   C129    1.085   .     S
H110   C460    1.088   1_545 S
H111   C275    1.088   .     S
H112   N113    1.028   .     S
N113   Zn124   2.045   .     S
N113   N114    1.291   .     D
N114   Zn123   2.045   .     S
O115   Zn123   1.956   .     S
O115   C125    1.288   .     S
O116   Zn124   1.956   .     S
O117   Zn124   1.976   .     S
O118   Zn123   1.976   .     S
O119   Zn123   1.959   .     S
O119   C152    1.310   .     S
O120   Zn124   1.959   .     S
O121   Zn124   1.929   .     S
O122   Zn123   1.929   .     S
C125   O179    1.298   .     A
C125   C150    1.403   .     S
C126   C128    1.480   .     S
C126   O184    1.311   .     A
C126   O58     1.310   1_655 S
C127   C133    1.396   .     A
C127   C152    1.480   .     S
C127   C131    1.417   .     A
C128   C134    1.396   .     A
C128   C132    1.417   .     A
C129   C138    1.399   .     A
C129   C131    1.406   .     A
C130   C132    1.406   .     A
C130   C139    1.399   .     A
C130   H45     1.085   1_655 S
C132   C20     1.492   1_655 S
C133   C135    1.393   .     A
C133   C143    1.513   .     S
C134   C142    1.513   .     S
C134   C137    1.393   .     A
C135   C140    1.410   .     A
C135   C138    1.409   .     A
C136   O180    1.298   .     A
C136   C151    1.403   .     S
C136   O54     1.288   1_655 S
C137   C141    1.410   .     A
C137   C139    1.409   .     A
C138   C706    1.393   .     S
C139   C707    1.393   1_554 S
C140   C147    1.413   .     A
C140   C699    1.408   .     S
C141   C146    1.413   .     A
C141   C698    1.408   1_554 S
C142   H157    1.112   .     S
C142   H156    1.106   .     S
C142   H155    1.104   .     S
C143   H159    1.104   .     S
C143   H160    1.112   .     S
C143   H158    1.106   .     S
C144   H162    1.110   .     S
C144   H161    1.111   .     S
C144   H163    1.101   .     S
C145   H167    1.110   .     S
C145   H165    1.111   .     S
C145   H166    1.101   .     S
C145   C7      1.492   1_655 S
C146   C148    1.391   .     A
C146   H170    1.080   .     S
C147   C149    1.391   .     A
C147   H171    1.080   .     S
C148   H153    1.084   .     S
C148   C696    1.393   1_554 S
C149   H164    1.084   .     S
C149   C697    1.393   .     S
C150   C275    1.337   .     S
C150   H358    1.088   .     S
C151   C398    1.337   1_645 S
C151   H545    1.088   1_545 S
C152   O183    1.311   .     A
H154   N176    1.028   .     S
H168   C5      1.085   1_655 S
H172   C522    1.088   1_545 S
H173   C337    1.088   .     S
H174   N175    1.028   .     S
N175   Zn186   2.045   .     S
N175   N176    1.291   .     D
N176   Zn185   2.045   .     S
O177   Zn185   1.956   .     S
O177   C1      1.288   1_655 S
O178   Zn186   1.956   .     S
O179   Zn186   1.976   .     S
O180   Zn185   1.976   .     S
O181   Zn185   1.959   .     S
O181   C28     1.310   1_655 S
O182   Zn186   1.959   .     S
O183   Zn186   1.929   .     S
O184   Zn185   1.929   .     S
C187   O241    1.298   .     A
C187   C212    1.403   .     S
C187   O363    1.288   1_455 S
C188   C190    1.480   .     S
C188   O246    1.311   .     A
C188   O306    1.310   .     S
C189   C195    1.396   .     A
C189   C214    1.480   .     S
C189   C193    1.417   .     A
C190   C196    1.396   .     A
C190   C194    1.417   .     A
C191   C200    1.399   .     A
C191   C193    1.406   .     A
C191   H354    1.085   1_455 S
C192   C194    1.406   .     A
C192   C201    1.399   .     A
C192   H293    1.085   .     S
C193   C331    1.492   1_455 S
C194   C268    1.492   .     S
C195   C197    1.393   .     A
C195   C205    1.513   .     S
C196   C204    1.513   .     S
C196   C199    1.393   .     A
C197   C202    1.410   .     A
C197   C200    1.409   .     A
C198   O242    1.298   .     A
C198   C213    1.403   .     S
C198   O302    1.288   .     S
C199   C203    1.410   .     A
C199   C201    1.409   .     A
C200   C768    1.393   .     S
C201   C769    1.393   1_554 S
C202   C209    1.413   .     A
C202   C761    1.408   .     S
C203   C208    1.413   .     A
C203   C760    1.408   1_554 S
C204   H219    1.112   .     S
C204   H218    1.106   .     S
C204   H217    1.104   .     S
C205   H221    1.104   .     S
C205   H222    1.112   .     S
C205   H220    1.106   .     S
C206   H224    1.110   .     S
C206   H223    1.111   .     S
C206   H225    1.101   .     S
C206   C318    1.492   1_455 S
C207   H229    1.110   .     S
C207   H227    1.111   .     S
C207   H228    1.101   .     S
C207   C255    1.492   .     S
C208   C210    1.391   .     A
C208   H232    1.080   .     S
C209   C211    1.391   .     A
C209   H233    1.080   .     S
C210   H215    1.084   .     S
C210   C758    1.393   1_554 S
C211   H226    1.084   .     S
C211   C759    1.393   .     S
C212   C523    1.337   1_455 S
C212   H420    1.088   .     S
C214   O245    1.311   .     A
C214   O367    1.310   1_455 S
H216   N238    1.028   .     S
H230   C253    1.085   .     S
H231   C316    1.085   1_455 S
H235   C399    1.088   .     S
H236   N237    1.028   .     S
N237   Zn248   2.045   .     S
N237   N238    1.291   .     D
N238   Zn247   2.045   .     S
O239   Zn247   1.956   .     S
O239   C249    1.288   .     S
O240   Zn248   1.956   .     S
O240   C322    1.288   1_455 S
O241   Zn248   1.976   .     S
O242   Zn247   1.976   .     S
O243   Zn247   1.959   .     S
O243   C276    1.310   .     S
O244   Zn248   1.959   .     S
O244   C312    1.310   1_455 S
O245   Zn248   1.929   .     S
O246   Zn247   1.929   .     S
C249   O303    1.298   .     A
C249   C274    1.403   .     S
C250   C252    1.480   .     S
C250   O308    1.311   .     A
C250   O368    1.310   .     S
C251   C257    1.396   .     A
C251   C276    1.480   .     S
C251   C255    1.417   .     A
C252   C258    1.396   .     A
C252   C256    1.417   .     A
C253   C262    1.399   .     A
C253   C255    1.406   .     A
C254   C256    1.406   .     A
C254   C263    1.399   .     A
C254   H355    1.085   .     S
C256   C330    1.492   .     S
C257   C259    1.393   .     A
C257   C267    1.513   .     S
C258   C266    1.513   .     S
C258   C261    1.393   .     A
C259   C264    1.410   .     A
C259   C262    1.409   .     A
C260   O304    1.298   .     A
C260   C275    1.403   .     S
C260   O364    1.288   .     S
C261   C265    1.410   .     A
C261   C263    1.409   .     A
C262   C830    1.393   .     S
C263   C831    1.393   1_554 S
C264   C271    1.413   .     A
C264   C823    1.408   .     S
C265   C270    1.413   .     A
C265   C822    1.408   1_554 S
C266   H281    1.112   .     S
C266   H280    1.106   .     S
C266   H279    1.104   .     S
C267   H283    1.104   .     S
C267   H284    1.112   .     S
C267   H282    1.106   .     S
C268   H286    1.110   .     S
C268   H285    1.111   .     S
C268   H287    1.101   .     S
C269   H291    1.110   .     S
C269   H289    1.111   .     S
C269   H290    1.101   .     S
C269   C317    1.492   .     S
C270   C272    1.391   .     A
C270   H294    1.080   .     S
C271   C273    1.391   .     A
C271   H295    1.080   .     S
C272   H277    1.084   .     S
C272   C820    1.393   1_554 S
C273   H288    1.084   .     S
C273   C821    1.393   .     S
C274   C399    1.337   .     S
C274   H482    1.088   .     S
C276   O307    1.311   .     A
H278   N300    1.028   .     S
H292   C315    1.085   .     S
H297   C461    1.088   .     S
H298   N299    1.028   .     S
N299   Zn310   2.045   .     S
N299   N300    1.291   .     D
N300   Zn309   2.045   .     S
O301   Zn309   1.956   .     S
O301   C311    1.288   .     S
O302   Zn310   1.956   .     S
O303   Zn310   1.976   .     S
O304   Zn309   1.976   .     S
O305   Zn309   1.959   .     S
O305   C338    1.310   .     S
O306   Zn310   1.959   .     S
O307   Zn310   1.929   .     S
O308   Zn309   1.929   .     S
C311   O365    1.298   .     A
C311   C336    1.403   .     S
C312   C314    1.480   .     S
C312   O370    1.311   .     A
C312   O244    1.310   1_655 S
C313   C319    1.396   .     A
C313   C338    1.480   .     S
C313   C317    1.417   .     A
C314   C320    1.396   .     A
C314   C318    1.417   .     A
C315   C324    1.399   .     A
C315   C317    1.406   .     A
C316   C318    1.406   .     A
C316   C325    1.399   .     A
C316   H231    1.085   1_655 S
C318   C206    1.492   1_655 S
C319   C321    1.393   .     A
C319   C329    1.513   .     S
C320   C328    1.513   .     S
C320   C323    1.393   .     A
C321   C326    1.410   .     A
C321   C324    1.409   .     A
C322   O366    1.298   .     A
C322   C337    1.403   .     S
C322   O240    1.288   1_655 S
C323   C327    1.410   .     A
C323   C325    1.409   .     A
C324   C892    1.393   .     S
C325   C893    1.393   1_554 S
C326   C333    1.413   .     A
C326   C885    1.408   .     S
C327   C332    1.413   .     A
C327   C884    1.408   1_554 S
C328   H343    1.112   .     S
C328   H342    1.106   .     S
C328   H341    1.104   .     S
C329   H345    1.104   .     S
C329   H346    1.112   .     S
C329   H344    1.106   .     S
C330   H348    1.110   .     S
C330   H347    1.111   .     S
C330   H349    1.101   .     S
C331   H353    1.110   .     S
C331   H351    1.111   .     S
C331   H352    1.101   .     S
C331   C193    1.492   1_655 S
C332   C334    1.391   .     A
C332   H356    1.080   .     S
C333   C335    1.391   .     A
C333   H357    1.080   .     S
C334   H339    1.084   .     S
C334   C882    1.393   1_554 S
C335   H350    1.084   .     S
C335   C883    1.393   .     S
C336   C461    1.337   .     S
C336   H544    1.088   .     S
C337   C26     1.337   1_655 S
C338   O369    1.311   .     A
H340   N362    1.028   .     S
H354   C191    1.085   1_655 S
H359   C523    1.088   .     S
H360   N361    1.028   .     S
N361   Zn372   2.045   .     S
N361   N362    1.291   .     D
N362   Zn371   2.045   .     S
O363   Zn371   1.956   .     S
O363   C187    1.288   1_655 S
O364   Zn372   1.956   .     S
O365   Zn372   1.976   .     S
O366   Zn371   1.976   .     S
O367   Zn371   1.959   .     S
O367   C214    1.310   1_655 S
O368   Zn372   1.959   .     S
O369   Zn372   1.929   .     S
O370   Zn371   1.929   .     S
C373   O427    1.298   .     A
C373   C398    1.403   .     S
C373   O549    1.288   1_455 S
C374   C376    1.480   .     S
C374   O432    1.311   .     A
C374   O492    1.310   .     S
C375   C381    1.396   .     A
C375   C400    1.480   .     S
C375   C379    1.417   .     A
C376   C382    1.396   .     A
C376   C380    1.417   .     A
C377   C386    1.399   .     A
C377   C379    1.406   .     A
C377   H540    1.085   1_455 S
C378   C380    1.406   .     A
C378   C387    1.399   .     A
C378   H479    1.085   .     S
C379   C517    1.492   1_455 S
C380   C454    1.492   .     S
C381   C383    1.393   .     A
C381   C391    1.513   .     S
C382   C390    1.513   .     S
C382   C385    1.393   .     A
C383   C388    1.410   .     A
C383   C386    1.409   .     A
C384   O428    1.298   .     A
C384   C399    1.403   .     S
C384   O488    1.288   .     S
C385   C389    1.410   .     A
C385   C387    1.409   .     A
C386   C954    1.393   .     S
C387   C955    1.393   1_554 S
C388   C395    1.413   .     A
C388   C947    1.408   .     S
C389   C394    1.413   .     A
C389   C946    1.408   1_554 S
C390   H405    1.112   .     S
C390   H404    1.106   .     S
C390   H403    1.104   .     S
C391   H407    1.104   .     S
C391   H408    1.112   .     S
C391   H406    1.106   .     S
C392   H410    1.110   .     S
C392   H409    1.111   .     S
C392   H411    1.101   .     S
C392   C504    1.492   1_455 S
C393   H415    1.110   .     S
C393   H413    1.111   .     S
C393   H414    1.101   .     S
C393   C441    1.492   .     S
C394   C396    1.391   .     A
C394   H418    1.080   .     S
C395   C397    1.391   .     A
C395   H419    1.080   .     S
C396   H401    1.084   .     S
C396   C944    1.393   1_554 S
C397   H412    1.084   .     S
C397   C945    1.393   .     S
C398   C151    1.337   1_465 S
C398   H48     1.088   1_565 S
C400   O431    1.311   .     A
C400   O553    1.310   1_455 S
H402   N424    1.028   .     S
H416   C439    1.085   .     S
H417   C502    1.085   1_455 S
H421   C27     1.088   1_565 S
H422   N423    1.028   .     S
N423   Zn434   2.045   .     S
N423   N424    1.291   .     D
N424   Zn433   2.045   .     S
O425   Zn433   1.956   .     S
O425   C435    1.288   .     S
O426   Zn434   1.956   .     S
O426   C508    1.288   1_455 S
O427   Zn434   1.976   .     S
O428   Zn433   1.976   .     S
O429   Zn433   1.959   .     S
O429   C462    1.310   .     S
O430   Zn434   1.959   .     S
O430   C498    1.310   1_455 S
O431   Zn434   1.929   .     S
O432   Zn433   1.929   .     S
C435   O489    1.298   .     A
C435   C460    1.403   .     S
C436   C438    1.480   .     S
C436   O494    1.311   .     A
C436   O554    1.310   .     S
C437   C443    1.396   .     A
C437   C462    1.480   .     S
C437   C441    1.417   .     A
C438   C444    1.396   .     A
C438   C442    1.417   .     A
C439   C448    1.399   .     A
C439   C441    1.406   .     A
C440   C442    1.406   .     A
C440   C449    1.399   .     A
C440   H541    1.085   .     S
C442   C516    1.492   .     S
C443   C445    1.393   .     A
C443   C453    1.513   .     S
C444   C452    1.513   .     S
C444   C447    1.393   .     A
C445   C450    1.410   .     A
C445   C448    1.409   .     A
C446   O490    1.298   .     A
C446   C461    1.403   .     S
C446   O550    1.288   .     S
C447   C451    1.410   .     A
C447   C449    1.409   .     A
C448   C1016   1.393   .     S
C449   C1017   1.393   1_554 S
C450   C457    1.413   .     A
C450   C1009   1.408   .     S
C451   C456    1.413   .     A
C451   C1008   1.408   1_554 S
C452   H467    1.112   .     S
C452   H466    1.106   .     S
C452   H465    1.104   .     S
C453   H469    1.104   .     S
C453   H470    1.112   .     S
C453   H468    1.106   .     S
C454   H472    1.110   .     S
C454   H471    1.111   .     S
C454   H473    1.101   .     S
C455   H477    1.110   .     S
C455   H475    1.111   .     S
C455   H476    1.101   .     S
C455   C503    1.492   .     S
C456   C458    1.391   .     A
C456   H480    1.080   .     S
C457   C459    1.391   .     A
C457   H481    1.080   .     S
C458   H463    1.084   .     S
C458   C1006   1.393   1_554 S
C459   H474    1.084   .     S
C459   C1007   1.393   .     S
C460   C27     1.337   1_565 S
C460   H110    1.088   1_565 S
C462   O493    1.311   .     A
H464   N486    1.028   .     S
H478   C501    1.085   .     S
H483   C89     1.088   1_565 S
H484   N485    1.028   .     S
N485   Zn496   2.045   .     S
N485   N486    1.291   .     D
N486   Zn495   2.045   .     S
O487   Zn495   1.956   .     S
O487   C497    1.288   .     S
O488   Zn496   1.956   .     S
O489   Zn496   1.976   .     S
O490   Zn495   1.976   .     S
O491   Zn495   1.959   .     S
O491   C524    1.310   .     S
O492   Zn496   1.959   .     S
O493   Zn496   1.929   .     S
O494   Zn495   1.929   .     S
C497   O551    1.298   .     A
C497   C522    1.403   .     S
C498   C500    1.480   .     S
C498   O556    1.311   .     A
C498   O430    1.310   1_655 S
C499   C505    1.396   .     A
C499   C524    1.480   .     S
C499   C503    1.417   .     A
C500   C506    1.396   .     A
C500   C504    1.417   .     A
C501   C510    1.399   .     A
C501   C503    1.406   .     A
C502   C504    1.406   .     A
C502   C511    1.399   .     A
C502   H417    1.085   1_655 S
C504   C392    1.492   1_655 S
C505   C507    1.393   .     A
C505   C515    1.513   .     S
C506   C514    1.513   .     S
C506   C509    1.393   .     A
C507   C512    1.410   .     A
C507   C510    1.409   .     A
C508   O552    1.298   .     A
C508   C523    1.403   .     S
C508   O426    1.288   1_655 S
C509   C513    1.410   .     A
C509   C511    1.409   .     A
C510   C1078   1.393   .     S
C511   C1079   1.393   1_554 S
C512   C519    1.413   .     A
C512   C1071   1.408   .     S
C513   C518    1.413   .     A
C513   C1070   1.408   1_554 S
C514   H529    1.112   .     S
C514   H528    1.106   .     S
C514   H527    1.104   .     S
C515   H531    1.104   .     S
C515   H532    1.112   .     S
C515   H530    1.106   .     S
C516   H534    1.110   .     S
C516   H533    1.111   .     S
C516   H535    1.101   .     S
C517   H539    1.110   .     S
C517   H537    1.111   .     S
C517   H538    1.101   .     S
C517   C379    1.492   1_655 S
C518   C520    1.391   .     A
C518   H542    1.080   .     S
C519   C521    1.391   .     A
C519   H543    1.080   .     S
C520   H525    1.084   .     S
C520   C1068   1.393   1_554 S
C521   H536    1.084   .     S
C521   C1069   1.393   .     S
C522   C89     1.337   1_565 S
C522   H172    1.088   1_565 S
C523   C212    1.337   1_655 S
C524   O555    1.311   .     A
H526   N548    1.028   .     S
H540   C377    1.085   1_655 S
H545   C151    1.088   1_565 S
H546   N547    1.028   .     S
N547   Zn558   2.045   .     S
N547   N548    1.291   .     D
N548   Zn557   2.045   .     S
O549   Zn557   1.956   .     S
O549   C373    1.288   1_655 S
O550   Zn558   1.956   .     S
O551   Zn558   1.976   .     S
O552   Zn557   1.976   .     S
O553   Zn557   1.959   .     S
O553   C400    1.310   1_655 S
O554   Zn558   1.959   .     S
O555   Zn558   1.929   .     S
O556   Zn557   1.929   .     S
C559   O613    1.298   .     A
C559   C584    1.403   .     S
C559   O735    1.288   1_455 S
C560   C562    1.480   .     S
C560   O618    1.311   .     A
C560   O678    1.310   .     S
C561   C567    1.396   .     A
C561   C586    1.480   .     S
C561   C565    1.417   .     A
C562   C568    1.396   .     A
C562   C566    1.417   .     A
C563   C572    1.399   .     A
C563   C565    1.406   .     A
C563   H726    1.085   1_455 S
C564   C566    1.406   .     A
C564   C573    1.399   .     A
C564   H665    1.085   .     S
C565   C703    1.492   1_455 S
C566   C640    1.492   .     S
C567   C569    1.393   .     A
C567   C577    1.513   .     S
C568   C576    1.513   .     S
C568   C571    1.393   .     A
C569   C574    1.410   .     A
C569   C572    1.409   .     A
C570   O614    1.298   .     A
C570   C585    1.403   .     S
C570   O674    1.288   .     S
C571   C575    1.410   .     A
C571   C573    1.409   .     A
C572   C24     1.393   1_556 S
C574   C581    1.413   .     A
C574   C17     1.408   1_556 S
C575   C580    1.413   .     A
C576   H591    1.112   .     S
C576   H590    1.106   .     S
C576   H589    1.104   .     S
C577   H593    1.104   .     S
C577   H594    1.112   .     S
C577   H592    1.106   .     S
C578   H596    1.110   .     S
C578   H595    1.111   .     S
C578   H597    1.101   .     S
C578   C690    1.492   1_455 S
C579   H601    1.110   .     S
C579   H599    1.111   .     S
C579   H600    1.101   .     S
C579   C627    1.492   .     S
C580   C582    1.391   .     A
C580   H604    1.080   .     S
C581   C583    1.391   .     A
C581   H605    1.080   .     S
C582   H587    1.084   .     S
C583   H598    1.084   .     S
C583   C15     1.393   1_556 S
C584   C895    1.337   1_455 S
C584   H792    1.088   .     S
C585   C1018   1.337   1_545 S
C585   H979    1.088   1_545 S
C586   O617    1.311   .     A
C586   O739    1.310   1_455 S
H588   N610    1.028   .     S
H602   C625    1.085   .     S
H603   C688    1.085   1_455 S
H606   C956    1.088   1_545 S
H607   C771    1.088   .     S
H608   N609    1.028   .     S
N609   Zn620   2.045   .     S
N609   N610    1.291   .     D
N610   Zn619   2.045   .     S
O611   Zn619   1.956   .     S
O611   C621    1.288   .     S
O612   Zn620   1.956   .     S
O612   C694    1.288   1_455 S
O613   Zn620   1.976   .     S
O614   Zn619   1.976   .     S
O615   Zn619   1.959   .     S
O615   C648    1.310   .     S
O616   Zn620   1.959   .     S
O616   C684    1.310   1_455 S
O617   Zn620   1.929   .     S
O618   Zn619   1.929   .     S
C621   O675    1.298   .     A
C621   C646    1.403   .     S
C622   C624    1.480   .     S
C622   O680    1.311   .     A
C622   O740    1.310   .     S
C623   C629    1.396   .     A
C623   C648    1.480   .     S
C623   C627    1.417   .     A
C624   C630    1.396   .     A
C624   C628    1.417   .     A
C625   C634    1.399   .     A
C625   C627    1.406   .     A
C626   C628    1.406   .     A
C626   C635    1.399   .     A
C626   H727    1.085   .     S
C628   C702    1.492   .     S
C629   C631    1.393   .     A
C629   C639    1.513   .     S
C630   C638    1.513   .     S
C630   C633    1.393   .     A
C631   C636    1.410   .     A
C631   C634    1.409   .     A
C632   O676    1.298   .     A
C632   C647    1.403   .     S
C632   O736    1.288   .     S
C633   C637    1.410   .     A
C633   C635    1.409   .     A
C634   C86     1.393   1_556 S
C636   C643    1.413   .     A
C636   C79     1.408   1_556 S
C637   C642    1.413   .     A
C638   H653    1.112   .     S
C638   H652    1.106   .     S
C638   H651    1.104   .     S
C639   H655    1.104   .     S
C639   H656    1.112   .     S
C639   H654    1.106   .     S
C640   H658    1.110   .     S
C640   H657    1.111   .     S
C640   H659    1.101   .     S
C641   H663    1.110   .     S
C641   H661    1.111   .     S
C641   H662    1.101   .     S
C641   C689    1.492   .     S
C642   C644    1.391   .     A
C642   H666    1.080   .     S
C643   C645    1.391   .     A
C643   H667    1.080   .     S
C644   H649    1.084   .     S
C645   H660    1.084   .     S
C645   C77     1.393   1_556 S
C646   C771    1.337   .     S
C646   H854    1.088   .     S
C647   C1080   1.337   1_545 S
C647   H1041   1.088   1_545 S
C648   O679    1.311   .     A
H650   N672    1.028   .     S
H664   C687    1.085   .     S
H668   C1018   1.088   1_545 S
H669   C833    1.088   .     S
H670   N671    1.028   .     S
N671   Zn682   2.045   .     S
N671   N672    1.291   .     D
N672   Zn681   2.045   .     S
O673   Zn681   1.956   .     S
O673   C683    1.288   .     S
O674   Zn682   1.956   .     S
O675   Zn682   1.976   .     S
O676   Zn681   1.976   .     S
O677   Zn681   1.959   .     S
O677   C710    1.310   .     S
O678   Zn682   1.959   .     S
O679   Zn682   1.929   .     S
O680   Zn681   1.929   .     S
C683   O737    1.298   .     A
C683   C708    1.403   .     S
C684   C686    1.480   .     S
C684   O742    1.311   .     A
C684   O616    1.310   1_655 S
C685   C691    1.396   .     A
C685   C710    1.480   .     S
C685   C689    1.417   .     A
C686   C692    1.396   .     A
C686   C690    1.417   .     A
C687   C696    1.399   .     A
C687   C689    1.406   .     A
C688   C690    1.406   .     A
C688   C697    1.399   .     A
C688   H603    1.085   1_655 S
C690   C578    1.492   1_655 S
C691   C693    1.393   .     A
C691   C701    1.513   .     S
C692   C700    1.513   .     S
C692   C695    1.393   .     A
C693   C698    1.410   .     A
C693   C696    1.409   .     A
C694   O738    1.298   .     A
C694   C709    1.403   .     S
C694   O612    1.288   1_655 S
C695   C699    1.410   .     A
C695   C697    1.409   .     A
C696   C148    1.393   1_556 S
C698   C705    1.413   .     A
C698   C141    1.408   1_556 S
C699   C704    1.413   .     A
C700   H715    1.112   .     S
C700   H714    1.106   .     S
C700   H713    1.104   .     S
C701   H717    1.104   .     S
C701   H718    1.112   .     S
C701   H716    1.106   .     S
C702   H720    1.110   .     S
C702   H719    1.111   .     S
C702   H721    1.101   .     S
C703   H725    1.110   .     S
C703   H723    1.111   .     S
C703   H724    1.101   .     S
C703   C565    1.492   1_655 S
C704   C706    1.391   .     A
C704   H728    1.080   .     S
C705   C707    1.391   .     A
C705   H729    1.080   .     S
C706   H711    1.084   .     S
C707   H722    1.084   .     S
C707   C139    1.393   1_556 S
C708   C833    1.337   .     S
C708   H916    1.088   .     S
C709   C956    1.337   1_645 S
C709   H1103   1.088   1_545 S
C710   O741    1.311   .     A
H712   N734    1.028   .     S
H726   C563    1.085   1_655 S
H730   C1080   1.088   1_545 S
H731   C895    1.088   .     S
H732   N733    1.028   .     S
N733   Zn744   2.045   .     S
N733   N734    1.291   .     D
N734   Zn743   2.045   .     S
O735   Zn743   1.956   .     S
O735   C559    1.288   1_655 S
O736   Zn744   1.956   .     S
O737   Zn744   1.976   .     S
O738   Zn743   1.976   .     S
O739   Zn743   1.959   .     S
O739   C586    1.310   1_655 S
O740   Zn744   1.959   .     S
O741   Zn744   1.929   .     S
O742   Zn743   1.929   .     S
C745   O799    1.298   .     A
C745   C770    1.403   .     S
C745   O921    1.288   1_455 S
C746   C748    1.480   .     S
C746   O804    1.311   .     A
C746   O864    1.310   .     S
C747   C753    1.396   .     A
C747   C772    1.480   .     S
C747   C751    1.417   .     A
C748   C754    1.396   .     A
C748   C752    1.417   .     A
C749   C758    1.399   .     A
C749   C751    1.406   .     A
C749   H912    1.085   1_455 S
C750   C752    1.406   .     A
C750   C759    1.399   .     A
C750   H851    1.085   .     S
C751   C889    1.492   1_455 S
C752   C826    1.492   .     S
C753   C755    1.393   .     A
C753   C763    1.513   .     S
C754   C762    1.513   .     S
C754   C757    1.393   .     A
C755   C760    1.410   .     A
C755   C758    1.409   .     A
C756   O800    1.298   .     A
C756   C771    1.403   .     S
C756   O860    1.288   .     S
C757   C761    1.410   .     A
C757   C759    1.409   .     A
C758   C210    1.393   1_556 S
C760   C767    1.413   .     A
C760   C203    1.408   1_556 S
C761   C766    1.413   .     A
C762   H777    1.112   .     S
C762   H776    1.106   .     S
C762   H775    1.104   .     S
C763   H779    1.104   .     S
C763   H780    1.112   .     S
C763   H778    1.106   .     S
C764   H782    1.110   .     S
C764   H781    1.111   .     S
C764   H783    1.101   .     S
C764   C876    1.492   1_455 S
C765   H787    1.110   .     S
C765   H785    1.111   .     S
C765   H786    1.101   .     S
C765   C813    1.492   .     S
C766   C768    1.391   .     A
C766   H790    1.080   .     S
C767   C769    1.391   .     A
C767   H791    1.080   .     S
C768   H773    1.084   .     S
C769   H784    1.084   .     S
C769   C201    1.393   1_556 S
C770   C1081   1.337   1_455 S
C770   H978    1.088   .     S
C772   O803    1.311   .     A
C772   O925    1.310   1_455 S
H774   N796    1.028   .     S
H788   C811    1.085   .     S
H789   C874    1.085   1_455 S
H793   C957    1.088   .     S
H794   N795    1.028   .     S
N795   Zn806   2.045   .     S
N795   N796    1.291   .     D
N796   Zn805   2.045   .     S
O797   Zn805   1.956   .     S
O797   C807    1.288   .     S
O798   Zn806   1.956   .     S
O798   C880    1.288   1_455 S
O799   Zn806   1.976   .     S
O800   Zn805   1.976   .     S
O801   Zn805   1.959   .     S
O801   C834    1.310   .     S
O802   Zn806   1.959   .     S
O802   C870    1.310   1_455 S
O803   Zn806   1.929   .     S
O804   Zn805   1.929   .     S
C807   O861    1.298   .     A
C807   C832    1.403   .     S
C808   C810    1.480   .     S
C808   O866    1.311   .     A
C808   O926    1.310   .     S
C809   C815    1.396   .     A
C809   C834    1.480   .     S
C809   C813    1.417   .     A
C810   C816    1.396   .     A
C810   C814    1.417   .     A
C811   C820    1.399   .     A
C811   C813    1.406   .     A
C812   C814    1.406   .     A
C812   C821    1.399   .     A
C812   H913    1.085   .     S
C814   C888    1.492   .     S
C815   C817    1.393   .     A
C815   C825    1.513   .     S
C816   C824    1.513   .     S
C816   C819    1.393   .     A
C817   C822    1.410   .     A
C817   C820    1.409   .     A
C818   O862    1.298   .     A
C818   C833    1.403   .     S
C818   O922    1.288   .     S
C819   C823    1.410   .     A
C819   C821    1.409   .     A
C820   C272    1.393   1_556 S
C822   C829    1.413   .     A
C822   C265    1.408   1_556 S
C823   C828    1.413   .     A
C824   H839    1.112   .     S
C824   H838    1.106   .     S
C824   H837    1.104   .     S
C825   H841    1.104   .     S
C825   H842    1.112   .     S
C825   H840    1.106   .     S
C826   H844    1.110   .     S
C826   H843    1.111   .     S
C826   H845    1.101   .     S
C827   H849    1.110   .     S
C827   H847    1.111   .     S
C827   H848    1.101   .     S
C827   C875    1.492   .     S
C828   C830    1.391   .     A
C828   H852    1.080   .     S
C829   C831    1.391   .     A
C829   H853    1.080   .     S
C830   H835    1.084   .     S
C831   H846    1.084   .     S
C831   C263    1.393   1_556 S
C832   C957    1.337   .     S
C832   H1040   1.088   .     S
C834   O865    1.311   .     A
H836   N858    1.028   .     S
H850   C873    1.085   .     S
H855   C1019   1.088   .     S
H856   N857    1.028   .     S
N857   Zn868   2.045   .     S
N857   N858    1.291   .     D
N858   Zn867   2.045   .     S
O859   Zn867   1.956   .     S
O859   C869    1.288   .     S
O860   Zn868   1.956   .     S
O861   Zn868   1.976   .     S
O862   Zn867   1.976   .     S
O863   Zn867   1.959   .     S
O863   C896    1.310   .     S
O864   Zn868   1.959   .     S
O865   Zn868   1.929   .     S
O866   Zn867   1.929   .     S
C869   O923    1.298   .     A
C869   C894    1.403   .     S
C870   C872    1.480   .     S
C870   O928    1.311   .     A
C870   O802    1.310   1_655 S
C871   C877    1.396   .     A
C871   C896    1.480   .     S
C871   C875    1.417   .     A
C872   C878    1.396   .     A
C872   C876    1.417   .     A
C873   C882    1.399   .     A
C873   C875    1.406   .     A
C874   C876    1.406   .     A
C874   C883    1.399   .     A
C874   H789    1.085   1_655 S
C876   C764    1.492   1_655 S
C877   C879    1.393   .     A
C877   C887    1.513   .     S
C878   C886    1.513   .     S
C878   C881    1.393   .     A
C879   C884    1.410   .     A
C879   C882    1.409   .     A
C880   O924    1.298   .     A
C880   C895    1.403   .     S
C880   O798    1.288   1_655 S
C881   C885    1.410   .     A
C881   C883    1.409   .     A
C882   C334    1.393   1_556 S
C884   C891    1.413   .     A
C884   C327    1.408   1_556 S
C885   C890    1.413   .     A
C886   H901    1.112   .     S
C886   H900    1.106   .     S
C886   H899    1.104   .     S
C887   H903    1.104   .     S
C887   H904    1.112   .     S
C887   H902    1.106   .     S
C888   H906    1.110   .     S
C888   H905    1.111   .     S
C888   H907    1.101   .     S
C889   H911    1.110   .     S
C889   H909    1.111   .     S
C889   H910    1.101   .     S
C889   C751    1.492   1_655 S
C890   C892    1.391   .     A
C890   H914    1.080   .     S
C891   C893    1.391   .     A
C891   H915    1.080   .     S
C892   H897    1.084   .     S
C893   H908    1.084   .     S
C893   C325    1.393   1_556 S
C894   C1019   1.337   .     S
C894   H1102   1.088   .     S
C895   C584    1.337   1_655 S
C896   O927    1.311   .     A
H898   N920    1.028   .     S
H912   C749    1.085   1_655 S
H917   C1081   1.088   .     S
H918   N919    1.028   .     S
N919   Zn930   2.045   .     S
N919   N920    1.291   .     D
N920   Zn929   2.045   .     S
O921   Zn929   1.956   .     S
O921   C745    1.288   1_655 S
O922   Zn930   1.956   .     S
O923   Zn930   1.976   .     S
O924   Zn929   1.976   .     S
O925   Zn929   1.959   .     S
O925   C772    1.310   1_655 S
O926   Zn930   1.959   .     S
O927   Zn930   1.929   .     S
O928   Zn929   1.929   .     S
C931   O985    1.298   .     A
C931   C956    1.403   .     S
C931   O1107   1.288   1_455 S
C932   C934    1.480   .     S
C932   O990    1.311   .     A
C932   O1050   1.310   .     S
C933   C939    1.396   .     A
C933   C958    1.480   .     S
C933   C937    1.417   .     A
C934   C940    1.396   .     A
C934   C938    1.417   .     A
C935   C944    1.399   .     A
C935   C937    1.406   .     A
C935   H1098   1.085   1_455 S
C936   C938    1.406   .     A
C936   C945    1.399   .     A
C936   H1037   1.085   .     S
C937   C1075   1.492   1_455 S
C938   C1012   1.492   .     S
C939   C941    1.393   .     A
C939   C949    1.513   .     S
C940   C948    1.513   .     S
C940   C943    1.393   .     A
C941   C946    1.410   .     A
C941   C944    1.409   .     A
C942   O986    1.298   .     A
C942   C957    1.403   .     S
C942   O1046   1.288   .     S
C943   C947    1.410   .     A
C943   C945    1.409   .     A
C944   C396    1.393   1_556 S
C946   C953    1.413   .     A
C946   C389    1.408   1_556 S
C947   C952    1.413   .     A
C948   H963    1.112   .     S
C948   H962    1.106   .     S
C948   H961    1.104   .     S
C949   H965    1.104   .     S
C949   H966    1.112   .     S
C949   H964    1.106   .     S
C950   H968    1.110   .     S
C950   H967    1.111   .     S
C950   H969    1.101   .     S
C950   C1062   1.492   1_455 S
C951   H973    1.110   .     S
C951   H971    1.111   .     S
C951   H972    1.101   .     S
C951   C999    1.492   .     S
C952   C954    1.391   .     A
C952   H976    1.080   .     S
C953   C955    1.391   .     A
C953   H977    1.080   .     S
C954   H959    1.084   .     S
C955   H970    1.084   .     S
C955   C387    1.393   1_556 S
C956   C709    1.337   1_465 S
C956   H606    1.088   1_565 S
C958   O989    1.311   .     A
C958   O1111   1.310   1_455 S
H960   N982    1.028   .     S
H974   C997    1.085   .     S
H975   C1060   1.085   1_455 S
H979   C585    1.088   1_565 S
H980   N981    1.028   .     S
N981   Zn992   2.045   .     S
N981   N982    1.291   .     D
N982   Zn991   2.045   .     S
O983   Zn991   1.956   .     S
O983   C993    1.288   .     S
O984   Zn992   1.956   .     S
O984   C1066   1.288   1_455 S
O985   Zn992   1.976   .     S
O986   Zn991   1.976   .     S
O987   Zn991   1.959   .     S
O987   C1020   1.310   .     S
O988   Zn992   1.959   .     S
O988   C1056   1.310   1_455 S
O989   Zn992   1.929   .     S
O990   Zn991   1.929   .     S
C993   O1047   1.298   .     A
C993   C1018   1.403   .     S
C994   C996    1.480   .     S
C994   O1052   1.311   .     A
C994   O1112   1.310   .     S
C995   C1001   1.396   .     A
C995   C1020   1.480   .     S
C995   C999    1.417   .     A
C996   C1002   1.396   .     A
C996   C1000   1.417   .     A
C997   C1006   1.399   .     A
C997   C999    1.406   .     A
C998   C1000   1.406   .     A
C998   C1007   1.399   .     A
C998   H1099   1.085   .     S
C1000  C1074   1.492   .     S
C1001  C1003   1.393   .     A
C1001  C1011   1.513   .     S
C1002  C1010   1.513   .     S
C1002  C1005   1.393   .     A
C1003  C1008   1.410   .     A
C1003  C1006   1.409   .     A
C1004  O1048   1.298   .     A
C1004  C1019   1.403   .     S
C1004  O1108   1.288   .     S
C1005  C1009   1.410   .     A
C1005  C1007   1.409   .     A
C1006  C458    1.393   1_556 S
C1008  C1015   1.413   .     A
C1008  C451    1.408   1_556 S
C1009  C1014   1.413   .     A
C1010  H1025   1.112   .     S
C1010  H1024   1.106   .     S
C1010  H1023   1.104   .     S
C1011  H1027   1.104   .     S
C1011  H1028   1.112   .     S
C1011  H1026   1.106   .     S
C1012  H1030   1.110   .     S
C1012  H1029   1.111   .     S
C1012  H1031   1.101   .     S
C1013  H1035   1.110   .     S
C1013  H1033   1.111   .     S
C1013  H1034   1.101   .     S
C1013  C1061   1.492   .     S
C1014  C1016   1.391   .     A
C1014  H1038   1.080   .     S
C1015  C1017   1.391   .     A
C1015  H1039   1.080   .     S
C1016  H1021   1.084   .     S
C1017  H1032   1.084   .     S
C1017  C449    1.393   1_556 S
C1018  C585    1.337   1_565 S
C1018  H668    1.088   1_565 S
C1020  O1051   1.311   .     A
H1022  N1044   1.028   .     S
H1036  C1059   1.085   .     S
H1041  C647    1.088   1_565 S
H1042  N1043   1.028   .     S
N1043  Zn1054  2.045   .     S
N1043  N1044   1.291   .     D
N1044  Zn1053  2.045   .     S
O1045  Zn1053  1.956   .     S
O1045  C1055   1.288   .     S
O1046  Zn1054  1.956   .     S
O1047  Zn1054  1.976   .     S
O1048  Zn1053  1.976   .     S
O1049  Zn1053  1.959   .     S
O1049  C1082   1.310   .     S
O1050  Zn1054  1.959   .     S
O1051  Zn1054  1.929   .     S
O1052  Zn1053  1.929   .     S
C1055  O1109   1.298   .     A
C1055  C1080   1.403   .     S
C1056  C1058   1.480   .     S
C1056  O1114   1.311   .     A
C1056  O988    1.310   1_655 S
C1057  C1063   1.396   .     A
C1057  C1082   1.480   .     S
C1057  C1061   1.417   .     A
C1058  C1064   1.396   .     A
C1058  C1062   1.417   .     A
C1059  C1068   1.399   .     A
C1059  C1061   1.406   .     A
C1060  C1062   1.406   .     A
C1060  C1069   1.399   .     A
C1060  H975    1.085   1_655 S
C1062  C950    1.492   1_655 S
C1063  C1065   1.393   .     A
C1063  C1073   1.513   .     S
C1064  C1072   1.513   .     S
C1064  C1067   1.393   .     A
C1065  C1070   1.410   .     A
C1065  C1068   1.409   .     A
C1066  O1110   1.298   .     A
C1066  C1081   1.403   .     S
C1066  O984    1.288   1_655 S
C1067  C1071   1.410   .     A
C1067  C1069   1.409   .     A
C1068  C520    1.393   1_556 S
C1070  C1077   1.413   .     A
C1070  C513    1.408   1_556 S
C1071  C1076   1.413   .     A
C1072  H1087   1.112   .     S
C1072  H1086   1.106   .     S
C1072  H1085   1.104   .     S
C1073  H1089   1.104   .     S
C1073  H1090   1.112   .     S
C1073  H1088   1.106   .     S
C1074  H1092   1.110   .     S
C1074  H1091   1.111   .     S
C1074  H1093   1.101   .     S
C1075  H1097   1.110   .     S
C1075  H1095   1.111   .     S
C1075  H1096   1.101   .     S
C1075  C937    1.492   1_655 S
C1076  C1078   1.391   .     A
C1076  H1100   1.080   .     S
C1077  C1079   1.391   .     A
C1077  H1101   1.080   .     S
C1078  H1083   1.084   .     S
C1079  H1094   1.084   .     S
C1079  C511    1.393   1_556 S
C1080  C647    1.337   1_565 S
C1080  H730    1.088   1_565 S
C1081  C770    1.337   1_655 S
C1082  O1113   1.311   .     A
H1084  N1106   1.028   .     S
H1098  C935    1.085   1_655 S
H1103  C709    1.088   1_565 S
H1104  N1105   1.028   .     S
N1105  Zn1116  2.045   .     S
N1105  N1106   1.291   .     D
N1106  Zn1115  2.045   .     S
O1107  Zn1115  1.956   .     S
O1107  C931    1.288   1_655 S
O1108  Zn1116  1.956   .     S
O1109  Zn1116  1.976   .     S
O1110  Zn1115  1.976   .     S
O1111  Zn1115  1.959   .     S
O1111  C958    1.310   1_655 S
O1112  Zn1116  1.959   .     S
O1113  Zn1116  1.929   .     S
O1114  Zn1115  1.929   .     S
