data_str_m3_o1_o10_pcu_sym.34
_audit_creation_date              2020-01-03
_audit_creation_method            'Materials Studio'
_symmetry_space_group_name_H-M    'P1'
_symmetry_Int_Tables_number       1
_symmetry_cell_setting            triclinic
loop_
_symmetry_equiv_pos_as_xyz
  x,y,z
_cell_length_a                    25.7924
_cell_length_b                    32.0366
_cell_length_c                    29.7493
_cell_angle_alpha                 90.8375
_cell_angle_beta                  98.7003
_cell_angle_gamma                 91.1902
loop_
_atom_site_label
_atom_site_type_symbol
_atom_site_fract_x
_atom_site_fract_y
_atom_site_fract_z
_atom_site_U_iso_or_equiv
_atom_site_adp_type
_atom_site_occupancy
C1     C     0.16637   0.08672   0.16640   0.00000  Uiso   1.00
C2     C     0.14779   0.02156   0.20182   0.00000  Uiso   1.00
C3     C     0.16726   0.29080   0.16713   0.00000  Uiso   1.00
C4     C     0.16608   0.04253   0.16620   0.00000  Uiso   1.00
C5     C     0.19483   0.19595   0.02862   0.00000  Uiso   1.00
C6     C     0.13850   0.13739   0.30471   0.00000  Uiso   1.00
C7     C     0.19494   0.19617   0.31444   0.00000  Uiso   1.00
C8     C     0.13840   0.13717   0.01890   0.00000  Uiso   1.00
C9     C     0.16696   0.24661   0.16693   0.00000  Uiso   1.00
C10    C     0.06711   0.16560   0.15499   0.00000  Uiso   1.00
C11    C     0.26622   0.16774   0.17834   0.00000  Uiso   1.00
C12    C     0.01268   0.15773   0.15100   0.00000  Uiso   1.00
C13    C     0.32066   0.17560   0.18233   0.00000  Uiso   1.00
C14    C     0.18490   0.02118   0.13103   0.00000  Uiso   1.00
C15    C     0.14844   0.31215   0.20230   0.00000  Uiso   1.00
C16    C     0.18554   0.31177   0.13152   0.00000  Uiso   1.00
H17    H     0.19963   0.03745   0.10370   0.00000  Uiso   1.00
H18    H     0.13371   0.29588   0.22963   0.00000  Uiso   1.00
H19    H     0.20060   0.29521   0.10438   0.00000  Uiso   1.00
H20    H     0.13273   0.03812   0.22895   0.00000  Uiso   1.00
H21    H     0.21734   0.21932   0.05038   0.00000  Uiso   1.00
H22    H     0.11599   0.11402   0.28295   0.00000  Uiso   1.00
I23    I     0.31632   0.10505   0.10873   0.00000  Uiso   1.00
I24    I     0.01701   0.22828   0.22461   0.00000  Uiso   1.00
I25    I     0.24075   0.24466   0.29232   0.00000  Uiso   1.00
I26    I     0.09258   0.08867   0.04101   0.00000  Uiso   1.00
N27    N     0.16665   0.16666   0.28573   0.00000  Uiso   1.00
N28    N     0.16668   0.16668   0.04760   0.00000  Uiso   1.00
O29    O     0.16666   0.10558   0.20487   0.00000  Uiso   1.00
O30    O     0.16667   0.22775   0.12846   0.00000  Uiso   1.00
O31    O     0.16666   0.10559   0.12843   0.00000  Uiso   1.00
O32    O     0.16667   0.22774   0.20490   0.00000  Uiso   1.00
O33    O     0.09058   0.16666   0.19595   0.00000  Uiso   1.00
O34    O     0.24275   0.16667   0.13739   0.00000  Uiso   1.00
O35    O     0.09058   0.16667   0.11950   0.00000  Uiso   1.00
O36    O     0.24275   0.16666   0.21383   0.00000  Uiso   1.00
Zn37   Zn    0.16667   0.16666   0.21771   0.00000  Uiso   1.00
Zn38   Zn    0.16667   0.16667   0.11563   0.00000  Uiso   1.00
C39    C     0.49971   0.08672   0.16640   0.00000  Uiso   1.00
C40    C     0.48113   0.02156   0.20182   0.00000  Uiso   1.00
C41    C     0.50059   0.29080   0.16713   0.00000  Uiso   1.00
C42    C     0.49941   0.04253   0.16620   0.00000  Uiso   1.00
C43    C     0.52817   0.19595   0.02862   0.00000  Uiso   1.00
C44    C     0.47183   0.13739   0.30471   0.00000  Uiso   1.00
C45    C     0.52827   0.19617   0.31444   0.00000  Uiso   1.00
C46    C     0.47173   0.13717   0.01890   0.00000  Uiso   1.00
C47    C     0.50029   0.24661   0.16693   0.00000  Uiso   1.00
C48    C     0.40044   0.16560   0.15499   0.00000  Uiso   1.00
C49    C     0.59956   0.16774   0.17834   0.00000  Uiso   1.00
C50    C     0.34601   0.15773   0.15100   0.00000  Uiso   1.00
C51    C     0.65399   0.17560   0.18233   0.00000  Uiso   1.00
C52    C     0.51823   0.02118   0.13103   0.00000  Uiso   1.00
C53    C     0.48177   0.31215   0.20230   0.00000  Uiso   1.00
C54    C     0.51887   0.31177   0.13152   0.00000  Uiso   1.00
H55    H     0.53296   0.03745   0.10370   0.00000  Uiso   1.00
H56    H     0.46704   0.29588   0.22963   0.00000  Uiso   1.00
H57    H     0.53394   0.29521   0.10438   0.00000  Uiso   1.00
H58    H     0.46606   0.03812   0.22895   0.00000  Uiso   1.00
H59    H     0.55067   0.21932   0.05038   0.00000  Uiso   1.00
H60    H     0.44933   0.11402   0.28295   0.00000  Uiso   1.00
I61    I     0.64966   0.10505   0.10873   0.00000  Uiso   1.00
I62    I     0.35034   0.22828   0.22461   0.00000  Uiso   1.00
I63    I     0.57408   0.24466   0.29232   0.00000  Uiso   1.00
I64    I     0.42592   0.08867   0.04101   0.00000  Uiso   1.00
N65    N     0.49999   0.16666   0.28573   0.00000  Uiso   1.00
N66    N     0.50001   0.16668   0.04760   0.00000  Uiso   1.00
O67    O     0.50000   0.10558   0.20487   0.00000  Uiso   1.00
O68    O     0.50000   0.22775   0.12846   0.00000  Uiso   1.00
O69    O     0.50000   0.10559   0.12843   0.00000  Uiso   1.00
O70    O     0.50000   0.22774   0.20490   0.00000  Uiso   1.00
O71    O     0.42392   0.16666   0.19595   0.00000  Uiso   1.00
O72    O     0.57608   0.16667   0.13739   0.00000  Uiso   1.00
O73    O     0.42392   0.16667   0.11950   0.00000  Uiso   1.00
O74    O     0.57608   0.16666   0.21383   0.00000  Uiso   1.00
Zn75   Zn    0.50000   0.16666   0.21771   0.00000  Uiso   1.00
Zn76   Zn    0.50000   0.16667   0.11563   0.00000  Uiso   1.00
C77    C     0.83304   0.08672   0.16640   0.00000  Uiso   1.00
C78    C     0.81446   0.02156   0.20182   0.00000  Uiso   1.00
C79    C     0.83392   0.29080   0.16713   0.00000  Uiso   1.00
C80    C     0.83274   0.04253   0.16620   0.00000  Uiso   1.00
C81    C     0.86150   0.19595   0.02862   0.00000  Uiso   1.00
C82    C     0.80517   0.13739   0.30471   0.00000  Uiso   1.00
C83    C     0.86161   0.19617   0.31444   0.00000  Uiso   1.00
C84    C     0.80506   0.13717   0.01890   0.00000  Uiso   1.00
C85    C     0.83363   0.24661   0.16693   0.00000  Uiso   1.00
C86    C     0.73378   0.16560   0.15499   0.00000  Uiso   1.00
C87    C     0.93289   0.16774   0.17834   0.00000  Uiso   1.00
C88    C     0.67934   0.15773   0.15100   0.00000  Uiso   1.00
C89    C     0.98732   0.17560   0.18233   0.00000  Uiso   1.00
C90    C     0.85156   0.02118   0.13103   0.00000  Uiso   1.00
C91    C     0.81510   0.31215   0.20230   0.00000  Uiso   1.00
C92    C     0.85221   0.31177   0.13152   0.00000  Uiso   1.00
H93    H     0.86629   0.03745   0.10370   0.00000  Uiso   1.00
H94    H     0.80037   0.29588   0.22963   0.00000  Uiso   1.00
H95    H     0.86727   0.29521   0.10438   0.00000  Uiso   1.00
H96    H     0.79940   0.03812   0.22895   0.00000  Uiso   1.00
H97    H     0.88401   0.21932   0.05038   0.00000  Uiso   1.00
H98    H     0.78266   0.11402   0.28295   0.00000  Uiso   1.00
I99    I     0.98299   0.10505   0.10873   0.00000  Uiso   1.00
I100   I     0.68368   0.22828   0.22461   0.00000  Uiso   1.00
I101   I     0.90742   0.24466   0.29232   0.00000  Uiso   1.00
I102   I     0.75925   0.08867   0.04101   0.00000  Uiso   1.00
N103   N     0.83332   0.16666   0.28573   0.00000  Uiso   1.00
N104   N     0.83335   0.16668   0.04760   0.00000  Uiso   1.00
O105   O     0.83333   0.10558   0.20487   0.00000  Uiso   1.00
O106   O     0.83334   0.22775   0.12846   0.00000  Uiso   1.00
O107   O     0.83333   0.10559   0.12843   0.00000  Uiso   1.00
O108   O     0.83334   0.22774   0.20490   0.00000  Uiso   1.00
O109   O     0.75725   0.16666   0.19595   0.00000  Uiso   1.00
O110   O     0.90942   0.16667   0.13739   0.00000  Uiso   1.00
O111   O     0.75725   0.16667   0.11950   0.00000  Uiso   1.00
O112   O     0.90942   0.16666   0.21383   0.00000  Uiso   1.00
Zn113  Zn    0.83333   0.16666   0.21771   0.00000  Uiso   1.00
Zn114  Zn    0.83333   0.16667   0.11563   0.00000  Uiso   1.00
C115   C     0.16637   0.42005   0.16640   0.00000  Uiso   1.00
C116   C     0.14779   0.35490   0.20182   0.00000  Uiso   1.00
C117   C     0.16726   0.62414   0.16713   0.00000  Uiso   1.00
C118   C     0.16608   0.37586   0.16620   0.00000  Uiso   1.00
C119   C     0.19483   0.52928   0.02862   0.00000  Uiso   1.00
C120   C     0.13850   0.47072   0.30471   0.00000  Uiso   1.00
C121   C     0.19494   0.52950   0.31444   0.00000  Uiso   1.00
C122   C     0.13840   0.47050   0.01890   0.00000  Uiso   1.00
C123   C     0.16696   0.57995   0.16693   0.00000  Uiso   1.00
C124   C     0.06711   0.49893   0.15499   0.00000  Uiso   1.00
C125   C     0.26622   0.50107   0.17834   0.00000  Uiso   1.00
C126   C     0.01268   0.49107   0.15100   0.00000  Uiso   1.00
C127   C     0.32066   0.50893   0.18233   0.00000  Uiso   1.00
C128   C     0.18490   0.35452   0.13103   0.00000  Uiso   1.00
C129   C     0.14844   0.64548   0.20230   0.00000  Uiso   1.00
C130   C     0.18554   0.64510   0.13152   0.00000  Uiso   1.00
H131   H     0.19963   0.37079   0.10370   0.00000  Uiso   1.00
H132   H     0.13371   0.62921   0.22963   0.00000  Uiso   1.00
H133   H     0.20060   0.62855   0.10438   0.00000  Uiso   1.00
H134   H     0.13273   0.37145   0.22895   0.00000  Uiso   1.00
H135   H     0.21734   0.55265   0.05038   0.00000  Uiso   1.00
H136   H     0.11599   0.44735   0.28295   0.00000  Uiso   1.00
I137   I     0.31632   0.43838   0.10873   0.00000  Uiso   1.00
I138   I     0.01701   0.56162   0.22461   0.00000  Uiso   1.00
I139   I     0.24075   0.57799   0.29232   0.00000  Uiso   1.00
I140   I     0.09258   0.42201   0.04101   0.00000  Uiso   1.00
N141   N     0.16665   0.49999   0.28573   0.00000  Uiso   1.00
N142   N     0.16668   0.50001   0.04760   0.00000  Uiso   1.00
O143   O     0.16666   0.43892   0.20487   0.00000  Uiso   1.00
O144   O     0.16667   0.56108   0.12846   0.00000  Uiso   1.00
O145   O     0.16666   0.43893   0.12843   0.00000  Uiso   1.00
O146   O     0.16667   0.56107   0.20490   0.00000  Uiso   1.00
O147   O     0.09058   0.50000   0.19595   0.00000  Uiso   1.00
O148   O     0.24275   0.50000   0.13739   0.00000  Uiso   1.00
O149   O     0.09058   0.50000   0.11950   0.00000  Uiso   1.00
O150   O     0.24275   0.50000   0.21383   0.00000  Uiso   1.00
Zn151  Zn    0.16667   0.49999   0.21771   0.00000  Uiso   1.00
Zn152  Zn    0.16667   0.50001   0.11563   0.00000  Uiso   1.00
C153   C     0.49971   0.42005   0.16640   0.00000  Uiso   1.00
C154   C     0.48113   0.35490   0.20182   0.00000  Uiso   1.00
C155   C     0.50059   0.62414   0.16713   0.00000  Uiso   1.00
C156   C     0.49941   0.37586   0.16620   0.00000  Uiso   1.00
C157   C     0.52817   0.52928   0.02862   0.00000  Uiso   1.00
C158   C     0.47183   0.47072   0.30471   0.00000  Uiso   1.00
C159   C     0.52827   0.52950   0.31444   0.00000  Uiso   1.00
C160   C     0.47173   0.47050   0.01890   0.00000  Uiso   1.00
C161   C     0.50029   0.57995   0.16693   0.00000  Uiso   1.00
C162   C     0.40044   0.49893   0.15499   0.00000  Uiso   1.00
C163   C     0.59956   0.50107   0.17834   0.00000  Uiso   1.00
C164   C     0.34601   0.49107   0.15100   0.00000  Uiso   1.00
C165   C     0.65399   0.50893   0.18233   0.00000  Uiso   1.00
C166   C     0.51823   0.35452   0.13103   0.00000  Uiso   1.00
C167   C     0.48177   0.64548   0.20230   0.00000  Uiso   1.00
C168   C     0.51887   0.64510   0.13152   0.00000  Uiso   1.00
H169   H     0.53296   0.37079   0.10370   0.00000  Uiso   1.00
H170   H     0.46704   0.62921   0.22963   0.00000  Uiso   1.00
H171   H     0.53394   0.62855   0.10438   0.00000  Uiso   1.00
H172   H     0.46606   0.37145   0.22895   0.00000  Uiso   1.00
H173   H     0.55067   0.55265   0.05038   0.00000  Uiso   1.00
H174   H     0.44933   0.44735   0.28295   0.00000  Uiso   1.00
I175   I     0.64966   0.43838   0.10873   0.00000  Uiso   1.00
I176   I     0.35034   0.56162   0.22461   0.00000  Uiso   1.00
I177   I     0.57408   0.57799   0.29232   0.00000  Uiso   1.00
I178   I     0.42592   0.42201   0.04101   0.00000  Uiso   1.00
N179   N     0.49999   0.49999   0.28573   0.00000  Uiso   1.00
N180   N     0.50001   0.50001   0.04760   0.00000  Uiso   1.00
O181   O     0.50000   0.43892   0.20487   0.00000  Uiso   1.00
O182   O     0.50000   0.56108   0.12846   0.00000  Uiso   1.00
O183   O     0.50000   0.43893   0.12843   0.00000  Uiso   1.00
O184   O     0.50000   0.56107   0.20490   0.00000  Uiso   1.00
O185   O     0.42392   0.50000   0.19595   0.00000  Uiso   1.00
O186   O     0.57608   0.50000   0.13739   0.00000  Uiso   1.00
O187   O     0.42392   0.50000   0.11950   0.00000  Uiso   1.00
O188   O     0.57608   0.50000   0.21383   0.00000  Uiso   1.00
Zn189  Zn    0.50000   0.49999   0.21771   0.00000  Uiso   1.00
Zn190  Zn    0.50000   0.50001   0.11563   0.00000  Uiso   1.00
C191   C     0.83304   0.42005   0.16640   0.00000  Uiso   1.00
C192   C     0.81446   0.35490   0.20182   0.00000  Uiso   1.00
C193   C     0.83392   0.62414   0.16713   0.00000  Uiso   1.00
C194   C     0.83274   0.37586   0.16620   0.00000  Uiso   1.00
C195   C     0.86150   0.52928   0.02862   0.00000  Uiso   1.00
C196   C     0.80517   0.47072   0.30471   0.00000  Uiso   1.00
C197   C     0.86161   0.52950   0.31444   0.00000  Uiso   1.00
C198   C     0.80506   0.47050   0.01890   0.00000  Uiso   1.00
C199   C     0.83363   0.57995   0.16693   0.00000  Uiso   1.00
C200   C     0.73378   0.49893   0.15499   0.00000  Uiso   1.00
C201   C     0.93289   0.50107   0.17834   0.00000  Uiso   1.00
C202   C     0.67934   0.49107   0.15100   0.00000  Uiso   1.00
C203   C     0.98732   0.50893   0.18233   0.00000  Uiso   1.00
C204   C     0.85156   0.35452   0.13103   0.00000  Uiso   1.00
C205   C     0.81510   0.64548   0.20230   0.00000  Uiso   1.00
C206   C     0.85221   0.64510   0.13152   0.00000  Uiso   1.00
H207   H     0.86629   0.37079   0.10370   0.00000  Uiso   1.00
H208   H     0.80037   0.62921   0.22963   0.00000  Uiso   1.00
H209   H     0.86727   0.62855   0.10438   0.00000  Uiso   1.00
H210   H     0.79940   0.37145   0.22895   0.00000  Uiso   1.00
H211   H     0.88401   0.55265   0.05038   0.00000  Uiso   1.00
H212   H     0.78266   0.44735   0.28295   0.00000  Uiso   1.00
I213   I     0.98299   0.43838   0.10873   0.00000  Uiso   1.00
I214   I     0.68368   0.56162   0.22461   0.00000  Uiso   1.00
I215   I     0.90742   0.57799   0.29232   0.00000  Uiso   1.00
I216   I     0.75925   0.42201   0.04101   0.00000  Uiso   1.00
N217   N     0.83332   0.49999   0.28573   0.00000  Uiso   1.00
N218   N     0.83335   0.50001   0.04760   0.00000  Uiso   1.00
O219   O     0.83333   0.43892   0.20487   0.00000  Uiso   1.00
O220   O     0.83334   0.56108   0.12846   0.00000  Uiso   1.00
O221   O     0.83333   0.43893   0.12843   0.00000  Uiso   1.00
O222   O     0.83334   0.56107   0.20490   0.00000  Uiso   1.00
O223   O     0.75725   0.50000   0.19595   0.00000  Uiso   1.00
O224   O     0.90942   0.50000   0.13739   0.00000  Uiso   1.00
O225   O     0.75725   0.50000   0.11950   0.00000  Uiso   1.00
O226   O     0.90942   0.50000   0.21383   0.00000  Uiso   1.00
Zn227  Zn    0.83333   0.49999   0.21771   0.00000  Uiso   1.00
Zn228  Zn    0.83333   0.50001   0.11563   0.00000  Uiso   1.00
C229   C     0.16637   0.75339   0.16640   0.00000  Uiso   1.00
C230   C     0.14779   0.68823   0.20182   0.00000  Uiso   1.00
C231   C     0.16726   0.95747   0.16713   0.00000  Uiso   1.00
C232   C     0.16608   0.70920   0.16620   0.00000  Uiso   1.00
C233   C     0.19483   0.86261   0.02862   0.00000  Uiso   1.00
C234   C     0.13850   0.80405   0.30471   0.00000  Uiso   1.00
C235   C     0.19494   0.86283   0.31444   0.00000  Uiso   1.00
C236   C     0.13840   0.80383   0.01890   0.00000  Uiso   1.00
C237   C     0.16696   0.91328   0.16693   0.00000  Uiso   1.00
C238   C     0.06711   0.83226   0.15499   0.00000  Uiso   1.00
C239   C     0.26622   0.83440   0.17834   0.00000  Uiso   1.00
C240   C     0.01268   0.82440   0.15100   0.00000  Uiso   1.00
C241   C     0.32066   0.84227   0.18233   0.00000  Uiso   1.00
C242   C     0.18490   0.68785   0.13103   0.00000  Uiso   1.00
C243   C     0.14844   0.97882   0.20230   0.00000  Uiso   1.00
C244   C     0.18554   0.97844   0.13152   0.00000  Uiso   1.00
H245   H     0.19963   0.70412   0.10370   0.00000  Uiso   1.00
H246   H     0.13371   0.96255   0.22963   0.00000  Uiso   1.00
H247   H     0.20060   0.96188   0.10438   0.00000  Uiso   1.00
H248   H     0.13273   0.70479   0.22895   0.00000  Uiso   1.00
H249   H     0.21734   0.88598   0.05038   0.00000  Uiso   1.00
H250   H     0.11599   0.78068   0.28295   0.00000  Uiso   1.00
I251   I     0.31632   0.77172   0.10873   0.00000  Uiso   1.00
I252   I     0.01701   0.89495   0.22461   0.00000  Uiso   1.00
I253   I     0.24075   0.91133   0.29232   0.00000  Uiso   1.00
I254   I     0.09258   0.75534   0.04101   0.00000  Uiso   1.00
N255   N     0.16665   0.83332   0.28573   0.00000  Uiso   1.00
N256   N     0.16668   0.83334   0.04760   0.00000  Uiso   1.00
O257   O     0.16666   0.77225   0.20487   0.00000  Uiso   1.00
O258   O     0.16667   0.89442   0.12846   0.00000  Uiso   1.00
O259   O     0.16666   0.77226   0.12843   0.00000  Uiso   1.00
O260   O     0.16667   0.89441   0.20490   0.00000  Uiso   1.00
O261   O     0.09058   0.83333   0.19595   0.00000  Uiso   1.00
O262   O     0.24275   0.83334   0.13739   0.00000  Uiso   1.00
O263   O     0.09058   0.83334   0.11950   0.00000  Uiso   1.00
O264   O     0.24275   0.83333   0.21383   0.00000  Uiso   1.00
Zn265  Zn    0.16667   0.83333   0.21771   0.00000  Uiso   1.00
Zn266  Zn    0.16667   0.83334   0.11563   0.00000  Uiso   1.00
C267   C     0.49971   0.75339   0.16640   0.00000  Uiso   1.00
C268   C     0.48113   0.68823   0.20182   0.00000  Uiso   1.00
C269   C     0.50059   0.95747   0.16713   0.00000  Uiso   1.00
C270   C     0.49941   0.70920   0.16620   0.00000  Uiso   1.00
C271   C     0.52817   0.86261   0.02862   0.00000  Uiso   1.00
C272   C     0.47183   0.80405   0.30471   0.00000  Uiso   1.00
C273   C     0.52827   0.86283   0.31444   0.00000  Uiso   1.00
C274   C     0.47173   0.80383   0.01890   0.00000  Uiso   1.00
C275   C     0.50029   0.91328   0.16693   0.00000  Uiso   1.00
C276   C     0.40044   0.83226   0.15499   0.00000  Uiso   1.00
C277   C     0.59956   0.83440   0.17834   0.00000  Uiso   1.00
C278   C     0.34601   0.82440   0.15100   0.00000  Uiso   1.00
C279   C     0.65399   0.84227   0.18233   0.00000  Uiso   1.00
C280   C     0.51823   0.68785   0.13103   0.00000  Uiso   1.00
C281   C     0.48177   0.97882   0.20230   0.00000  Uiso   1.00
C282   C     0.51887   0.97844   0.13152   0.00000  Uiso   1.00
H283   H     0.53296   0.70412   0.10370   0.00000  Uiso   1.00
H284   H     0.46704   0.96255   0.22963   0.00000  Uiso   1.00
H285   H     0.53394   0.96188   0.10438   0.00000  Uiso   1.00
H286   H     0.46606   0.70479   0.22895   0.00000  Uiso   1.00
H287   H     0.55067   0.88598   0.05038   0.00000  Uiso   1.00
H288   H     0.44933   0.78068   0.28295   0.00000  Uiso   1.00
I289   I     0.64966   0.77172   0.10873   0.00000  Uiso   1.00
I290   I     0.35034   0.89495   0.22461   0.00000  Uiso   1.00
I291   I     0.57408   0.91133   0.29232   0.00000  Uiso   1.00
I292   I     0.42592   0.75534   0.04101   0.00000  Uiso   1.00
N293   N     0.49999   0.83332   0.28573   0.00000  Uiso   1.00
N294   N     0.50001   0.83334   0.04760   0.00000  Uiso   1.00
O295   O     0.50000   0.77225   0.20487   0.00000  Uiso   1.00
O296   O     0.50000   0.89442   0.12846   0.00000  Uiso   1.00
O297   O     0.50000   0.77226   0.12843   0.00000  Uiso   1.00
O298   O     0.50000   0.89441   0.20490   0.00000  Uiso   1.00
O299   O     0.42392   0.83333   0.19595   0.00000  Uiso   1.00
O300   O     0.57608   0.83334   0.13739   0.00000  Uiso   1.00
O301   O     0.42392   0.83334   0.11950   0.00000  Uiso   1.00
O302   O     0.57608   0.83333   0.21383   0.00000  Uiso   1.00
Zn303  Zn    0.50000   0.83333   0.21771   0.00000  Uiso   1.00
Zn304  Zn    0.50000   0.83334   0.11563   0.00000  Uiso   1.00
C305   C     0.83304   0.75339   0.16640   0.00000  Uiso   1.00
C306   C     0.81446   0.68823   0.20182   0.00000  Uiso   1.00
C307   C     0.83392   0.95747   0.16713   0.00000  Uiso   1.00
C308   C     0.83274   0.70920   0.16620   0.00000  Uiso   1.00
C309   C     0.86150   0.86261   0.02862   0.00000  Uiso   1.00
C310   C     0.80517   0.80405   0.30471   0.00000  Uiso   1.00
C311   C     0.86161   0.86283   0.31444   0.00000  Uiso   1.00
C312   C     0.80506   0.80383   0.01890   0.00000  Uiso   1.00
C313   C     0.83363   0.91328   0.16693   0.00000  Uiso   1.00
C314   C     0.73378   0.83226   0.15499   0.00000  Uiso   1.00
C315   C     0.93289   0.83440   0.17834   0.00000  Uiso   1.00
C316   C     0.67934   0.82440   0.15100   0.00000  Uiso   1.00
C317   C     0.98732   0.84227   0.18233   0.00000  Uiso   1.00
C318   C     0.85156   0.68785   0.13103   0.00000  Uiso   1.00
C319   C     0.81510   0.97882   0.20230   0.00000  Uiso   1.00
C320   C     0.85221   0.97844   0.13152   0.00000  Uiso   1.00
H321   H     0.86629   0.70412   0.10370   0.00000  Uiso   1.00
H322   H     0.80037   0.96255   0.22963   0.00000  Uiso   1.00
H323   H     0.86727   0.96188   0.10438   0.00000  Uiso   1.00
H324   H     0.79940   0.70479   0.22895   0.00000  Uiso   1.00
H325   H     0.88401   0.88598   0.05038   0.00000  Uiso   1.00
H326   H     0.78266   0.78068   0.28295   0.00000  Uiso   1.00
I327   I     0.98299   0.77172   0.10873   0.00000  Uiso   1.00
I328   I     0.68368   0.89495   0.22461   0.00000  Uiso   1.00
I329   I     0.90742   0.91133   0.29232   0.00000  Uiso   1.00
I330   I     0.75925   0.75534   0.04101   0.00000  Uiso   1.00
N331   N     0.83332   0.83332   0.28573   0.00000  Uiso   1.00
N332   N     0.83335   0.83334   0.04760   0.00000  Uiso   1.00
O333   O     0.83333   0.77225   0.20487   0.00000  Uiso   1.00
O334   O     0.83334   0.89442   0.12846   0.00000  Uiso   1.00
O335   O     0.83333   0.77226   0.12843   0.00000  Uiso   1.00
O336   O     0.83334   0.89441   0.20490   0.00000  Uiso   1.00
O337   O     0.75725   0.83333   0.19595   0.00000  Uiso   1.00
O338   O     0.90942   0.83334   0.13739   0.00000  Uiso   1.00
O339   O     0.75725   0.83334   0.11950   0.00000  Uiso   1.00
O340   O     0.90942   0.83333   0.21383   0.00000  Uiso   1.00
Zn341  Zn    0.83333   0.83333   0.21771   0.00000  Uiso   1.00
Zn342  Zn    0.83333   0.83334   0.11563   0.00000  Uiso   1.00
C343   C     0.16637   0.08672   0.49973   0.00000  Uiso   1.00
C344   C     0.14779   0.02156   0.53515   0.00000  Uiso   1.00
C345   C     0.16726   0.29080   0.50046   0.00000  Uiso   1.00
C346   C     0.16608   0.04253   0.49953   0.00000  Uiso   1.00
C347   C     0.19483   0.19595   0.36195   0.00000  Uiso   1.00
C348   C     0.13850   0.13739   0.63805   0.00000  Uiso   1.00
C349   C     0.19494   0.19617   0.64777   0.00000  Uiso   1.00
C350   C     0.13840   0.13717   0.35223   0.00000  Uiso   1.00
C351   C     0.16696   0.24661   0.50027   0.00000  Uiso   1.00
C352   C     0.06711   0.16560   0.48832   0.00000  Uiso   1.00
C353   C     0.26622   0.16774   0.51168   0.00000  Uiso   1.00
C354   C     0.01268   0.15773   0.48433   0.00000  Uiso   1.00
C355   C     0.32066   0.17560   0.51567   0.00000  Uiso   1.00
C356   C     0.18490   0.02118   0.46437   0.00000  Uiso   1.00
C357   C     0.14844   0.31215   0.53563   0.00000  Uiso   1.00
C358   C     0.18554   0.31177   0.46485   0.00000  Uiso   1.00
H359   H     0.19963   0.03745   0.43704   0.00000  Uiso   1.00
H360   H     0.13371   0.29588   0.56296   0.00000  Uiso   1.00
H361   H     0.20060   0.29521   0.43772   0.00000  Uiso   1.00
H362   H     0.13273   0.03812   0.56228   0.00000  Uiso   1.00
H363   H     0.21734   0.21932   0.38372   0.00000  Uiso   1.00
H364   H     0.11599   0.11402   0.61628   0.00000  Uiso   1.00
I365   I     0.31632   0.10505   0.44206   0.00000  Uiso   1.00
I366   I     0.01701   0.22828   0.55794   0.00000  Uiso   1.00
I367   I     0.24075   0.24466   0.62565   0.00000  Uiso   1.00
I368   I     0.09258   0.08867   0.37435   0.00000  Uiso   1.00
N369   N     0.16665   0.16666   0.61907   0.00000  Uiso   1.00
N370   N     0.16668   0.16668   0.38093   0.00000  Uiso   1.00
O371   O     0.16666   0.10558   0.53821   0.00000  Uiso   1.00
O372   O     0.16667   0.22775   0.46179   0.00000  Uiso   1.00
O373   O     0.16666   0.10559   0.46176   0.00000  Uiso   1.00
O374   O     0.16667   0.22774   0.53824   0.00000  Uiso   1.00
O375   O     0.09058   0.16666   0.52928   0.00000  Uiso   1.00
O376   O     0.24275   0.16667   0.47072   0.00000  Uiso   1.00
O377   O     0.09058   0.16667   0.45284   0.00000  Uiso   1.00
O378   O     0.24275   0.16666   0.54716   0.00000  Uiso   1.00
Zn379  Zn    0.16667   0.16666   0.55104   0.00000  Uiso   1.00
Zn380  Zn    0.16667   0.16667   0.44896   0.00000  Uiso   1.00
C381   C     0.49971   0.08672   0.49973   0.00000  Uiso   1.00
C382   C     0.48113   0.02156   0.53515   0.00000  Uiso   1.00
C383   C     0.50059   0.29080   0.50046   0.00000  Uiso   1.00
C384   C     0.49941   0.04253   0.49953   0.00000  Uiso   1.00
C385   C     0.52817   0.19595   0.36195   0.00000  Uiso   1.00
C386   C     0.47183   0.13739   0.63805   0.00000  Uiso   1.00
C387   C     0.52827   0.19617   0.64777   0.00000  Uiso   1.00
C388   C     0.47173   0.13717   0.35223   0.00000  Uiso   1.00
C389   C     0.50029   0.24661   0.50027   0.00000  Uiso   1.00
C390   C     0.40044   0.16560   0.48832   0.00000  Uiso   1.00
C391   C     0.59956   0.16774   0.51168   0.00000  Uiso   1.00
C392   C     0.34601   0.15773   0.48433   0.00000  Uiso   1.00
C393   C     0.65399   0.17560   0.51567   0.00000  Uiso   1.00
C394   C     0.51823   0.02118   0.46437   0.00000  Uiso   1.00
C395   C     0.48177   0.31215   0.53563   0.00000  Uiso   1.00
C396   C     0.51887   0.31177   0.46485   0.00000  Uiso   1.00
H397   H     0.53296   0.03745   0.43704   0.00000  Uiso   1.00
H398   H     0.46704   0.29588   0.56296   0.00000  Uiso   1.00
H399   H     0.53394   0.29521   0.43772   0.00000  Uiso   1.00
H400   H     0.46606   0.03812   0.56228   0.00000  Uiso   1.00
H401   H     0.55067   0.21932   0.38372   0.00000  Uiso   1.00
H402   H     0.44933   0.11402   0.61628   0.00000  Uiso   1.00
I403   I     0.64966   0.10505   0.44206   0.00000  Uiso   1.00
I404   I     0.35034   0.22828   0.55794   0.00000  Uiso   1.00
I405   I     0.57408   0.24466   0.62565   0.00000  Uiso   1.00
I406   I     0.42592   0.08867   0.37435   0.00000  Uiso   1.00
N407   N     0.49999   0.16666   0.61907   0.00000  Uiso   1.00
N408   N     0.50001   0.16668   0.38093   0.00000  Uiso   1.00
O409   O     0.50000   0.10558   0.53821   0.00000  Uiso   1.00
O410   O     0.50000   0.22775   0.46179   0.00000  Uiso   1.00
O411   O     0.50000   0.10559   0.46176   0.00000  Uiso   1.00
O412   O     0.50000   0.22774   0.53824   0.00000  Uiso   1.00
O413   O     0.42392   0.16666   0.52928   0.00000  Uiso   1.00
O414   O     0.57608   0.16667   0.47072   0.00000  Uiso   1.00
O415   O     0.42392   0.16667   0.45284   0.00000  Uiso   1.00
O416   O     0.57608   0.16666   0.54716   0.00000  Uiso   1.00
Zn417  Zn    0.50000   0.16666   0.55104   0.00000  Uiso   1.00
Zn418  Zn    0.50000   0.16667   0.44896   0.00000  Uiso   1.00
C419   C     0.83304   0.08672   0.49973   0.00000  Uiso   1.00
C420   C     0.81446   0.02156   0.53515   0.00000  Uiso   1.00
C421   C     0.83392   0.29080   0.50046   0.00000  Uiso   1.00
C422   C     0.83274   0.04253   0.49953   0.00000  Uiso   1.00
C423   C     0.86150   0.19595   0.36195   0.00000  Uiso   1.00
C424   C     0.80517   0.13739   0.63805   0.00000  Uiso   1.00
C425   C     0.86161   0.19617   0.64777   0.00000  Uiso   1.00
C426   C     0.80506   0.13717   0.35223   0.00000  Uiso   1.00
C427   C     0.83363   0.24661   0.50027   0.00000  Uiso   1.00
C428   C     0.73378   0.16560   0.48832   0.00000  Uiso   1.00
C429   C     0.93289   0.16774   0.51168   0.00000  Uiso   1.00
C430   C     0.67934   0.15773   0.48433   0.00000  Uiso   1.00
C431   C     0.98732   0.17560   0.51567   0.00000  Uiso   1.00
C432   C     0.85156   0.02118   0.46437   0.00000  Uiso   1.00
C433   C     0.81510   0.31215   0.53563   0.00000  Uiso   1.00
C434   C     0.85221   0.31177   0.46485   0.00000  Uiso   1.00
H435   H     0.86629   0.03745   0.43704   0.00000  Uiso   1.00
H436   H     0.80037   0.29588   0.56296   0.00000  Uiso   1.00
H437   H     0.86727   0.29521   0.43772   0.00000  Uiso   1.00
H438   H     0.79940   0.03812   0.56228   0.00000  Uiso   1.00
H439   H     0.88401   0.21932   0.38372   0.00000  Uiso   1.00
H440   H     0.78266   0.11402   0.61628   0.00000  Uiso   1.00
I441   I     0.98299   0.10505   0.44206   0.00000  Uiso   1.00
I442   I     0.68368   0.22828   0.55794   0.00000  Uiso   1.00
I443   I     0.90742   0.24466   0.62565   0.00000  Uiso   1.00
I444   I     0.75925   0.08867   0.37435   0.00000  Uiso   1.00
N445   N     0.83332   0.16666   0.61907   0.00000  Uiso   1.00
N446   N     0.83335   0.16668   0.38093   0.00000  Uiso   1.00
O447   O     0.83333   0.10558   0.53821   0.00000  Uiso   1.00
O448   O     0.83334   0.22775   0.46179   0.00000  Uiso   1.00
O449   O     0.83333   0.10559   0.46176   0.00000  Uiso   1.00
O450   O     0.83334   0.22774   0.53824   0.00000  Uiso   1.00
O451   O     0.75725   0.16666   0.52928   0.00000  Uiso   1.00
O452   O     0.90942   0.16667   0.47072   0.00000  Uiso   1.00
O453   O     0.75725   0.16667   0.45284   0.00000  Uiso   1.00
O454   O     0.90942   0.16666   0.54716   0.00000  Uiso   1.00
Zn455  Zn    0.83333   0.16666   0.55104   0.00000  Uiso   1.00
Zn456  Zn    0.83333   0.16667   0.44896   0.00000  Uiso   1.00
C457   C     0.16637   0.42005   0.49973   0.00000  Uiso   1.00
C458   C     0.14779   0.35490   0.53515   0.00000  Uiso   1.00
C459   C     0.16726   0.62414   0.50046   0.00000  Uiso   1.00
C460   C     0.16608   0.37586   0.49953   0.00000  Uiso   1.00
C461   C     0.19483   0.52928   0.36195   0.00000  Uiso   1.00
C462   C     0.13850   0.47072   0.63805   0.00000  Uiso   1.00
C463   C     0.19494   0.52950   0.64777   0.00000  Uiso   1.00
C464   C     0.13840   0.47050   0.35223   0.00000  Uiso   1.00
C465   C     0.16696   0.57995   0.50027   0.00000  Uiso   1.00
C466   C     0.06711   0.49893   0.48832   0.00000  Uiso   1.00
C467   C     0.26622   0.50107   0.51168   0.00000  Uiso   1.00
C468   C     0.01268   0.49107   0.48433   0.00000  Uiso   1.00
C469   C     0.32066   0.50893   0.51567   0.00000  Uiso   1.00
C470   C     0.18490   0.35452   0.46437   0.00000  Uiso   1.00
C471   C     0.14844   0.64548   0.53563   0.00000  Uiso   1.00
C472   C     0.18554   0.64510   0.46485   0.00000  Uiso   1.00
H473   H     0.19963   0.37079   0.43704   0.00000  Uiso   1.00
H474   H     0.13371   0.62921   0.56296   0.00000  Uiso   1.00
H475   H     0.20060   0.62855   0.43772   0.00000  Uiso   1.00
H476   H     0.13273   0.37145   0.56228   0.00000  Uiso   1.00
H477   H     0.21734   0.55265   0.38372   0.00000  Uiso   1.00
H478   H     0.11599   0.44735   0.61628   0.00000  Uiso   1.00
I479   I     0.31632   0.43838   0.44206   0.00000  Uiso   1.00
I480   I     0.01701   0.56162   0.55794   0.00000  Uiso   1.00
I481   I     0.24075   0.57799   0.62565   0.00000  Uiso   1.00
I482   I     0.09258   0.42201   0.37435   0.00000  Uiso   1.00
N483   N     0.16665   0.49999   0.61907   0.00000  Uiso   1.00
N484   N     0.16668   0.50001   0.38093   0.00000  Uiso   1.00
O485   O     0.16666   0.43892   0.53821   0.00000  Uiso   1.00
O486   O     0.16667   0.56108   0.46179   0.00000  Uiso   1.00
O487   O     0.16666   0.43893   0.46176   0.00000  Uiso   1.00
O488   O     0.16667   0.56107   0.53824   0.00000  Uiso   1.00
O489   O     0.09058   0.50000   0.52928   0.00000  Uiso   1.00
O490   O     0.24275   0.50000   0.47072   0.00000  Uiso   1.00
O491   O     0.09058   0.50000   0.45284   0.00000  Uiso   1.00
O492   O     0.24275   0.50000   0.54716   0.00000  Uiso   1.00
Zn493  Zn    0.16667   0.49999   0.55104   0.00000  Uiso   1.00
Zn494  Zn    0.16667   0.50001   0.44896   0.00000  Uiso   1.00
C495   C     0.49971   0.42005   0.49973   0.00000  Uiso   1.00
C496   C     0.48113   0.35490   0.53515   0.00000  Uiso   1.00
C497   C     0.50059   0.62414   0.50046   0.00000  Uiso   1.00
C498   C     0.49941   0.37586   0.49953   0.00000  Uiso   1.00
C499   C     0.52817   0.52928   0.36195   0.00000  Uiso   1.00
C500   C     0.47183   0.47072   0.63805   0.00000  Uiso   1.00
C501   C     0.52827   0.52950   0.64777   0.00000  Uiso   1.00
C502   C     0.47173   0.47050   0.35223   0.00000  Uiso   1.00
C503   C     0.50029   0.57995   0.50027   0.00000  Uiso   1.00
C504   C     0.40044   0.49893   0.48832   0.00000  Uiso   1.00
C505   C     0.59956   0.50107   0.51168   0.00000  Uiso   1.00
C506   C     0.34601   0.49107   0.48433   0.00000  Uiso   1.00
C507   C     0.65399   0.50893   0.51567   0.00000  Uiso   1.00
C508   C     0.51823   0.35452   0.46437   0.00000  Uiso   1.00
C509   C     0.48177   0.64548   0.53563   0.00000  Uiso   1.00
C510   C     0.51887   0.64510   0.46485   0.00000  Uiso   1.00
H511   H     0.53296   0.37079   0.43704   0.00000  Uiso   1.00
H512   H     0.46704   0.62921   0.56296   0.00000  Uiso   1.00
H513   H     0.53394   0.62855   0.43772   0.00000  Uiso   1.00
H514   H     0.46606   0.37145   0.56228   0.00000  Uiso   1.00
H515   H     0.55067   0.55265   0.38372   0.00000  Uiso   1.00
H516   H     0.44933   0.44735   0.61628   0.00000  Uiso   1.00
I517   I     0.64966   0.43838   0.44206   0.00000  Uiso   1.00
I518   I     0.35034   0.56162   0.55794   0.00000  Uiso   1.00
I519   I     0.57408   0.57799   0.62565   0.00000  Uiso   1.00
I520   I     0.42592   0.42201   0.37435   0.00000  Uiso   1.00
N521   N     0.49999   0.49999   0.61907   0.00000  Uiso   1.00
N522   N     0.50001   0.50001   0.38093   0.00000  Uiso   1.00
O523   O     0.50000   0.43892   0.53821   0.00000  Uiso   1.00
O524   O     0.50000   0.56108   0.46179   0.00000  Uiso   1.00
O525   O     0.50000   0.43893   0.46176   0.00000  Uiso   1.00
O526   O     0.50000   0.56107   0.53824   0.00000  Uiso   1.00
O527   O     0.42392   0.50000   0.52928   0.00000  Uiso   1.00
O528   O     0.57608   0.50000   0.47072   0.00000  Uiso   1.00
O529   O     0.42392   0.50000   0.45284   0.00000  Uiso   1.00
O530   O     0.57608   0.50000   0.54716   0.00000  Uiso   1.00
Zn531  Zn    0.50000   0.49999   0.55104   0.00000  Uiso   1.00
Zn532  Zn    0.50000   0.50001   0.44896   0.00000  Uiso   1.00
C533   C     0.83304   0.42005   0.49973   0.00000  Uiso   1.00
C534   C     0.81446   0.35490   0.53515   0.00000  Uiso   1.00
C535   C     0.83392   0.62414   0.50046   0.00000  Uiso   1.00
C536   C     0.83274   0.37586   0.49953   0.00000  Uiso   1.00
C537   C     0.86150   0.52928   0.36195   0.00000  Uiso   1.00
C538   C     0.80517   0.47072   0.63805   0.00000  Uiso   1.00
C539   C     0.86161   0.52950   0.64777   0.00000  Uiso   1.00
C540   C     0.80506   0.47050   0.35223   0.00000  Uiso   1.00
C541   C     0.83363   0.57995   0.50027   0.00000  Uiso   1.00
C542   C     0.73378   0.49893   0.48832   0.00000  Uiso   1.00
C543   C     0.93289   0.50107   0.51168   0.00000  Uiso   1.00
C544   C     0.67934   0.49107   0.48433   0.00000  Uiso   1.00
C545   C     0.98732   0.50893   0.51567   0.00000  Uiso   1.00
C546   C     0.85156   0.35452   0.46437   0.00000  Uiso   1.00
C547   C     0.81510   0.64548   0.53563   0.00000  Uiso   1.00
C548   C     0.85221   0.64510   0.46485   0.00000  Uiso   1.00
H549   H     0.86629   0.37079   0.43704   0.00000  Uiso   1.00
H550   H     0.80037   0.62921   0.56296   0.00000  Uiso   1.00
H551   H     0.86727   0.62855   0.43772   0.00000  Uiso   1.00
H552   H     0.79940   0.37145   0.56228   0.00000  Uiso   1.00
H553   H     0.88401   0.55265   0.38372   0.00000  Uiso   1.00
H554   H     0.78266   0.44735   0.61628   0.00000  Uiso   1.00
I555   I     0.98299   0.43838   0.44206   0.00000  Uiso   1.00
I556   I     0.68368   0.56162   0.55794   0.00000  Uiso   1.00
I557   I     0.90742   0.57799   0.62565   0.00000  Uiso   1.00
I558   I     0.75925   0.42201   0.37435   0.00000  Uiso   1.00
N559   N     0.83332   0.49999   0.61907   0.00000  Uiso   1.00
N560   N     0.83335   0.50001   0.38093   0.00000  Uiso   1.00
O561   O     0.83333   0.43892   0.53821   0.00000  Uiso   1.00
O562   O     0.83334   0.56108   0.46179   0.00000  Uiso   1.00
O563   O     0.83333   0.43893   0.46176   0.00000  Uiso   1.00
O564   O     0.83334   0.56107   0.53824   0.00000  Uiso   1.00
O565   O     0.75725   0.50000   0.52928   0.00000  Uiso   1.00
O566   O     0.90942   0.50000   0.47072   0.00000  Uiso   1.00
O567   O     0.75725   0.50000   0.45284   0.00000  Uiso   1.00
O568   O     0.90942   0.50000   0.54716   0.00000  Uiso   1.00
Zn569  Zn    0.83333   0.49999   0.55104   0.00000  Uiso   1.00
Zn570  Zn    0.83333   0.50001   0.44896   0.00000  Uiso   1.00
C571   C     0.16637   0.75339   0.49973   0.00000  Uiso   1.00
C572   C     0.14779   0.68823   0.53515   0.00000  Uiso   1.00
C573   C     0.16726   0.95747   0.50046   0.00000  Uiso   1.00
C574   C     0.16608   0.70920   0.49953   0.00000  Uiso   1.00
C575   C     0.19483   0.86261   0.36195   0.00000  Uiso   1.00
C576   C     0.13850   0.80405   0.63805   0.00000  Uiso   1.00
C577   C     0.19494   0.86283   0.64777   0.00000  Uiso   1.00
C578   C     0.13840   0.80383   0.35223   0.00000  Uiso   1.00
C579   C     0.16696   0.91328   0.50027   0.00000  Uiso   1.00
C580   C     0.06711   0.83226   0.48832   0.00000  Uiso   1.00
C581   C     0.26622   0.83440   0.51168   0.00000  Uiso   1.00
C582   C     0.01268   0.82440   0.48433   0.00000  Uiso   1.00
C583   C     0.32066   0.84227   0.51567   0.00000  Uiso   1.00
C584   C     0.18490   0.68785   0.46437   0.00000  Uiso   1.00
C585   C     0.14844   0.97882   0.53563   0.00000  Uiso   1.00
C586   C     0.18554   0.97844   0.46485   0.00000  Uiso   1.00
H587   H     0.19963   0.70412   0.43704   0.00000  Uiso   1.00
H588   H     0.13371   0.96255   0.56296   0.00000  Uiso   1.00
H589   H     0.20060   0.96188   0.43772   0.00000  Uiso   1.00
H590   H     0.13273   0.70479   0.56228   0.00000  Uiso   1.00
H591   H     0.21734   0.88598   0.38372   0.00000  Uiso   1.00
H592   H     0.11599   0.78068   0.61628   0.00000  Uiso   1.00
I593   I     0.31632   0.77172   0.44206   0.00000  Uiso   1.00
I594   I     0.01701   0.89495   0.55794   0.00000  Uiso   1.00
I595   I     0.24075   0.91133   0.62565   0.00000  Uiso   1.00
I596   I     0.09258   0.75534   0.37435   0.00000  Uiso   1.00
N597   N     0.16665   0.83332   0.61907   0.00000  Uiso   1.00
N598   N     0.16668   0.83334   0.38093   0.00000  Uiso   1.00
O599   O     0.16666   0.77225   0.53821   0.00000  Uiso   1.00
O600   O     0.16667   0.89442   0.46179   0.00000  Uiso   1.00
O601   O     0.16666   0.77226   0.46176   0.00000  Uiso   1.00
O602   O     0.16667   0.89441   0.53824   0.00000  Uiso   1.00
O603   O     0.09058   0.83333   0.52928   0.00000  Uiso   1.00
O604   O     0.24275   0.83334   0.47072   0.00000  Uiso   1.00
O605   O     0.09058   0.83334   0.45284   0.00000  Uiso   1.00
O606   O     0.24275   0.83333   0.54716   0.00000  Uiso   1.00
Zn607  Zn    0.16667   0.83333   0.55104   0.00000  Uiso   1.00
Zn608  Zn    0.16667   0.83334   0.44896   0.00000  Uiso   1.00
C609   C     0.49971   0.75339   0.49973   0.00000  Uiso   1.00
C610   C     0.48113   0.68823   0.53515   0.00000  Uiso   1.00
C611   C     0.50059   0.95747   0.50046   0.00000  Uiso   1.00
C612   C     0.49941   0.70920   0.49953   0.00000  Uiso   1.00
C613   C     0.52817   0.86261   0.36195   0.00000  Uiso   1.00
C614   C     0.47183   0.80405   0.63805   0.00000  Uiso   1.00
C615   C     0.52827   0.86283   0.64777   0.00000  Uiso   1.00
C616   C     0.47173   0.80383   0.35223   0.00000  Uiso   1.00
C617   C     0.50029   0.91328   0.50027   0.00000  Uiso   1.00
C618   C     0.40044   0.83226   0.48832   0.00000  Uiso   1.00
C619   C     0.59956   0.83440   0.51168   0.00000  Uiso   1.00
C620   C     0.34601   0.82440   0.48433   0.00000  Uiso   1.00
C621   C     0.65399   0.84227   0.51567   0.00000  Uiso   1.00
C622   C     0.51823   0.68785   0.46437   0.00000  Uiso   1.00
C623   C     0.48177   0.97882   0.53563   0.00000  Uiso   1.00
C624   C     0.51887   0.97844   0.46485   0.00000  Uiso   1.00
H625   H     0.53296   0.70412   0.43704   0.00000  Uiso   1.00
H626   H     0.46704   0.96255   0.56296   0.00000  Uiso   1.00
H627   H     0.53394   0.96188   0.43772   0.00000  Uiso   1.00
H628   H     0.46606   0.70479   0.56228   0.00000  Uiso   1.00
H629   H     0.55067   0.88598   0.38372   0.00000  Uiso   1.00
H630   H     0.44933   0.78068   0.61628   0.00000  Uiso   1.00
I631   I     0.64966   0.77172   0.44206   0.00000  Uiso   1.00
I632   I     0.35034   0.89495   0.55794   0.00000  Uiso   1.00
I633   I     0.57408   0.91133   0.62565   0.00000  Uiso   1.00
I634   I     0.42592   0.75534   0.37435   0.00000  Uiso   1.00
N635   N     0.49999   0.83332   0.61907   0.00000  Uiso   1.00
N636   N     0.50001   0.83334   0.38093   0.00000  Uiso   1.00
O637   O     0.50000   0.77225   0.53821   0.00000  Uiso   1.00
O638   O     0.50000   0.89442   0.46179   0.00000  Uiso   1.00
O639   O     0.50000   0.77226   0.46176   0.00000  Uiso   1.00
O640   O     0.50000   0.89441   0.53824   0.00000  Uiso   1.00
O641   O     0.42392   0.83333   0.52928   0.00000  Uiso   1.00
O642   O     0.57608   0.83334   0.47072   0.00000  Uiso   1.00
O643   O     0.42392   0.83334   0.45284   0.00000  Uiso   1.00
O644   O     0.57608   0.83333   0.54716   0.00000  Uiso   1.00
Zn645  Zn    0.50000   0.83333   0.55104   0.00000  Uiso   1.00
Zn646  Zn    0.50000   0.83334   0.44896   0.00000  Uiso   1.00
C647   C     0.83304   0.75339   0.49973   0.00000  Uiso   1.00
C648   C     0.81446   0.68823   0.53515   0.00000  Uiso   1.00
C649   C     0.83392   0.95747   0.50046   0.00000  Uiso   1.00
C650   C     0.83274   0.70920   0.49953   0.00000  Uiso   1.00
C651   C     0.86150   0.86261   0.36195   0.00000  Uiso   1.00
C652   C     0.80517   0.80405   0.63805   0.00000  Uiso   1.00
C653   C     0.86161   0.86283   0.64777   0.00000  Uiso   1.00
C654   C     0.80506   0.80383   0.35223   0.00000  Uiso   1.00
C655   C     0.83363   0.91328   0.50027   0.00000  Uiso   1.00
C656   C     0.73378   0.83226   0.48832   0.00000  Uiso   1.00
C657   C     0.93289   0.83440   0.51168   0.00000  Uiso   1.00
C658   C     0.67934   0.82440   0.48433   0.00000  Uiso   1.00
C659   C     0.98732   0.84227   0.51567   0.00000  Uiso   1.00
C660   C     0.85156   0.68785   0.46437   0.00000  Uiso   1.00
C661   C     0.81510   0.97882   0.53563   0.00000  Uiso   1.00
C662   C     0.85221   0.97844   0.46485   0.00000  Uiso   1.00
H663   H     0.86629   0.70412   0.43704   0.00000  Uiso   1.00
H664   H     0.80037   0.96255   0.56296   0.00000  Uiso   1.00
H665   H     0.86727   0.96188   0.43772   0.00000  Uiso   1.00
H666   H     0.79940   0.70479   0.56228   0.00000  Uiso   1.00
H667   H     0.88401   0.88598   0.38372   0.00000  Uiso   1.00
H668   H     0.78266   0.78068   0.61628   0.00000  Uiso   1.00
I669   I     0.98299   0.77172   0.44206   0.00000  Uiso   1.00
I670   I     0.68368   0.89495   0.55794   0.00000  Uiso   1.00
I671   I     0.90742   0.91133   0.62565   0.00000  Uiso   1.00
I672   I     0.75925   0.75534   0.37435   0.00000  Uiso   1.00
N673   N     0.83332   0.83332   0.61907   0.00000  Uiso   1.00
N674   N     0.83335   0.83334   0.38093   0.00000  Uiso   1.00
O675   O     0.83333   0.77225   0.53821   0.00000  Uiso   1.00
O676   O     0.83334   0.89442   0.46179   0.00000  Uiso   1.00
O677   O     0.83333   0.77226   0.46176   0.00000  Uiso   1.00
O678   O     0.83334   0.89441   0.53824   0.00000  Uiso   1.00
O679   O     0.75725   0.83333   0.52928   0.00000  Uiso   1.00
O680   O     0.90942   0.83334   0.47072   0.00000  Uiso   1.00
O681   O     0.75725   0.83334   0.45284   0.00000  Uiso   1.00
O682   O     0.90942   0.83333   0.54716   0.00000  Uiso   1.00
Zn683  Zn    0.83333   0.83333   0.55104   0.00000  Uiso   1.00
Zn684  Zn    0.83333   0.83334   0.44896   0.00000  Uiso   1.00
C685   C     0.16637   0.08672   0.83307   0.00000  Uiso   1.00
C686   C     0.14779   0.02156   0.86848   0.00000  Uiso   1.00
C687   C     0.16726   0.29080   0.83380   0.00000  Uiso   1.00
C688   C     0.16608   0.04253   0.83287   0.00000  Uiso   1.00
C689   C     0.19483   0.19595   0.69529   0.00000  Uiso   1.00
C690   C     0.13850   0.13739   0.97138   0.00000  Uiso   1.00
C691   C     0.19494   0.19617   0.98110   0.00000  Uiso   1.00
C692   C     0.13840   0.13717   0.68556   0.00000  Uiso   1.00
C693   C     0.16696   0.24661   0.83360   0.00000  Uiso   1.00
C694   C     0.06711   0.16560   0.82166   0.00000  Uiso   1.00
C695   C     0.26622   0.16774   0.84501   0.00000  Uiso   1.00
C696   C     0.01268   0.15773   0.81767   0.00000  Uiso   1.00
C697   C     0.32066   0.17560   0.84900   0.00000  Uiso   1.00
C698   C     0.18490   0.02118   0.79770   0.00000  Uiso   1.00
C699   C     0.14844   0.31215   0.86897   0.00000  Uiso   1.00
C700   C     0.18554   0.31177   0.79818   0.00000  Uiso   1.00
H701   H     0.19963   0.03745   0.77037   0.00000  Uiso   1.00
H702   H     0.13371   0.29588   0.89630   0.00000  Uiso   1.00
H703   H     0.20060   0.29521   0.77105   0.00000  Uiso   1.00
H704   H     0.13273   0.03812   0.89562   0.00000  Uiso   1.00
H705   H     0.21734   0.21932   0.71705   0.00000  Uiso   1.00
H706   H     0.11599   0.11402   0.94962   0.00000  Uiso   1.00
I707   I     0.31632   0.10505   0.77539   0.00000  Uiso   1.00
I708   I     0.01701   0.22828   0.89127   0.00000  Uiso   1.00
I709   I     0.24075   0.24466   0.95899   0.00000  Uiso   1.00
I710   I     0.09258   0.08867   0.70768   0.00000  Uiso   1.00
N711   N     0.16665   0.16666   0.95240   0.00000  Uiso   1.00
N712   N     0.16668   0.16668   0.71427   0.00000  Uiso   1.00
O713   O     0.16666   0.10558   0.87154   0.00000  Uiso   1.00
O714   O     0.16667   0.22775   0.79513   0.00000  Uiso   1.00
O715   O     0.16666   0.10559   0.79510   0.00000  Uiso   1.00
O716   O     0.16667   0.22774   0.87157   0.00000  Uiso   1.00
O717   O     0.09058   0.16666   0.86261   0.00000  Uiso   1.00
O718   O     0.24275   0.16667   0.80405   0.00000  Uiso   1.00
O719   O     0.09058   0.16667   0.78617   0.00000  Uiso   1.00
O720   O     0.24275   0.16666   0.88050   0.00000  Uiso   1.00
Zn721  Zn    0.16667   0.16666   0.88437   0.00000  Uiso   1.00
Zn722  Zn    0.16667   0.16667   0.78229   0.00000  Uiso   1.00
C723   C     0.49971   0.08672   0.83307   0.00000  Uiso   1.00
C724   C     0.48113   0.02156   0.86848   0.00000  Uiso   1.00
C725   C     0.50059   0.29080   0.83380   0.00000  Uiso   1.00
C726   C     0.49941   0.04253   0.83287   0.00000  Uiso   1.00
C727   C     0.52817   0.19595   0.69529   0.00000  Uiso   1.00
C728   C     0.47183   0.13739   0.97138   0.00000  Uiso   1.00
C729   C     0.52827   0.19617   0.98110   0.00000  Uiso   1.00
C730   C     0.47173   0.13717   0.68556   0.00000  Uiso   1.00
C731   C     0.50029   0.24661   0.83360   0.00000  Uiso   1.00
C732   C     0.40044   0.16560   0.82166   0.00000  Uiso   1.00
C733   C     0.59956   0.16774   0.84501   0.00000  Uiso   1.00
C734   C     0.34601   0.15773   0.81767   0.00000  Uiso   1.00
C735   C     0.65399   0.17560   0.84900   0.00000  Uiso   1.00
C736   C     0.51823   0.02118   0.79770   0.00000  Uiso   1.00
C737   C     0.48177   0.31215   0.86897   0.00000  Uiso   1.00
C738   C     0.51887   0.31177   0.79818   0.00000  Uiso   1.00
H739   H     0.53296   0.03745   0.77037   0.00000  Uiso   1.00
H740   H     0.46704   0.29588   0.89630   0.00000  Uiso   1.00
H741   H     0.53394   0.29521   0.77105   0.00000  Uiso   1.00
H742   H     0.46606   0.03812   0.89562   0.00000  Uiso   1.00
H743   H     0.55067   0.21932   0.71705   0.00000  Uiso   1.00
H744   H     0.44933   0.11402   0.94962   0.00000  Uiso   1.00
I745   I     0.64966   0.10505   0.77539   0.00000  Uiso   1.00
I746   I     0.35034   0.22828   0.89127   0.00000  Uiso   1.00
I747   I     0.57408   0.24466   0.95899   0.00000  Uiso   1.00
I748   I     0.42592   0.08867   0.70768   0.00000  Uiso   1.00
N749   N     0.49999   0.16666   0.95240   0.00000  Uiso   1.00
N750   N     0.50001   0.16668   0.71427   0.00000  Uiso   1.00
O751   O     0.50000   0.10558   0.87154   0.00000  Uiso   1.00
O752   O     0.50000   0.22775   0.79513   0.00000  Uiso   1.00
O753   O     0.50000   0.10559   0.79510   0.00000  Uiso   1.00
O754   O     0.50000   0.22774   0.87157   0.00000  Uiso   1.00
O755   O     0.42392   0.16666   0.86261   0.00000  Uiso   1.00
O756   O     0.57608   0.16667   0.80405   0.00000  Uiso   1.00
O757   O     0.42392   0.16667   0.78617   0.00000  Uiso   1.00
O758   O     0.57608   0.16666   0.88050   0.00000  Uiso   1.00
Zn759  Zn    0.50000   0.16666   0.88437   0.00000  Uiso   1.00
Zn760  Zn    0.50000   0.16667   0.78229   0.00000  Uiso   1.00
C761   C     0.83304   0.08672   0.83307   0.00000  Uiso   1.00
C762   C     0.81446   0.02156   0.86848   0.00000  Uiso   1.00
C763   C     0.83392   0.29080   0.83380   0.00000  Uiso   1.00
C764   C     0.83274   0.04253   0.83287   0.00000  Uiso   1.00
C765   C     0.86150   0.19595   0.69529   0.00000  Uiso   1.00
C766   C     0.80517   0.13739   0.97138   0.00000  Uiso   1.00
C767   C     0.86161   0.19617   0.98110   0.00000  Uiso   1.00
C768   C     0.80506   0.13717   0.68556   0.00000  Uiso   1.00
C769   C     0.83363   0.24661   0.83360   0.00000  Uiso   1.00
C770   C     0.73378   0.16560   0.82166   0.00000  Uiso   1.00
C771   C     0.93289   0.16774   0.84501   0.00000  Uiso   1.00
C772   C     0.67934   0.15773   0.81767   0.00000  Uiso   1.00
C773   C     0.98732   0.17560   0.84900   0.00000  Uiso   1.00
C774   C     0.85156   0.02118   0.79770   0.00000  Uiso   1.00
C775   C     0.81510   0.31215   0.86897   0.00000  Uiso   1.00
C776   C     0.85221   0.31177   0.79818   0.00000  Uiso   1.00
H777   H     0.86629   0.03745   0.77037   0.00000  Uiso   1.00
H778   H     0.80037   0.29588   0.89630   0.00000  Uiso   1.00
H779   H     0.86727   0.29521   0.77105   0.00000  Uiso   1.00
H780   H     0.79940   0.03812   0.89562   0.00000  Uiso   1.00
H781   H     0.88401   0.21932   0.71705   0.00000  Uiso   1.00
H782   H     0.78266   0.11402   0.94962   0.00000  Uiso   1.00
I783   I     0.98299   0.10505   0.77539   0.00000  Uiso   1.00
I784   I     0.68368   0.22828   0.89127   0.00000  Uiso   1.00
I785   I     0.90742   0.24466   0.95899   0.00000  Uiso   1.00
I786   I     0.75925   0.08867   0.70768   0.00000  Uiso   1.00
N787   N     0.83332   0.16666   0.95240   0.00000  Uiso   1.00
N788   N     0.83335   0.16668   0.71427   0.00000  Uiso   1.00
O789   O     0.83333   0.10558   0.87154   0.00000  Uiso   1.00
O790   O     0.83334   0.22775   0.79513   0.00000  Uiso   1.00
O791   O     0.83333   0.10559   0.79510   0.00000  Uiso   1.00
O792   O     0.83334   0.22774   0.87157   0.00000  Uiso   1.00
O793   O     0.75725   0.16666   0.86261   0.00000  Uiso   1.00
O794   O     0.90942   0.16667   0.80405   0.00000  Uiso   1.00
O795   O     0.75725   0.16667   0.78617   0.00000  Uiso   1.00
O796   O     0.90942   0.16666   0.88050   0.00000  Uiso   1.00
Zn797  Zn    0.83333   0.16666   0.88437   0.00000  Uiso   1.00
Zn798  Zn    0.83333   0.16667   0.78229   0.00000  Uiso   1.00
C799   C     0.16637   0.42005   0.83307   0.00000  Uiso   1.00
C800   C     0.14779   0.35490   0.86848   0.00000  Uiso   1.00
C801   C     0.16726   0.62414   0.83380   0.00000  Uiso   1.00
C802   C     0.16608   0.37586   0.83287   0.00000  Uiso   1.00
C803   C     0.19483   0.52928   0.69529   0.00000  Uiso   1.00
C804   C     0.13850   0.47072   0.97138   0.00000  Uiso   1.00
C805   C     0.19494   0.52950   0.98110   0.00000  Uiso   1.00
C806   C     0.13840   0.47050   0.68556   0.00000  Uiso   1.00
C807   C     0.16696   0.57995   0.83360   0.00000  Uiso   1.00
C808   C     0.06711   0.49893   0.82166   0.00000  Uiso   1.00
C809   C     0.26622   0.50107   0.84501   0.00000  Uiso   1.00
C810   C     0.01268   0.49107   0.81767   0.00000  Uiso   1.00
C811   C     0.32066   0.50893   0.84900   0.00000  Uiso   1.00
C812   C     0.18490   0.35452   0.79770   0.00000  Uiso   1.00
C813   C     0.14844   0.64548   0.86897   0.00000  Uiso   1.00
C814   C     0.18554   0.64510   0.79818   0.00000  Uiso   1.00
H815   H     0.19963   0.37079   0.77037   0.00000  Uiso   1.00
H816   H     0.13371   0.62921   0.89630   0.00000  Uiso   1.00
H817   H     0.20060   0.62855   0.77105   0.00000  Uiso   1.00
H818   H     0.13273   0.37145   0.89562   0.00000  Uiso   1.00
H819   H     0.21734   0.55265   0.71705   0.00000  Uiso   1.00
H820   H     0.11599   0.44735   0.94962   0.00000  Uiso   1.00
I821   I     0.31632   0.43838   0.77539   0.00000  Uiso   1.00
I822   I     0.01701   0.56162   0.89127   0.00000  Uiso   1.00
I823   I     0.24075   0.57799   0.95899   0.00000  Uiso   1.00
I824   I     0.09258   0.42201   0.70768   0.00000  Uiso   1.00
N825   N     0.16665   0.49999   0.95240   0.00000  Uiso   1.00
N826   N     0.16668   0.50001   0.71427   0.00000  Uiso   1.00
O827   O     0.16666   0.43892   0.87154   0.00000  Uiso   1.00
O828   O     0.16667   0.56108   0.79513   0.00000  Uiso   1.00
O829   O     0.16666   0.43893   0.79510   0.00000  Uiso   1.00
O830   O     0.16667   0.56107   0.87157   0.00000  Uiso   1.00
O831   O     0.09058   0.50000   0.86261   0.00000  Uiso   1.00
O832   O     0.24275   0.50000   0.80405   0.00000  Uiso   1.00
O833   O     0.09058   0.50000   0.78617   0.00000  Uiso   1.00
O834   O     0.24275   0.50000   0.88050   0.00000  Uiso   1.00
Zn835  Zn    0.16667   0.49999   0.88437   0.00000  Uiso   1.00
Zn836  Zn    0.16667   0.50001   0.78229   0.00000  Uiso   1.00
C837   C     0.49971   0.42005   0.83307   0.00000  Uiso   1.00
C838   C     0.48113   0.35490   0.86848   0.00000  Uiso   1.00
C839   C     0.50059   0.62414   0.83380   0.00000  Uiso   1.00
C840   C     0.49941   0.37586   0.83287   0.00000  Uiso   1.00
C841   C     0.52817   0.52928   0.69529   0.00000  Uiso   1.00
C842   C     0.47183   0.47072   0.97138   0.00000  Uiso   1.00
C843   C     0.52827   0.52950   0.98110   0.00000  Uiso   1.00
C844   C     0.47173   0.47050   0.68556   0.00000  Uiso   1.00
C845   C     0.50029   0.57995   0.83360   0.00000  Uiso   1.00
C846   C     0.40044   0.49893   0.82166   0.00000  Uiso   1.00
C847   C     0.59956   0.50107   0.84501   0.00000  Uiso   1.00
C848   C     0.34601   0.49107   0.81767   0.00000  Uiso   1.00
C849   C     0.65399   0.50893   0.84900   0.00000  Uiso   1.00
C850   C     0.51823   0.35452   0.79770   0.00000  Uiso   1.00
C851   C     0.48177   0.64548   0.86897   0.00000  Uiso   1.00
C852   C     0.51887   0.64510   0.79818   0.00000  Uiso   1.00
H853   H     0.53296   0.37079   0.77037   0.00000  Uiso   1.00
H854   H     0.46704   0.62921   0.89630   0.00000  Uiso   1.00
H855   H     0.53394   0.62855   0.77105   0.00000  Uiso   1.00
H856   H     0.46606   0.37145   0.89562   0.00000  Uiso   1.00
H857   H     0.55067   0.55265   0.71705   0.00000  Uiso   1.00
H858   H     0.44933   0.44735   0.94962   0.00000  Uiso   1.00
I859   I     0.64966   0.43838   0.77539   0.00000  Uiso   1.00
I860   I     0.35034   0.56162   0.89127   0.00000  Uiso   1.00
I861   I     0.57408   0.57799   0.95899   0.00000  Uiso   1.00
I862   I     0.42592   0.42201   0.70768   0.00000  Uiso   1.00
N863   N     0.49999   0.49999   0.95240   0.00000  Uiso   1.00
N864   N     0.50001   0.50001   0.71427   0.00000  Uiso   1.00
O865   O     0.50000   0.43892   0.87154   0.00000  Uiso   1.00
O866   O     0.50000   0.56108   0.79513   0.00000  Uiso   1.00
O867   O     0.50000   0.43893   0.79510   0.00000  Uiso   1.00
O868   O     0.50000   0.56107   0.87157   0.00000  Uiso   1.00
O869   O     0.42392   0.50000   0.86261   0.00000  Uiso   1.00
O870   O     0.57608   0.50000   0.80405   0.00000  Uiso   1.00
O871   O     0.42392   0.50000   0.78617   0.00000  Uiso   1.00
O872   O     0.57608   0.50000   0.88050   0.00000  Uiso   1.00
Zn873  Zn    0.50000   0.49999   0.88437   0.00000  Uiso   1.00
Zn874  Zn    0.50000   0.50001   0.78229   0.00000  Uiso   1.00
C875   C     0.83304   0.42005   0.83307   0.00000  Uiso   1.00
C876   C     0.81446   0.35490   0.86848   0.00000  Uiso   1.00
C877   C     0.83392   0.62414   0.83380   0.00000  Uiso   1.00
C878   C     0.83274   0.37586   0.83287   0.00000  Uiso   1.00
C879   C     0.86150   0.52928   0.69529   0.00000  Uiso   1.00
C880   C     0.80517   0.47072   0.97138   0.00000  Uiso   1.00
C881   C     0.86161   0.52950   0.98110   0.00000  Uiso   1.00
C882   C     0.80506   0.47050   0.68556   0.00000  Uiso   1.00
C883   C     0.83363   0.57995   0.83360   0.00000  Uiso   1.00
C884   C     0.73378   0.49893   0.82166   0.00000  Uiso   1.00
C885   C     0.93289   0.50107   0.84501   0.00000  Uiso   1.00
C886   C     0.67934   0.49107   0.81767   0.00000  Uiso   1.00
C887   C     0.98732   0.50893   0.84900   0.00000  Uiso   1.00
C888   C     0.85156   0.35452   0.79770   0.00000  Uiso   1.00
C889   C     0.81510   0.64548   0.86897   0.00000  Uiso   1.00
C890   C     0.85221   0.64510   0.79818   0.00000  Uiso   1.00
H891   H     0.86629   0.37079   0.77037   0.00000  Uiso   1.00
H892   H     0.80037   0.62921   0.89630   0.00000  Uiso   1.00
H893   H     0.86727   0.62855   0.77105   0.00000  Uiso   1.00
H894   H     0.79940   0.37145   0.89562   0.00000  Uiso   1.00
H895   H     0.88401   0.55265   0.71705   0.00000  Uiso   1.00
H896   H     0.78266   0.44735   0.94962   0.00000  Uiso   1.00
I897   I     0.98299   0.43838   0.77539   0.00000  Uiso   1.00
I898   I     0.68368   0.56162   0.89127   0.00000  Uiso   1.00
I899   I     0.90742   0.57799   0.95899   0.00000  Uiso   1.00
I900   I     0.75925   0.42201   0.70768   0.00000  Uiso   1.00
N901   N     0.83332   0.49999   0.95240   0.00000  Uiso   1.00
N902   N     0.83335   0.50001   0.71427   0.00000  Uiso   1.00
O903   O     0.83333   0.43892   0.87154   0.00000  Uiso   1.00
O904   O     0.83334   0.56108   0.79513   0.00000  Uiso   1.00
O905   O     0.83333   0.43893   0.79510   0.00000  Uiso   1.00
O906   O     0.83334   0.56107   0.87157   0.00000  Uiso   1.00
O907   O     0.75725   0.50000   0.86261   0.00000  Uiso   1.00
O908   O     0.90942   0.50000   0.80405   0.00000  Uiso   1.00
O909   O     0.75725   0.50000   0.78617   0.00000  Uiso   1.00
O910   O     0.90942   0.50000   0.88050   0.00000  Uiso   1.00
Zn911  Zn    0.83333   0.49999   0.88437   0.00000  Uiso   1.00
Zn912  Zn    0.83333   0.50001   0.78229   0.00000  Uiso   1.00
C913   C     0.16637   0.75339   0.83307   0.00000  Uiso   1.00
C914   C     0.14779   0.68823   0.86848   0.00000  Uiso   1.00
C915   C     0.16726   0.95747   0.83380   0.00000  Uiso   1.00
C916   C     0.16608   0.70920   0.83287   0.00000  Uiso   1.00
C917   C     0.19483   0.86261   0.69529   0.00000  Uiso   1.00
C918   C     0.13850   0.80405   0.97138   0.00000  Uiso   1.00
C919   C     0.19494   0.86283   0.98110   0.00000  Uiso   1.00
C920   C     0.13840   0.80383   0.68556   0.00000  Uiso   1.00
C921   C     0.16696   0.91328   0.83360   0.00000  Uiso   1.00
C922   C     0.06711   0.83226   0.82166   0.00000  Uiso   1.00
C923   C     0.26622   0.83440   0.84501   0.00000  Uiso   1.00
C924   C     0.01268   0.82440   0.81767   0.00000  Uiso   1.00
C925   C     0.32066   0.84227   0.84900   0.00000  Uiso   1.00
C926   C     0.18490   0.68785   0.79770   0.00000  Uiso   1.00
C927   C     0.14844   0.97882   0.86897   0.00000  Uiso   1.00
C928   C     0.18554   0.97844   0.79818   0.00000  Uiso   1.00
H929   H     0.19963   0.70412   0.77037   0.00000  Uiso   1.00
H930   H     0.13371   0.96255   0.89630   0.00000  Uiso   1.00
H931   H     0.20060   0.96188   0.77105   0.00000  Uiso   1.00
H932   H     0.13273   0.70479   0.89562   0.00000  Uiso   1.00
H933   H     0.21734   0.88598   0.71705   0.00000  Uiso   1.00
H934   H     0.11599   0.78068   0.94962   0.00000  Uiso   1.00
I935   I     0.31632   0.77172   0.77539   0.00000  Uiso   1.00
I936   I     0.01701   0.89495   0.89127   0.00000  Uiso   1.00
I937   I     0.24075   0.91133   0.95899   0.00000  Uiso   1.00
I938   I     0.09258   0.75534   0.70768   0.00000  Uiso   1.00
N939   N     0.16665   0.83332   0.95240   0.00000  Uiso   1.00
N940   N     0.16668   0.83334   0.71427   0.00000  Uiso   1.00
O941   O     0.16666   0.77225   0.87154   0.00000  Uiso   1.00
O942   O     0.16667   0.89442   0.79513   0.00000  Uiso   1.00
O943   O     0.16666   0.77226   0.79510   0.00000  Uiso   1.00
O944   O     0.16667   0.89441   0.87157   0.00000  Uiso   1.00
O945   O     0.09058   0.83333   0.86261   0.00000  Uiso   1.00
O946   O     0.24275   0.83334   0.80405   0.00000  Uiso   1.00
O947   O     0.09058   0.83334   0.78617   0.00000  Uiso   1.00
O948   O     0.24275   0.83333   0.88050   0.00000  Uiso   1.00
Zn949  Zn    0.16667   0.83333   0.88437   0.00000  Uiso   1.00
Zn950  Zn    0.16667   0.83334   0.78229   0.00000  Uiso   1.00
C951   C     0.49971   0.75339   0.83307   0.00000  Uiso   1.00
C952   C     0.48113   0.68823   0.86848   0.00000  Uiso   1.00
C953   C     0.50059   0.95747   0.83380   0.00000  Uiso   1.00
C954   C     0.49941   0.70920   0.83287   0.00000  Uiso   1.00
C955   C     0.52817   0.86261   0.69529   0.00000  Uiso   1.00
C956   C     0.47183   0.80405   0.97138   0.00000  Uiso   1.00
C957   C     0.52827   0.86283   0.98110   0.00000  Uiso   1.00
C958   C     0.47173   0.80383   0.68556   0.00000  Uiso   1.00
C959   C     0.50029   0.91328   0.83360   0.00000  Uiso   1.00
C960   C     0.40044   0.83226   0.82166   0.00000  Uiso   1.00
C961   C     0.59956   0.83440   0.84501   0.00000  Uiso   1.00
C962   C     0.34601   0.82440   0.81767   0.00000  Uiso   1.00
C963   C     0.65399   0.84227   0.84900   0.00000  Uiso   1.00
C964   C     0.51823   0.68785   0.79770   0.00000  Uiso   1.00
C965   C     0.48177   0.97882   0.86897   0.00000  Uiso   1.00
C966   C     0.51887   0.97844   0.79818   0.00000  Uiso   1.00
H967   H     0.53296   0.70412   0.77037   0.00000  Uiso   1.00
H968   H     0.46704   0.96255   0.89630   0.00000  Uiso   1.00
H969   H     0.53394   0.96188   0.77105   0.00000  Uiso   1.00
H970   H     0.46606   0.70479   0.89562   0.00000  Uiso   1.00
H971   H     0.55067   0.88598   0.71705   0.00000  Uiso   1.00
H972   H     0.44933   0.78068   0.94962   0.00000  Uiso   1.00
I973   I     0.64966   0.77172   0.77539   0.00000  Uiso   1.00
I974   I     0.35034   0.89495   0.89127   0.00000  Uiso   1.00
I975   I     0.57408   0.91133   0.95899   0.00000  Uiso   1.00
I976   I     0.42592   0.75534   0.70768   0.00000  Uiso   1.00
N977   N     0.49999   0.83332   0.95240   0.00000  Uiso   1.00
N978   N     0.50001   0.83334   0.71427   0.00000  Uiso   1.00
O979   O     0.50000   0.77225   0.87154   0.00000  Uiso   1.00
O980   O     0.50000   0.89442   0.79513   0.00000  Uiso   1.00
O981   O     0.50000   0.77226   0.79510   0.00000  Uiso   1.00
O982   O     0.50000   0.89441   0.87157   0.00000  Uiso   1.00
O983   O     0.42392   0.83333   0.86261   0.00000  Uiso   1.00
O984   O     0.57608   0.83334   0.80405   0.00000  Uiso   1.00
O985   O     0.42392   0.83334   0.78617   0.00000  Uiso   1.00
O986   O     0.57608   0.83333   0.88050   0.00000  Uiso   1.00
Zn987  Zn    0.50000   0.83333   0.88437   0.00000  Uiso   1.00
Zn988  Zn    0.50000   0.83334   0.78229   0.00000  Uiso   1.00
C989   C     0.83304   0.75339   0.83307   0.00000  Uiso   1.00
C990   C     0.81446   0.68823   0.86848   0.00000  Uiso   1.00
C991   C     0.83392   0.95747   0.83380   0.00000  Uiso   1.00
C992   C     0.83274   0.70920   0.83287   0.00000  Uiso   1.00
C993   C     0.86150   0.86261   0.69529   0.00000  Uiso   1.00
C994   C     0.80517   0.80405   0.97138   0.00000  Uiso   1.00
C995   C     0.86161   0.86283   0.98110   0.00000  Uiso   1.00
C996   C     0.80506   0.80383   0.68556   0.00000  Uiso   1.00
C997   C     0.83363   0.91328   0.83360   0.00000  Uiso   1.00
C998   C     0.73378   0.83226   0.82166   0.00000  Uiso   1.00
C999   C     0.93289   0.83440   0.84501   0.00000  Uiso   1.00
C1000  C     0.67934   0.82440   0.81767   0.00000  Uiso   1.00
C1001  C     0.98732   0.84227   0.84900   0.00000  Uiso   1.00
C1002  C     0.85156   0.68785   0.79770   0.00000  Uiso   1.00
C1003  C     0.81510   0.97882   0.86897   0.00000  Uiso   1.00
C1004  C     0.85221   0.97844   0.79818   0.00000  Uiso   1.00
H1005  H     0.86629   0.70412   0.77037   0.00000  Uiso   1.00
H1006  H     0.80037   0.96255   0.89630   0.00000  Uiso   1.00
H1007  H     0.86727   0.96188   0.77105   0.00000  Uiso   1.00
H1008  H     0.79940   0.70479   0.89562   0.00000  Uiso   1.00
H1009  H     0.88401   0.88598   0.71705   0.00000  Uiso   1.00
H1010  H     0.78266   0.78068   0.94962   0.00000  Uiso   1.00
I1011  I     0.98299   0.77172   0.77539   0.00000  Uiso   1.00
I1012  I     0.68368   0.89495   0.89127   0.00000  Uiso   1.00
I1013  I     0.90742   0.91133   0.95899   0.00000  Uiso   1.00
I1014  I     0.75925   0.75534   0.70768   0.00000  Uiso   1.00
N1015  N     0.83332   0.83332   0.95240   0.00000  Uiso   1.00
N1016  N     0.83335   0.83334   0.71427   0.00000  Uiso   1.00
O1017  O     0.83333   0.77225   0.87154   0.00000  Uiso   1.00
O1018  O     0.83334   0.89442   0.79513   0.00000  Uiso   1.00
O1019  O     0.83333   0.77226   0.79510   0.00000  Uiso   1.00
O1020  O     0.83334   0.89441   0.87157   0.00000  Uiso   1.00
O1021  O     0.75725   0.83333   0.86261   0.00000  Uiso   1.00
O1022  O     0.90942   0.83334   0.80405   0.00000  Uiso   1.00
O1023  O     0.75725   0.83334   0.78617   0.00000  Uiso   1.00
O1024  O     0.90942   0.83333   0.88050   0.00000  Uiso   1.00
Zn1025 Zn    0.83333   0.83333   0.88437   0.00000  Uiso   1.00
Zn1026 Zn    0.83333   0.83334   0.78229   0.00000  Uiso   1.00
loop_
_geom_bond_atom_site_label_1
_geom_bond_atom_site_label_2
_geom_bond_distance
_geom_bond_site_symmetry_2
_ccdc_geom_bond_type
C1     C4      1.415   .     S
C1     O29     1.285   .     A
C1     O31     1.290   .     A
C2     C4      1.398   .     A
C2     H20     1.084   .     S
C2     C243    1.370   1_545 S
C3     C9      1.415   .     S
C3     C15     1.394   .     A
C3     C16     1.398   .     A
C4     C14     1.394   .     A
C5     N28     1.355   .     A
C5     H21     1.082   .     S
C5     C691    1.414   1_554 S
C6     N27     1.355   .     A
C6     H22     1.082   .     S
C6     C350    1.414   .     S
C7     N27     1.384   .     A
C7     I25     2.105   .     S
C7     C347    1.414   .     S
C8     I26     2.105   .     S
C8     N28     1.384   .     A
C8     C690    1.414   1_554 S
C9     O30     1.285   .     A
C9     O32     1.290   .     A
C10    O35     1.295   .     A
C10    C12     1.408   .     S
C10    O33     1.276   .     A
C11    C13     1.408   .     S
C11    O36     1.295   .     A
C11    O34     1.276   .     A
C12    C89     1.345   1_455 S
C12    I99     2.147   1_455 S
C13    C50     1.345   .     S
C13    I62     2.147   .     S
C14    H17     1.084   .     S
C14    C244    1.370   1_545 S
C15    H18     1.084   .     S
C15    C116    1.370   .     S
C16    H19     1.084   .     S
C16    C128    1.370   .     S
I23    C50     2.147   .     S
I24    C89     2.147   1_455 S
N27    Zn37    2.024   .     S
N28    Zn38    2.024   .     S
O29    Zn37    1.988   .     S
O30    Zn38    1.988   .     S
O31    Zn38    1.999   .     S
O32    Zn37    1.999   .     S
O33    Zn37    1.971   .     S
O34    Zn38    1.971   .     S
O35    Zn38    1.983   .     S
O36    Zn37    1.983   .     S
C39    C42     1.415   .     S
C39    O67     1.285   .     A
C39    O69     1.290   .     A
C40    C42     1.398   .     A
C40    H58     1.084   .     S
C40    C281    1.370   1_545 S
C41    C47     1.415   .     S
C41    C53     1.394   .     A
C41    C54     1.398   .     A
C42    C52     1.394   .     A
C43    N66     1.355   .     A
C43    H59     1.082   .     S
C43    C729    1.414   1_554 S
C44    N65     1.355   .     A
C44    H60     1.082   .     S
C44    C388    1.414   .     S
C45    N65     1.384   .     A
C45    I63     2.105   .     S
C45    C385    1.414   .     S
C46    I64     2.105   .     S
C46    N66     1.384   .     A
C46    C728    1.414   1_554 S
C47    O68     1.285   .     A
C47    O70     1.290   .     A
C48    O73     1.295   .     A
C48    C50     1.408   .     S
C48    O71     1.276   .     A
C49    C51     1.408   .     S
C49    O74     1.295   .     A
C49    O72     1.276   .     A
C51    C88     1.345   .     S
C51    I100    2.147   .     S
C52    H55     1.084   .     S
C52    C282    1.370   1_545 S
C53    H56     1.084   .     S
C53    C154    1.370   .     S
C54    H57     1.084   .     S
C54    C166    1.370   .     S
I61    C88     2.147   .     S
N65    Zn75    2.024   .     S
N66    Zn76    2.024   .     S
O67    Zn75    1.988   .     S
O68    Zn76    1.988   .     S
O69    Zn76    1.999   .     S
O70    Zn75    1.999   .     S
O71    Zn75    1.971   .     S
O72    Zn76    1.971   .     S
O73    Zn76    1.983   .     S
O74    Zn75    1.983   .     S
C77    C80     1.415   .     S
C77    O105    1.285   .     A
C77    O107    1.290   .     A
C78    C80     1.398   .     A
C78    H96     1.084   .     S
C78    C319    1.370   1_545 S
C79    C85     1.415   .     S
C79    C91     1.394   .     A
C79    C92     1.398   .     A
C80    C90     1.394   .     A
C81    N104    1.355   .     A
C81    H97     1.082   .     S
C81    C767    1.414   1_554 S
C82    N103    1.355   .     A
C82    H98     1.082   .     S
C82    C426    1.414   .     S
C83    N103    1.384   .     A
C83    I101    2.105   .     S
C83    C423    1.414   .     S
C84    I102    2.105   .     S
C84    N104    1.384   .     A
C84    C766    1.414   1_554 S
C85    O106    1.285   .     A
C85    O108    1.290   .     A
C86    O111    1.295   .     A
C86    C88     1.408   .     S
C86    O109    1.276   .     A
C87    C89     1.408   .     S
C87    O112    1.295   .     A
C87    O110    1.276   .     A
C89    C12     1.345   1_655 S
C89    I24     2.147   1_655 S
C90    H93     1.084   .     S
C90    C320    1.370   1_545 S
C91    H94     1.084   .     S
C91    C192    1.370   .     S
C92    H95     1.084   .     S
C92    C204    1.370   .     S
I99    C12     2.147   1_655 S
N103   Zn113   2.024   .     S
N104   Zn114   2.024   .     S
O105   Zn113   1.988   .     S
O106   Zn114   1.988   .     S
O107   Zn114   1.999   .     S
O108   Zn113   1.999   .     S
O109   Zn113   1.971   .     S
O110   Zn114   1.971   .     S
O111   Zn114   1.983   .     S
O112   Zn113   1.983   .     S
C115   C118    1.415   .     S
C115   O143    1.285   .     A
C115   O145    1.290   .     A
C116   C118    1.398   .     A
C116   H134    1.084   .     S
C117   C123    1.415   .     S
C117   C129    1.394   .     A
C117   C130    1.398   .     A
C118   C128    1.394   .     A
C119   N142    1.355   .     A
C119   H135    1.082   .     S
C119   C805    1.414   1_554 S
C120   N141    1.355   .     A
C120   H136    1.082   .     S
C120   C464    1.414   .     S
C121   N141    1.384   .     A
C121   I139    2.105   .     S
C121   C461    1.414   .     S
C122   I140    2.105   .     S
C122   N142    1.384   .     A
C122   C804    1.414   1_554 S
C123   O144    1.285   .     A
C123   O146    1.290   .     A
C124   O149    1.295   .     A
C124   C126    1.408   .     S
C124   O147    1.276   .     A
C125   C127    1.408   .     S
C125   O150    1.295   .     A
C125   O148    1.276   .     A
C126   C203    1.345   1_455 S
C126   I213    2.147   1_455 S
C127   C164    1.345   .     S
C127   I176    2.147   .     S
C128   H131    1.084   .     S
C129   H132    1.084   .     S
C129   C230    1.370   .     S
C130   H133    1.084   .     S
C130   C242    1.370   .     S
I137   C164    2.147   .     S
I138   C203    2.147   1_455 S
N141   Zn151   2.024   .     S
N142   Zn152   2.024   .     S
O143   Zn151   1.988   .     S
O144   Zn152   1.988   .     S
O145   Zn152   1.999   .     S
O146   Zn151   1.999   .     S
O147   Zn151   1.971   .     S
O148   Zn152   1.971   .     S
O149   Zn152   1.983   .     S
O150   Zn151   1.983   .     S
C153   C156    1.415   .     S
C153   O181    1.285   .     A
C153   O183    1.290   .     A
C154   C156    1.398   .     A
C154   H172    1.084   .     S
C155   C161    1.415   .     S
C155   C167    1.394   .     A
C155   C168    1.398   .     A
C156   C166    1.394   .     A
C157   N180    1.355   .     A
C157   H173    1.082   .     S
C157   C843    1.414   1_554 S
C158   N179    1.355   .     A
C158   H174    1.082   .     S
C158   C502    1.414   .     S
C159   N179    1.384   .     A
C159   I177    2.105   .     S
C159   C499    1.414   .     S
C160   I178    2.105   .     S
C160   N180    1.384   .     A
C160   C842    1.414   1_554 S
C161   O182    1.285   .     A
C161   O184    1.290   .     A
C162   O187    1.295   .     A
C162   C164    1.408   .     S
C162   O185    1.276   .     A
C163   C165    1.408   .     S
C163   O188    1.295   .     A
C163   O186    1.276   .     A
C165   C202    1.345   .     S
C165   I214    2.147   .     S
C166   H169    1.084   .     S
C167   H170    1.084   .     S
C167   C268    1.370   .     S
C168   H171    1.084   .     S
C168   C280    1.370   .     S
I175   C202    2.147   .     S
N179   Zn189   2.024   .     S
N180   Zn190   2.024   .     S
O181   Zn189   1.988   .     S
O182   Zn190   1.988   .     S
O183   Zn190   1.999   .     S
O184   Zn189   1.999   .     S
O185   Zn189   1.971   .     S
O186   Zn190   1.971   .     S
O187   Zn190   1.983   .     S
O188   Zn189   1.983   .     S
C191   C194    1.415   .     S
C191   O219    1.285   .     A
C191   O221    1.290   .     A
C192   C194    1.398   .     A
C192   H210    1.084   .     S
C193   C199    1.415   .     S
C193   C205    1.394   .     A
C193   C206    1.398   .     A
C194   C204    1.394   .     A
C195   N218    1.355   .     A
C195   H211    1.082   .     S
C195   C881    1.414   1_554 S
C196   N217    1.355   .     A
C196   H212    1.082   .     S
C196   C540    1.414   .     S
C197   N217    1.384   .     A
C197   I215    2.105   .     S
C197   C537    1.414   .     S
C198   I216    2.105   .     S
C198   N218    1.384   .     A
C198   C880    1.414   1_554 S
C199   O220    1.285   .     A
C199   O222    1.290   .     A
C200   O225    1.295   .     A
C200   C202    1.408   .     S
C200   O223    1.276   .     A
C201   C203    1.408   .     S
C201   O226    1.295   .     A
C201   O224    1.276   .     A
C203   C126    1.345   1_655 S
C203   I138    2.147   1_655 S
C204   H207    1.084   .     S
C205   H208    1.084   .     S
C205   C306    1.370   .     S
C206   H209    1.084   .     S
C206   C318    1.370   .     S
I213   C126    2.147   1_655 S
N217   Zn227   2.024   .     S
N218   Zn228   2.024   .     S
O219   Zn227   1.988   .     S
O220   Zn228   1.988   .     S
O221   Zn228   1.999   .     S
O222   Zn227   1.999   .     S
O223   Zn227   1.971   .     S
O224   Zn228   1.971   .     S
O225   Zn228   1.983   .     S
O226   Zn227   1.983   .     S
C229   C232    1.415   .     S
C229   O257    1.285   .     A
C229   O259    1.290   .     A
C230   C232    1.398   .     A
C230   H248    1.084   .     S
C231   C237    1.415   .     S
C231   C243    1.394   .     A
C231   C244    1.398   .     A
C232   C242    1.394   .     A
C233   N256    1.355   .     A
C233   H249    1.082   .     S
C233   C919    1.414   1_554 S
C234   N255    1.355   .     A
C234   H250    1.082   .     S
C234   C578    1.414   .     S
C235   N255    1.384   .     A
C235   I253    2.105   .     S
C235   C575    1.414   .     S
C236   I254    2.105   .     S
C236   N256    1.384   .     A
C236   C918    1.414   1_554 S
C237   O258    1.285   .     A
C237   O260    1.290   .     A
C238   O263    1.295   .     A
C238   C240    1.408   .     S
C238   O261    1.276   .     A
C239   C241    1.408   .     S
C239   O264    1.295   .     A
C239   O262    1.276   .     A
C240   C317    1.345   1_455 S
C240   I327    2.147   1_455 S
C241   C278    1.345   .     S
C241   I290    2.147   .     S
C242   H245    1.084   .     S
C243   H246    1.084   .     S
C243   C2      1.370   1_565 S
C244   H247    1.084   .     S
C244   C14     1.370   1_565 S
I251   C278    2.147   .     S
I252   C317    2.147   1_455 S
N255   Zn265   2.024   .     S
N256   Zn266   2.024   .     S
O257   Zn265   1.988   .     S
O258   Zn266   1.988   .     S
O259   Zn266   1.999   .     S
O260   Zn265   1.999   .     S
O261   Zn265   1.971   .     S
O262   Zn266   1.971   .     S
O263   Zn266   1.983   .     S
O264   Zn265   1.983   .     S
C267   C270    1.415   .     S
C267   O295    1.285   .     A
C267   O297    1.290   .     A
C268   C270    1.398   .     A
C268   H286    1.084   .     S
C269   C275    1.415   .     S
C269   C281    1.394   .     A
C269   C282    1.398   .     A
C270   C280    1.394   .     A
C271   N294    1.355   .     A
C271   H287    1.082   .     S
C271   C957    1.414   1_554 S
C272   N293    1.355   .     A
C272   H288    1.082   .     S
C272   C616    1.414   .     S
C273   N293    1.384   .     A
C273   I291    2.105   .     S
C273   C613    1.414   .     S
C274   I292    2.105   .     S
C274   N294    1.384   .     A
C274   C956    1.414   1_554 S
C275   O296    1.285   .     A
C275   O298    1.290   .     A
C276   O301    1.295   .     A
C276   C278    1.408   .     S
C276   O299    1.276   .     A
C277   C279    1.408   .     S
C277   O302    1.295   .     A
C277   O300    1.276   .     A
C279   C316    1.345   .     S
C279   I328    2.147   .     S
C280   H283    1.084   .     S
C281   H284    1.084   .     S
C281   C40     1.370   1_565 S
C282   H285    1.084   .     S
C282   C52     1.370   1_565 S
I289   C316    2.147   .     S
N293   Zn303   2.024   .     S
N294   Zn304   2.024   .     S
O295   Zn303   1.988   .     S
O296   Zn304   1.988   .     S
O297   Zn304   1.999   .     S
O298   Zn303   1.999   .     S
O299   Zn303   1.971   .     S
O300   Zn304   1.971   .     S
O301   Zn304   1.983   .     S
O302   Zn303   1.983   .     S
C305   C308    1.415   .     S
C305   O333    1.285   .     A
C305   O335    1.290   .     A
C306   C308    1.398   .     A
C306   H324    1.084   .     S
C307   C313    1.415   .     S
C307   C319    1.394   .     A
C307   C320    1.398   .     A
C308   C318    1.394   .     A
C309   N332    1.355   .     A
C309   H325    1.082   .     S
C309   C995    1.414   1_554 S
C310   N331    1.355   .     A
C310   H326    1.082   .     S
C310   C654    1.414   .     S
C311   N331    1.384   .     A
C311   I329    2.105   .     S
C311   C651    1.414   .     S
C312   I330    2.105   .     S
C312   N332    1.384   .     A
C312   C994    1.414   1_554 S
C313   O334    1.285   .     A
C313   O336    1.290   .     A
C314   O339    1.295   .     A
C314   C316    1.408   .     S
C314   O337    1.276   .     A
C315   C317    1.408   .     S
C315   O340    1.295   .     A
C315   O338    1.276   .     A
C317   C240    1.345   1_655 S
C317   I252    2.147   1_655 S
C318   H321    1.084   .     S
C319   H322    1.084   .     S
C319   C78     1.370   1_565 S
C320   H323    1.084   .     S
C320   C90     1.370   1_565 S
I327   C240    2.147   1_655 S
N331   Zn341   2.024   .     S
N332   Zn342   2.024   .     S
O333   Zn341   1.988   .     S
O334   Zn342   1.988   .     S
O335   Zn342   1.999   .     S
O336   Zn341   1.999   .     S
O337   Zn341   1.971   .     S
O338   Zn342   1.971   .     S
O339   Zn342   1.983   .     S
O340   Zn341   1.983   .     S
C343   C346    1.415   .     S
C343   O371    1.285   .     A
C343   O373    1.290   .     A
C344   C346    1.398   .     A
C344   H362    1.084   .     S
C344   C585    1.370   1_545 S
C345   C351    1.415   .     S
C345   C357    1.394   .     A
C345   C358    1.398   .     A
C346   C356    1.394   .     A
C347   N370    1.355   .     A
C347   H363    1.082   .     S
C348   N369    1.355   .     A
C348   H364    1.082   .     S
C348   C692    1.414   .     S
C349   N369    1.384   .     A
C349   I367    2.105   .     S
C349   C689    1.414   .     S
C350   I368    2.105   .     S
C350   N370    1.384   .     A
C351   O372    1.285   .     A
C351   O374    1.290   .     A
C352   O377    1.295   .     A
C352   C354    1.408   .     S
C352   O375    1.276   .     A
C353   C355    1.408   .     S
C353   O378    1.295   .     A
C353   O376    1.276   .     A
C354   C431    1.345   1_455 S
C354   I441    2.147   1_455 S
C355   C392    1.345   .     S
C355   I404    2.147   .     S
C356   H359    1.084   .     S
C356   C586    1.370   1_545 S
C357   H360    1.084   .     S
C357   C458    1.370   .     S
C358   H361    1.084   .     S
C358   C470    1.370   .     S
I365   C392    2.147   .     S
I366   C431    2.147   1_455 S
N369   Zn379   2.024   .     S
N370   Zn380   2.024   .     S
O371   Zn379   1.988   .     S
O372   Zn380   1.988   .     S
O373   Zn380   1.999   .     S
O374   Zn379   1.999   .     S
O375   Zn379   1.971   .     S
O376   Zn380   1.971   .     S
O377   Zn380   1.983   .     S
O378   Zn379   1.983   .     S
C381   C384    1.415   .     S
C381   O409    1.285   .     A
C381   O411    1.290   .     A
C382   C384    1.398   .     A
C382   H400    1.084   .     S
C382   C623    1.370   1_545 S
C383   C389    1.415   .     S
C383   C395    1.394   .     A
C383   C396    1.398   .     A
C384   C394    1.394   .     A
C385   N408    1.355   .     A
C385   H401    1.082   .     S
C386   N407    1.355   .     A
C386   H402    1.082   .     S
C386   C730    1.414   .     S
C387   N407    1.384   .     A
C387   I405    2.105   .     S
C387   C727    1.414   .     S
C388   I406    2.105   .     S
C388   N408    1.384   .     A
C389   O410    1.285   .     A
C389   O412    1.290   .     A
C390   O415    1.295   .     A
C390   C392    1.408   .     S
C390   O413    1.276   .     A
C391   C393    1.408   .     S
C391   O416    1.295   .     A
C391   O414    1.276   .     A
C393   C430    1.345   .     S
C393   I442    2.147   .     S
C394   H397    1.084   .     S
C394   C624    1.370   1_545 S
C395   H398    1.084   .     S
C395   C496    1.370   .     S
C396   H399    1.084   .     S
C396   C508    1.370   .     S
I403   C430    2.147   .     S
N407   Zn417   2.024   .     S
N408   Zn418   2.024   .     S
O409   Zn417   1.988   .     S
O410   Zn418   1.988   .     S
O411   Zn418   1.999   .     S
O412   Zn417   1.999   .     S
O413   Zn417   1.971   .     S
O414   Zn418   1.971   .     S
O415   Zn418   1.983   .     S
O416   Zn417   1.983   .     S
C419   C422    1.415   .     S
C419   O447    1.285   .     A
C419   O449    1.290   .     A
C420   C422    1.398   .     A
C420   H438    1.084   .     S
C420   C661    1.370   1_545 S
C421   C427    1.415   .     S
C421   C433    1.394   .     A
C421   C434    1.398   .     A
C422   C432    1.394   .     A
C423   N446    1.355   .     A
C423   H439    1.082   .     S
C424   N445    1.355   .     A
C424   H440    1.082   .     S
C424   C768    1.414   .     S
C425   N445    1.384   .     A
C425   I443    2.105   .     S
C425   C765    1.414   .     S
C426   I444    2.105   .     S
C426   N446    1.384   .     A
C427   O448    1.285   .     A
C427   O450    1.290   .     A
C428   O453    1.295   .     A
C428   C430    1.408   .     S
C428   O451    1.276   .     A
C429   C431    1.408   .     S
C429   O454    1.295   .     A
C429   O452    1.276   .     A
C431   C354    1.345   1_655 S
C431   I366    2.147   1_655 S
C432   H435    1.084   .     S
C432   C662    1.370   1_545 S
C433   H436    1.084   .     S
C433   C534    1.370   .     S
C434   H437    1.084   .     S
C434   C546    1.370   .     S
I441   C354    2.147   1_655 S
N445   Zn455   2.024   .     S
N446   Zn456   2.024   .     S
O447   Zn455   1.988   .     S
O448   Zn456   1.988   .     S
O449   Zn456   1.999   .     S
O450   Zn455   1.999   .     S
O451   Zn455   1.971   .     S
O452   Zn456   1.971   .     S
O453   Zn456   1.983   .     S
O454   Zn455   1.983   .     S
C457   C460    1.415   .     S
C457   O485    1.285   .     A
C457   O487    1.290   .     A
C458   C460    1.398   .     A
C458   H476    1.084   .     S
C459   C465    1.415   .     S
C459   C471    1.394   .     A
C459   C472    1.398   .     A
C460   C470    1.394   .     A
C461   N484    1.355   .     A
C461   H477    1.082   .     S
C462   N483    1.355   .     A
C462   H478    1.082   .     S
C462   C806    1.414   .     S
C463   N483    1.384   .     A
C463   I481    2.105   .     S
C463   C803    1.414   .     S
C464   I482    2.105   .     S
C464   N484    1.384   .     A
C465   O486    1.285   .     A
C465   O488    1.290   .     A
C466   O491    1.295   .     A
C466   C468    1.408   .     S
C466   O489    1.276   .     A
C467   C469    1.408   .     S
C467   O492    1.295   .     A
C467   O490    1.276   .     A
C468   C545    1.345   1_455 S
C468   I555    2.147   1_455 S
C469   C506    1.345   .     S
C469   I518    2.147   .     S
C470   H473    1.084   .     S
C471   H474    1.084   .     S
C471   C572    1.370   .     S
C472   H475    1.084   .     S
C472   C584    1.370   .     S
I479   C506    2.147   .     S
I480   C545    2.147   1_455 S
N483   Zn493   2.024   .     S
N484   Zn494   2.024   .     S
O485   Zn493   1.988   .     S
O486   Zn494   1.988   .     S
O487   Zn494   1.999   .     S
O488   Zn493   1.999   .     S
O489   Zn493   1.971   .     S
O490   Zn494   1.971   .     S
O491   Zn494   1.983   .     S
O492   Zn493   1.983   .     S
C495   C498    1.415   .     S
C495   O523    1.285   .     A
C495   O525    1.290   .     A
C496   C498    1.398   .     A
C496   H514    1.084   .     S
C497   C503    1.415   .     S
C497   C509    1.394   .     A
C497   C510    1.398   .     A
C498   C508    1.394   .     A
C499   N522    1.355   .     A
C499   H515    1.082   .     S
C500   N521    1.355   .     A
C500   H516    1.082   .     S
C500   C844    1.414   .     S
C501   N521    1.384   .     A
C501   I519    2.105   .     S
C501   C841    1.414   .     S
C502   I520    2.105   .     S
C502   N522    1.384   .     A
C503   O524    1.285   .     A
C503   O526    1.290   .     A
C504   O529    1.295   .     A
C504   C506    1.408   .     S
C504   O527    1.276   .     A
C505   C507    1.408   .     S
C505   O530    1.295   .     A
C505   O528    1.276   .     A
C507   C544    1.345   .     S
C507   I556    2.147   .     S
C508   H511    1.084   .     S
C509   H512    1.084   .     S
C509   C610    1.370   .     S
C510   H513    1.084   .     S
C510   C622    1.370   .     S
I517   C544    2.147   .     S
N521   Zn531   2.024   .     S
N522   Zn532   2.024   .     S
O523   Zn531   1.988   .     S
O524   Zn532   1.988   .     S
O525   Zn532   1.999   .     S
O526   Zn531   1.999   .     S
O527   Zn531   1.971   .     S
O528   Zn532   1.971   .     S
O529   Zn532   1.983   .     S
O530   Zn531   1.983   .     S
C533   C536    1.415   .     S
C533   O561    1.285   .     A
C533   O563    1.290   .     A
C534   C536    1.398   .     A
C534   H552    1.084   .     S
C535   C541    1.415   .     S
C535   C547    1.394   .     A
C535   C548    1.398   .     A
C536   C546    1.394   .     A
C537   N560    1.355   .     A
C537   H553    1.082   .     S
C538   N559    1.355   .     A
C538   H554    1.082   .     S
C538   C882    1.414   .     S
C539   N559    1.384   .     A
C539   I557    2.105   .     S
C539   C879    1.414   .     S
C540   I558    2.105   .     S
C540   N560    1.384   .     A
C541   O562    1.285   .     A
C541   O564    1.290   .     A
C542   O567    1.295   .     A
C542   C544    1.408   .     S
C542   O565    1.276   .     A
C543   C545    1.408   .     S
C543   O568    1.295   .     A
C543   O566    1.276   .     A
C545   C468    1.345   1_655 S
C545   I480    2.147   1_655 S
C546   H549    1.084   .     S
C547   H550    1.084   .     S
C547   C648    1.370   .     S
C548   H551    1.084   .     S
C548   C660    1.370   .     S
I555   C468    2.147   1_655 S
N559   Zn569   2.024   .     S
N560   Zn570   2.024   .     S
O561   Zn569   1.988   .     S
O562   Zn570   1.988   .     S
O563   Zn570   1.999   .     S
O564   Zn569   1.999   .     S
O565   Zn569   1.971   .     S
O566   Zn570   1.971   .     S
O567   Zn570   1.983   .     S
O568   Zn569   1.983   .     S
C571   C574    1.415   .     S
C571   O599    1.285   .     A
C571   O601    1.290   .     A
C572   C574    1.398   .     A
C572   H590    1.084   .     S
C573   C579    1.415   .     S
C573   C585    1.394   .     A
C573   C586    1.398   .     A
C574   C584    1.394   .     A
C575   N598    1.355   .     A
C575   H591    1.082   .     S
C576   N597    1.355   .     A
C576   H592    1.082   .     S
C576   C920    1.414   .     S
C577   N597    1.384   .     A
C577   I595    2.105   .     S
C577   C917    1.414   .     S
C578   I596    2.105   .     S
C578   N598    1.384   .     A
C579   O600    1.285   .     A
C579   O602    1.290   .     A
C580   O605    1.295   .     A
C580   C582    1.408   .     S
C580   O603    1.276   .     A
C581   C583    1.408   .     S
C581   O606    1.295   .     A
C581   O604    1.276   .     A
C582   C659    1.345   1_455 S
C582   I669    2.147   1_455 S
C583   C620    1.345   .     S
C583   I632    2.147   .     S
C584   H587    1.084   .     S
C585   H588    1.084   .     S
C585   C344    1.370   1_565 S
C586   H589    1.084   .     S
C586   C356    1.370   1_565 S
I593   C620    2.147   .     S
I594   C659    2.147   1_455 S
N597   Zn607   2.024   .     S
N598   Zn608   2.024   .     S
O599   Zn607   1.988   .     S
O600   Zn608   1.988   .     S
O601   Zn608   1.999   .     S
O602   Zn607   1.999   .     S
O603   Zn607   1.971   .     S
O604   Zn608   1.971   .     S
O605   Zn608   1.983   .     S
O606   Zn607   1.983   .     S
C609   C612    1.415   .     S
C609   O637    1.285   .     A
C609   O639    1.290   .     A
C610   C612    1.398   .     A
C610   H628    1.084   .     S
C611   C617    1.415   .     S
C611   C623    1.394   .     A
C611   C624    1.398   .     A
C612   C622    1.394   .     A
C613   N636    1.355   .     A
C613   H629    1.082   .     S
C614   N635    1.355   .     A
C614   H630    1.082   .     S
C614   C958    1.414   .     S
C615   N635    1.384   .     A
C615   I633    2.105   .     S
C615   C955    1.414   .     S
C616   I634    2.105   .     S
C616   N636    1.384   .     A
C617   O638    1.285   .     A
C617   O640    1.290   .     A
C618   O643    1.295   .     A
C618   C620    1.408   .     S
C618   O641    1.276   .     A
C619   C621    1.408   .     S
C619   O644    1.295   .     A
C619   O642    1.276   .     A
C621   C658    1.345   .     S
C621   I670    2.147   .     S
C622   H625    1.084   .     S
C623   H626    1.084   .     S
C623   C382    1.370   1_565 S
C624   H627    1.084   .     S
C624   C394    1.370   1_565 S
I631   C658    2.147   .     S
N635   Zn645   2.024   .     S
N636   Zn646   2.024   .     S
O637   Zn645   1.988   .     S
O638   Zn646   1.988   .     S
O639   Zn646   1.999   .     S
O640   Zn645   1.999   .     S
O641   Zn645   1.971   .     S
O642   Zn646   1.971   .     S
O643   Zn646   1.983   .     S
O644   Zn645   1.983   .     S
C647   C650    1.415   .     S
C647   O675    1.285   .     A
C647   O677    1.290   .     A
C648   C650    1.398   .     A
C648   H666    1.084   .     S
C649   C655    1.415   .     S
C649   C661    1.394   .     A
C649   C662    1.398   .     A
C650   C660    1.394   .     A
C651   N674    1.355   .     A
C651   H667    1.082   .     S
C652   N673    1.355   .     A
C652   H668    1.082   .     S
C652   C996    1.414   .     S
C653   N673    1.384   .     A
C653   I671    2.105   .     S
C653   C993    1.414   .     S
C654   I672    2.105   .     S
C654   N674    1.384   .     A
C655   O676    1.285   .     A
C655   O678    1.290   .     A
C656   O681    1.295   .     A
C656   C658    1.408   .     S
C656   O679    1.276   .     A
C657   C659    1.408   .     S
C657   O682    1.295   .     A
C657   O680    1.276   .     A
C659   C582    1.345   1_655 S
C659   I594    2.147   1_655 S
C660   H663    1.084   .     S
C661   H664    1.084   .     S
C661   C420    1.370   1_565 S
C662   H665    1.084   .     S
C662   C432    1.370   1_565 S
I669   C582    2.147   1_655 S
N673   Zn683   2.024   .     S
N674   Zn684   2.024   .     S
O675   Zn683   1.988   .     S
O676   Zn684   1.988   .     S
O677   Zn684   1.999   .     S
O678   Zn683   1.999   .     S
O679   Zn683   1.971   .     S
O680   Zn684   1.971   .     S
O681   Zn684   1.983   .     S
O682   Zn683   1.983   .     S
C685   C688    1.415   .     S
C685   O713    1.285   .     A
C685   O715    1.290   .     A
C686   C688    1.398   .     A
C686   H704    1.084   .     S
C686   C927    1.370   1_545 S
C687   C693    1.415   .     S
C687   C699    1.394   .     A
C687   C700    1.398   .     A
C688   C698    1.394   .     A
C689   N712    1.355   .     A
C689   H705    1.082   .     S
C690   N711    1.355   .     A
C690   H706    1.082   .     S
C690   C8      1.414   1_556 S
C691   N711    1.384   .     A
C691   I709    2.105   .     S
C691   C5      1.414   1_556 S
C692   I710    2.105   .     S
C692   N712    1.384   .     A
C693   O714    1.285   .     A
C693   O716    1.290   .     A
C694   O719    1.295   .     A
C694   C696    1.408   .     S
C694   O717    1.276   .     A
C695   C697    1.408   .     S
C695   O720    1.295   .     A
C695   O718    1.276   .     A
C696   C773    1.345   1_455 S
C696   I783    2.147   1_455 S
C697   C734    1.345   .     S
C697   I746    2.147   .     S
C698   H701    1.084   .     S
C698   C928    1.370   1_545 S
C699   H702    1.084   .     S
C699   C800    1.370   .     S
C700   H703    1.084   .     S
C700   C812    1.370   .     S
I707   C734    2.147   .     S
I708   C773    2.147   1_455 S
N711   Zn721   2.024   .     S
N712   Zn722   2.024   .     S
O713   Zn721   1.988   .     S
O714   Zn722   1.988   .     S
O715   Zn722   1.999   .     S
O716   Zn721   1.999   .     S
O717   Zn721   1.971   .     S
O718   Zn722   1.971   .     S
O719   Zn722   1.983   .     S
O720   Zn721   1.983   .     S
C723   C726    1.415   .     S
C723   O751    1.285   .     A
C723   O753    1.290   .     A
C724   C726    1.398   .     A
C724   H742    1.084   .     S
C724   C965    1.370   1_545 S
C725   C731    1.415   .     S
C725   C737    1.394   .     A
C725   C738    1.398   .     A
C726   C736    1.394   .     A
C727   N750    1.355   .     A
C727   H743    1.082   .     S
C728   N749    1.355   .     A
C728   H744    1.082   .     S
C728   C46     1.414   1_556 S
C729   N749    1.384   .     A
C729   I747    2.105   .     S
C729   C43     1.414   1_556 S
C730   I748    2.105   .     S
C730   N750    1.384   .     A
C731   O752    1.285   .     A
C731   O754    1.290   .     A
C732   O757    1.295   .     A
C732   C734    1.408   .     S
C732   O755    1.276   .     A
C733   C735    1.408   .     S
C733   O758    1.295   .     A
C733   O756    1.276   .     A
C735   C772    1.345   .     S
C735   I784    2.147   .     S
C736   H739    1.084   .     S
C736   C966    1.370   1_545 S
C737   H740    1.084   .     S
C737   C838    1.370   .     S
C738   H741    1.084   .     S
C738   C850    1.370   .     S
I745   C772    2.147   .     S
N749   Zn759   2.024   .     S
N750   Zn760   2.024   .     S
O751   Zn759   1.988   .     S
O752   Zn760   1.988   .     S
O753   Zn760   1.999   .     S
O754   Zn759   1.999   .     S
O755   Zn759   1.971   .     S
O756   Zn760   1.971   .     S
O757   Zn760   1.983   .     S
O758   Zn759   1.983   .     S
C761   C764    1.415   .     S
C761   O789    1.285   .     A
C761   O791    1.290   .     A
C762   C764    1.398   .     A
C762   H780    1.084   .     S
C762   C1003   1.370   1_545 S
C763   C769    1.415   .     S
C763   C775    1.394   .     A
C763   C776    1.398   .     A
C764   C774    1.394   .     A
C765   N788    1.355   .     A
C765   H781    1.082   .     S
C766   N787    1.355   .     A
C766   H782    1.082   .     S
C766   C84     1.414   1_556 S
C767   N787    1.384   .     A
C767   I785    2.105   .     S
C767   C81     1.414   1_556 S
C768   I786    2.105   .     S
C768   N788    1.384   .     A
C769   O790    1.285   .     A
C769   O792    1.290   .     A
C770   O795    1.295   .     A
C770   C772    1.408   .     S
C770   O793    1.276   .     A
C771   C773    1.408   .     S
C771   O796    1.295   .     A
C771   O794    1.276   .     A
C773   C696    1.345   1_655 S
C773   I708    2.147   1_655 S
C774   H777    1.084   .     S
C774   C1004   1.370   1_545 S
C775   H778    1.084   .     S
C775   C876    1.370   .     S
C776   H779    1.084   .     S
C776   C888    1.370   .     S
I783   C696    2.147   1_655 S
N787   Zn797   2.024   .     S
N788   Zn798   2.024   .     S
O789   Zn797   1.988   .     S
O790   Zn798   1.988   .     S
O791   Zn798   1.999   .     S
O792   Zn797   1.999   .     S
O793   Zn797   1.971   .     S
O794   Zn798   1.971   .     S
O795   Zn798   1.983   .     S
O796   Zn797   1.983   .     S
C799   C802    1.415   .     S
C799   O827    1.285   .     A
C799   O829    1.290   .     A
C800   C802    1.398   .     A
C800   H818    1.084   .     S
C801   C807    1.415   .     S
C801   C813    1.394   .     A
C801   C814    1.398   .     A
C802   C812    1.394   .     A
C803   N826    1.355   .     A
C803   H819    1.082   .     S
C804   N825    1.355   .     A
C804   H820    1.082   .     S
C804   C122    1.414   1_556 S
C805   N825    1.384   .     A
C805   I823    2.105   .     S
C805   C119    1.414   1_556 S
C806   I824    2.105   .     S
C806   N826    1.384   .     A
C807   O828    1.285   .     A
C807   O830    1.290   .     A
C808   O833    1.295   .     A
C808   C810    1.408   .     S
C808   O831    1.276   .     A
C809   C811    1.408   .     S
C809   O834    1.295   .     A
C809   O832    1.276   .     A
C810   C887    1.345   1_455 S
C810   I897    2.147   1_455 S
C811   C848    1.345   .     S
C811   I860    2.147   .     S
C812   H815    1.084   .     S
C813   H816    1.084   .     S
C813   C914    1.370   .     S
C814   H817    1.084   .     S
C814   C926    1.370   .     S
I821   C848    2.147   .     S
I822   C887    2.147   1_455 S
N825   Zn835   2.024   .     S
N826   Zn836   2.024   .     S
O827   Zn835   1.988   .     S
O828   Zn836   1.988   .     S
O829   Zn836   1.999   .     S
O830   Zn835   1.999   .     S
O831   Zn835   1.971   .     S
O832   Zn836   1.971   .     S
O833   Zn836   1.983   .     S
O834   Zn835   1.983   .     S
C837   C840    1.415   .     S
C837   O865    1.285   .     A
C837   O867    1.290   .     A
C838   C840    1.398   .     A
C838   H856    1.084   .     S
C839   C845    1.415   .     S
C839   C851    1.394   .     A
C839   C852    1.398   .     A
C840   C850    1.394   .     A
C841   N864    1.355   .     A
C841   H857    1.082   .     S
C842   N863    1.355   .     A
C842   H858    1.082   .     S
C842   C160    1.414   1_556 S
C843   N863    1.384   .     A
C843   I861    2.105   .     S
C843   C157    1.414   1_556 S
C844   I862    2.105   .     S
C844   N864    1.384   .     A
C845   O866    1.285   .     A
C845   O868    1.290   .     A
C846   O871    1.295   .     A
C846   C848    1.408   .     S
C846   O869    1.276   .     A
C847   C849    1.408   .     S
C847   O872    1.295   .     A
C847   O870    1.276   .     A
C849   C886    1.345   .     S
C849   I898    2.147   .     S
C850   H853    1.084   .     S
C851   H854    1.084   .     S
C851   C952    1.370   .     S
C852   H855    1.084   .     S
C852   C964    1.370   .     S
I859   C886    2.147   .     S
N863   Zn873   2.024   .     S
N864   Zn874   2.024   .     S
O865   Zn873   1.988   .     S
O866   Zn874   1.988   .     S
O867   Zn874   1.999   .     S
O868   Zn873   1.999   .     S
O869   Zn873   1.971   .     S
O870   Zn874   1.971   .     S
O871   Zn874   1.983   .     S
O872   Zn873   1.983   .     S
C875   C878    1.415   .     S
C875   O903    1.285   .     A
C875   O905    1.290   .     A
C876   C878    1.398   .     A
C876   H894    1.084   .     S
C877   C883    1.415   .     S
C877   C889    1.394   .     A
C877   C890    1.398   .     A
C878   C888    1.394   .     A
C879   N902    1.355   .     A
C879   H895    1.082   .     S
C880   N901    1.355   .     A
C880   H896    1.082   .     S
C880   C198    1.414   1_556 S
C881   N901    1.384   .     A
C881   I899    2.105   .     S
C881   C195    1.414   1_556 S
C882   I900    2.105   .     S
C882   N902    1.384   .     A
C883   O904    1.285   .     A
C883   O906    1.290   .     A
C884   O909    1.295   .     A
C884   C886    1.408   .     S
C884   O907    1.276   .     A
C885   C887    1.408   .     S
C885   O910    1.295   .     A
C885   O908    1.276   .     A
C887   C810    1.345   1_655 S
C887   I822    2.147   1_655 S
C888   H891    1.084   .     S
C889   H892    1.084   .     S
C889   C990    1.370   .     S
C890   H893    1.084   .     S
C890   C1002   1.370   .     S
I897   C810    2.147   1_655 S
N901   Zn911   2.024   .     S
N902   Zn912   2.024   .     S
O903   Zn911   1.988   .     S
O904   Zn912   1.988   .     S
O905   Zn912   1.999   .     S
O906   Zn911   1.999   .     S
O907   Zn911   1.971   .     S
O908   Zn912   1.971   .     S
O909   Zn912   1.983   .     S
O910   Zn911   1.983   .     S
C913   C916    1.415   .     S
C913   O941    1.285   .     A
C913   O943    1.290   .     A
C914   C916    1.398   .     A
C914   H932    1.084   .     S
C915   C921    1.415   .     S
C915   C927    1.394   .     A
C915   C928    1.398   .     A
C916   C926    1.394   .     A
C917   N940    1.355   .     A
C917   H933    1.082   .     S
C918   N939    1.355   .     A
C918   H934    1.082   .     S
C918   C236    1.414   1_556 S
C919   N939    1.384   .     A
C919   I937    2.105   .     S
C919   C233    1.414   1_556 S
C920   I938    2.105   .     S
C920   N940    1.384   .     A
C921   O942    1.285   .     A
C921   O944    1.290   .     A
C922   O947    1.295   .     A
C922   C924    1.408   .     S
C922   O945    1.276   .     A
C923   C925    1.408   .     S
C923   O948    1.295   .     A
C923   O946    1.276   .     A
C924   C1001   1.345   1_455 S
C924   I1011   2.147   1_455 S
C925   C962    1.345   .     S
C925   I974    2.147   .     S
C926   H929    1.084   .     S
C927   H930    1.084   .     S
C927   C686    1.370   1_565 S
C928   H931    1.084   .     S
C928   C698    1.370   1_565 S
I935   C962    2.147   .     S
I936   C1001   2.147   1_455 S
N939   Zn949   2.024   .     S
N940   Zn950   2.024   .     S
O941   Zn949   1.988   .     S
O942   Zn950   1.988   .     S
O943   Zn950   1.999   .     S
O944   Zn949   1.999   .     S
O945   Zn949   1.971   .     S
O946   Zn950   1.971   .     S
O947   Zn950   1.983   .     S
O948   Zn949   1.983   .     S
C951   C954    1.415   .     S
C951   O979    1.285   .     A
C951   O981    1.290   .     A
C952   C954    1.398   .     A
C952   H970    1.084   .     S
C953   C959    1.415   .     S
C953   C965    1.394   .     A
C953   C966    1.398   .     A
C954   C964    1.394   .     A
C955   N978    1.355   .     A
C955   H971    1.082   .     S
C956   N977    1.355   .     A
C956   H972    1.082   .     S
C956   C274    1.414   1_556 S
C957   N977    1.384   .     A
C957   I975    2.105   .     S
C957   C271    1.414   1_556 S
C958   I976    2.105   .     S
C958   N978    1.384   .     A
C959   O980    1.285   .     A
C959   O982    1.290   .     A
C960   O985    1.295   .     A
C960   C962    1.408   .     S
C960   O983    1.276   .     A
C961   C963    1.408   .     S
C961   O986    1.295   .     A
C961   O984    1.276   .     A
C963   C1000   1.345   .     S
C963   I1012   2.147   .     S
C964   H967    1.084   .     S
C965   H968    1.084   .     S
C965   C724    1.370   1_565 S
C966   H969    1.084   .     S
C966   C736    1.370   1_565 S
I973   C1000   2.147   .     S
N977   Zn987   2.024   .     S
N978   Zn988   2.024   .     S
O979   Zn987   1.988   .     S
O980   Zn988   1.988   .     S
O981   Zn988   1.999   .     S
O982   Zn987   1.999   .     S
O983   Zn987   1.971   .     S
O984   Zn988   1.971   .     S
O985   Zn988   1.983   .     S
O986   Zn987   1.983   .     S
C989   C992    1.415   .     S
C989   O1017   1.285   .     A
C989   O1019   1.290   .     A
C990   C992    1.398   .     A
C990   H1008   1.084   .     S
C991   C997    1.415   .     S
C991   C1003   1.394   .     A
C991   C1004   1.398   .     A
C992   C1002   1.394   .     A
C993   N1016   1.355   .     A
C993   H1009   1.082   .     S
C994   N1015   1.355   .     A
C994   H1010   1.082   .     S
C994   C312    1.414   1_556 S
C995   N1015   1.384   .     A
C995   I1013   2.105   .     S
C995   C309    1.414   1_556 S
C996   I1014   2.105   .     S
C996   N1016   1.384   .     A
C997   O1018   1.285   .     A
C997   O1020   1.290   .     A
C998   O1023   1.295   .     A
C998   C1000   1.408   .     S
C998   O1021   1.276   .     A
C999   C1001   1.408   .     S
C999   O1024   1.295   .     A
C999   O1022   1.276   .     A
C1001  C924    1.345   1_655 S
C1001  I936    2.147   1_655 S
C1002  H1005   1.084   .     S
C1003  H1006   1.084   .     S
C1003  C762    1.370   1_565 S
C1004  H1007   1.084   .     S
C1004  C774    1.370   1_565 S
I1011  C924    2.147   1_655 S
N1015  Zn1025  2.024   .     S
N1016  Zn1026  2.024   .     S
O1017  Zn1025  1.988   .     S
O1018  Zn1026  1.988   .     S
O1019  Zn1026  1.999   .     S
O1020  Zn1025  1.999   .     S
O1021  Zn1025  1.971   .     S
O1022  Zn1026  1.971   .     S
O1023  Zn1026  1.983   .     S
O1024  Zn1025  1.983   .     S
