data_str_m3_o2_o5_pcu_sym.118
_audit_creation_date              2020-01-03
_audit_creation_method            'Materials Studio'
_symmetry_space_group_name_H-M    'P1'
_symmetry_Int_Tables_number       1
_symmetry_cell_setting            triclinic
loop_
_symmetry_equiv_pos_as_xyz
  x,y,z
_cell_length_a                    29.9157
_cell_length_b                    28.3371
_cell_length_c                    26.6850
_cell_angle_alpha                 89.9162
_cell_angle_beta                  90.1670
_cell_angle_gamma                 90.1605
loop_
_atom_site_label
_atom_site_type_symbol
_atom_site_fract_x
_atom_site_fract_y
_atom_site_fract_z
_atom_site_U_iso_or_equiv
_atom_site_adp_type
_atom_site_occupancy
C1     C     0.16395   0.24994   0.16645   0.00000  Uiso   1.00
C2     C     0.33620   0.25000   0.16643   0.00000  Uiso   1.00
C3     C     0.25477   0.10224   0.12280   0.00000  Uiso   1.00
C4     C     0.28125   0.39791   0.19378   0.00000  Uiso   1.00
C5     C     0.24500   0.10216   0.21056   0.00000  Uiso   1.00
C6     C     0.21861   0.39761   0.13967   0.00000  Uiso   1.00
C7     C     0.25580   0.05217   0.12172   0.00000  Uiso   1.00
C8     C     0.28239   0.44773   0.19382   0.00000  Uiso   1.00
C9     C     0.24345   0.05210   0.21167   0.00000  Uiso   1.00
C10    C     0.21719   0.44742   0.13977   0.00000  Uiso   1.00
C11    C     0.24986   0.25002   0.07285   0.00000  Uiso   1.00
C12    C     0.24987   0.24997   0.26048   0.00000  Uiso   1.00
C13    C     0.24950   0.02669   0.16670   0.00000  Uiso   1.00
C14    C     0.24974   0.47335   0.16672   0.00000  Uiso   1.00
C15    C     0.24972   0.25001   0.02179   0.00000  Uiso   1.00
C16    C     0.24972   0.24995   0.31154   0.00000  Uiso   1.00
C17    C     0.04614   0.28142   0.19373   0.00000  Uiso   1.00
C18    C     0.45430   0.21457   0.18935   0.00000  Uiso   1.00
C19    C     0.45333   0.28361   0.13520   0.00000  Uiso   1.00
C20    C     0.04732   0.21855   0.13168   0.00000  Uiso   1.00
C21    C     0.09238   0.28086   0.19634   0.00000  Uiso   1.00
C22    C     0.40790   0.21386   0.19026   0.00000  Uiso   1.00
C23    C     0.40694   0.28479   0.13721   0.00000  Uiso   1.00
C24    C     0.09364   0.21904   0.13210   0.00000  Uiso   1.00
C25    C     0.11605   0.24984   0.16508   0.00000  Uiso   1.00
C26    C     0.38435   0.24974   0.16488   0.00000  Uiso   1.00
C27    C     0.02412   0.24995   0.16204   0.00000  Uiso   1.00
C28    C     0.47639   0.24912   0.16177   0.00000  Uiso   1.00
H29    H     0.02742   0.30550   0.21715   0.00000  Uiso   1.00
H30    H     0.47315   0.18878   0.21067   0.00000  Uiso   1.00
H31    H     0.47142   0.30930   0.11292   0.00000  Uiso   1.00
H32    H     0.02952   0.19423   0.10741   0.00000  Uiso   1.00
N33    N     0.25000   0.12624   0.16667   0.00000  Uiso   1.00
N34    N     0.25000   0.37377   0.16667   0.00000  Uiso   1.00
O35    O     0.18453   0.28974   0.16667   0.00000  Uiso   1.00
O36    O     0.31547   0.21026   0.16666   0.00000  Uiso   1.00
O37    O     0.31547   0.28974   0.16666   0.00000  Uiso   1.00
O38    O     0.18453   0.21026   0.16667   0.00000  Uiso   1.00
O39    O     0.25000   0.28973   0.09511   0.00000  Uiso   1.00
O40    O     0.25000   0.21027   0.23822   0.00000  Uiso   1.00
O41    O     0.25000   0.28973   0.23822   0.00000  Uiso   1.00
O42    O     0.25000   0.21027   0.09511   0.00000  Uiso   1.00
Zn43   Zn    0.25000   0.30307   0.16667   0.00000  Uiso   1.00
Zn44   Zn    0.25000   0.19693   0.16667   0.00000  Uiso   1.00
H45    H     0.25768   0.12203   0.08838   0.00000  Uiso   1.00
H46    H     0.30569   0.37846   0.21541   0.00000  Uiso   1.00
H47    H     0.24226   0.12189   0.24495   0.00000  Uiso   1.00
H48    H     0.19410   0.37794   0.11826   0.00000  Uiso   1.00
O49    O     0.11433   0.31160   0.22829   0.00000  Uiso   1.00
C50    C     0.11872   0.28958   0.27547   0.00000  Uiso   1.00
H51    H     0.13715   0.31374   0.30092   0.00000  Uiso   1.00
H52    H     0.13836   0.25635   0.27290   0.00000  Uiso   1.00
H53    H     0.08546   0.28247   0.29253   0.00000  Uiso   1.00
O54    O     0.38551   0.18145   0.22002   0.00000  Uiso   1.00
C55    C     0.38934   0.13613   0.19858   0.00000  Uiso   1.00
H56    H     0.37879   0.13595   0.15850   0.00000  Uiso   1.00
H57    H     0.42391   0.12232   0.20247   0.00000  Uiso   1.00
H58    H     0.36677   0.11167   0.21899   0.00000  Uiso   1.00
O59    O     0.38327   0.31680   0.10825   0.00000  Uiso   1.00
C60    C     0.38985   0.36264   0.12747   0.00000  Uiso   1.00
H61    H     0.38382   0.36409   0.16862   0.00000  Uiso   1.00
H62    H     0.42388   0.37599   0.11857   0.00000  Uiso   1.00
H63    H     0.36545   0.38664   0.10928   0.00000  Uiso   1.00
O64    O     0.11687   0.18829   0.10162   0.00000  Uiso   1.00
C65    C     0.12284   0.20993   0.05449   0.00000  Uiso   1.00
H66    H     0.09021   0.21603   0.03545   0.00000  Uiso   1.00
H67    H     0.14179   0.24368   0.05777   0.00000  Uiso   1.00
H68    H     0.14270   0.18598   0.03045   0.00000  Uiso   1.00
O69    O     0.26015   0.02726   0.07718   0.00000  Uiso   1.00
C70    C     0.29692   0.04385   0.04911   0.00000  Uiso   1.00
H71    H     0.32680   0.05102   0.07300   0.00000  Uiso   1.00
H72    H     0.28761   0.07565   0.02712   0.00000  Uiso   1.00
H73    H     0.30642   0.01613   0.02185   0.00000  Uiso   1.00
O74    O     0.31374   0.47087   0.22299   0.00000  Uiso   1.00
C75    C     0.35093   0.48204   0.19289   0.00000  Uiso   1.00
H76    H     0.34154   0.00487   0.16059   0.00000  Uiso   1.00
H77    H     0.36777   0.44957   0.17949   0.00000  Uiso   1.00
H78    H     0.37540   0.00201   0.21593   0.00000  Uiso   1.00
O79    O     0.23897   0.02713   0.25625   0.00000  Uiso   1.00
C80    C     0.20225   0.04367   0.28423   0.00000  Uiso   1.00
H81    H     0.17240   0.05069   0.26030   0.00000  Uiso   1.00
H82    H     0.21164   0.07555   0.30605   0.00000  Uiso   1.00
H83    H     0.19269   0.01598   0.31164   0.00000  Uiso   1.00
O84    O     0.18476   0.47050   0.11222   0.00000  Uiso   1.00
C85    C     0.14605   0.47414   0.14193   0.00000  Uiso   1.00
H86    H     0.15274   0.49445   0.17688   0.00000  Uiso   1.00
H87    H     0.13215   0.43869   0.15113   0.00000  Uiso   1.00
H88    H     0.12023   0.49355   0.12034   0.00000  Uiso   1.00
C89    C     0.66395   0.24994   0.16645   0.00000  Uiso   1.00
C90    C     0.83620   0.25000   0.16643   0.00000  Uiso   1.00
C91    C     0.75477   0.10224   0.12280   0.00000  Uiso   1.00
C92    C     0.78125   0.39791   0.19378   0.00000  Uiso   1.00
C93    C     0.74500   0.10216   0.21056   0.00000  Uiso   1.00
C94    C     0.71861   0.39761   0.13967   0.00000  Uiso   1.00
C95    C     0.75580   0.05217   0.12172   0.00000  Uiso   1.00
C96    C     0.78239   0.44773   0.19382   0.00000  Uiso   1.00
C97    C     0.74345   0.05210   0.21167   0.00000  Uiso   1.00
C98    C     0.71719   0.44742   0.13977   0.00000  Uiso   1.00
C99    C     0.74986   0.25002   0.07285   0.00000  Uiso   1.00
C100   C     0.74987   0.24997   0.26048   0.00000  Uiso   1.00
C101   C     0.74950   0.02669   0.16670   0.00000  Uiso   1.00
C102   C     0.74974   0.47335   0.16672   0.00000  Uiso   1.00
C103   C     0.74972   0.25001   0.02179   0.00000  Uiso   1.00
C104   C     0.74972   0.24995   0.31154   0.00000  Uiso   1.00
C105   C     0.54614   0.28142   0.19373   0.00000  Uiso   1.00
C106   C     0.95430   0.21457   0.18935   0.00000  Uiso   1.00
C107   C     0.95333   0.28361   0.13520   0.00000  Uiso   1.00
C108   C     0.54732   0.21855   0.13168   0.00000  Uiso   1.00
C109   C     0.59238   0.28086   0.19634   0.00000  Uiso   1.00
C110   C     0.90790   0.21386   0.19026   0.00000  Uiso   1.00
C111   C     0.90694   0.28479   0.13721   0.00000  Uiso   1.00
C112   C     0.59364   0.21904   0.13210   0.00000  Uiso   1.00
C113   C     0.61605   0.24984   0.16508   0.00000  Uiso   1.00
C114   C     0.88435   0.24974   0.16488   0.00000  Uiso   1.00
C115   C     0.52412   0.24995   0.16204   0.00000  Uiso   1.00
C116   C     0.97639   0.24912   0.16177   0.00000  Uiso   1.00
H117   H     0.52742   0.30550   0.21715   0.00000  Uiso   1.00
H118   H     0.97315   0.18878   0.21067   0.00000  Uiso   1.00
H119   H     0.97142   0.30930   0.11292   0.00000  Uiso   1.00
H120   H     0.52952   0.19423   0.10741   0.00000  Uiso   1.00
N121   N     0.75000   0.12624   0.16667   0.00000  Uiso   1.00
N122   N     0.75000   0.37377   0.16667   0.00000  Uiso   1.00
O123   O     0.68453   0.28974   0.16667   0.00000  Uiso   1.00
O124   O     0.81547   0.21026   0.16666   0.00000  Uiso   1.00
O125   O     0.81547   0.28974   0.16666   0.00000  Uiso   1.00
O126   O     0.68453   0.21026   0.16667   0.00000  Uiso   1.00
O127   O     0.75000   0.28973   0.09511   0.00000  Uiso   1.00
O128   O     0.75000   0.21027   0.23822   0.00000  Uiso   1.00
O129   O     0.75000   0.28973   0.23822   0.00000  Uiso   1.00
O130   O     0.75000   0.21027   0.09511   0.00000  Uiso   1.00
Zn131  Zn    0.75000   0.30307   0.16667   0.00000  Uiso   1.00
Zn132  Zn    0.75000   0.19693   0.16667   0.00000  Uiso   1.00
H133   H     0.75768   0.12203   0.08838   0.00000  Uiso   1.00
H134   H     0.80569   0.37846   0.21541   0.00000  Uiso   1.00
H135   H     0.74226   0.12189   0.24495   0.00000  Uiso   1.00
H136   H     0.69410   0.37794   0.11826   0.00000  Uiso   1.00
O137   O     0.61433   0.31160   0.22829   0.00000  Uiso   1.00
C138   C     0.61872   0.28958   0.27547   0.00000  Uiso   1.00
H139   H     0.63715   0.31374   0.30092   0.00000  Uiso   1.00
H140   H     0.63836   0.25635   0.27290   0.00000  Uiso   1.00
H141   H     0.58546   0.28247   0.29253   0.00000  Uiso   1.00
O142   O     0.88551   0.18145   0.22002   0.00000  Uiso   1.00
C143   C     0.88934   0.13613   0.19858   0.00000  Uiso   1.00
H144   H     0.87879   0.13595   0.15850   0.00000  Uiso   1.00
H145   H     0.92391   0.12232   0.20247   0.00000  Uiso   1.00
H146   H     0.86677   0.11167   0.21899   0.00000  Uiso   1.00
O147   O     0.88327   0.31680   0.10825   0.00000  Uiso   1.00
C148   C     0.88985   0.36264   0.12747   0.00000  Uiso   1.00
H149   H     0.88382   0.36409   0.16862   0.00000  Uiso   1.00
H150   H     0.92388   0.37599   0.11857   0.00000  Uiso   1.00
H151   H     0.86545   0.38664   0.10928   0.00000  Uiso   1.00
O152   O     0.61687   0.18829   0.10162   0.00000  Uiso   1.00
C153   C     0.62284   0.20993   0.05449   0.00000  Uiso   1.00
H154   H     0.59021   0.21603   0.03545   0.00000  Uiso   1.00
H155   H     0.64179   0.24368   0.05777   0.00000  Uiso   1.00
H156   H     0.64270   0.18598   0.03045   0.00000  Uiso   1.00
O157   O     0.76015   0.02726   0.07718   0.00000  Uiso   1.00
C158   C     0.79692   0.04385   0.04911   0.00000  Uiso   1.00
H159   H     0.82680   0.05102   0.07300   0.00000  Uiso   1.00
H160   H     0.78761   0.07565   0.02712   0.00000  Uiso   1.00
H161   H     0.80642   0.01613   0.02185   0.00000  Uiso   1.00
O162   O     0.81374   0.47087   0.22299   0.00000  Uiso   1.00
C163   C     0.85093   0.48204   0.19289   0.00000  Uiso   1.00
H164   H     0.84154   0.00487   0.16059   0.00000  Uiso   1.00
H165   H     0.86777   0.44957   0.17949   0.00000  Uiso   1.00
H166   H     0.87540   0.00201   0.21593   0.00000  Uiso   1.00
O167   O     0.73897   0.02713   0.25625   0.00000  Uiso   1.00
C168   C     0.70225   0.04367   0.28423   0.00000  Uiso   1.00
H169   H     0.67240   0.05069   0.26030   0.00000  Uiso   1.00
H170   H     0.71164   0.07555   0.30605   0.00000  Uiso   1.00
H171   H     0.69269   0.01598   0.31164   0.00000  Uiso   1.00
O172   O     0.68476   0.47050   0.11222   0.00000  Uiso   1.00
C173   C     0.64605   0.47414   0.14193   0.00000  Uiso   1.00
H174   H     0.65274   0.49445   0.17688   0.00000  Uiso   1.00
H175   H     0.63215   0.43869   0.15113   0.00000  Uiso   1.00
H176   H     0.62023   0.49355   0.12034   0.00000  Uiso   1.00
C177   C     0.16395   0.74994   0.16645   0.00000  Uiso   1.00
C178   C     0.33620   0.75000   0.16643   0.00000  Uiso   1.00
C179   C     0.25477   0.60224   0.12280   0.00000  Uiso   1.00
C180   C     0.28125   0.89791   0.19378   0.00000  Uiso   1.00
C181   C     0.24500   0.60216   0.21056   0.00000  Uiso   1.00
C182   C     0.21861   0.89761   0.13967   0.00000  Uiso   1.00
C183   C     0.25580   0.55217   0.12172   0.00000  Uiso   1.00
C184   C     0.28239   0.94773   0.19382   0.00000  Uiso   1.00
C185   C     0.24345   0.55210   0.21167   0.00000  Uiso   1.00
C186   C     0.21719   0.94742   0.13977   0.00000  Uiso   1.00
C187   C     0.24986   0.75002   0.07285   0.00000  Uiso   1.00
C188   C     0.24987   0.74997   0.26048   0.00000  Uiso   1.00
C189   C     0.24950   0.52669   0.16670   0.00000  Uiso   1.00
C190   C     0.24974   0.97335   0.16672   0.00000  Uiso   1.00
C191   C     0.24972   0.75001   0.02179   0.00000  Uiso   1.00
C192   C     0.24972   0.74995   0.31154   0.00000  Uiso   1.00
C193   C     0.04614   0.78142   0.19373   0.00000  Uiso   1.00
C194   C     0.45430   0.71457   0.18935   0.00000  Uiso   1.00
C195   C     0.45333   0.78361   0.13520   0.00000  Uiso   1.00
C196   C     0.04732   0.71855   0.13168   0.00000  Uiso   1.00
C197   C     0.09238   0.78086   0.19634   0.00000  Uiso   1.00
C198   C     0.40790   0.71386   0.19026   0.00000  Uiso   1.00
C199   C     0.40694   0.78479   0.13721   0.00000  Uiso   1.00
C200   C     0.09364   0.71904   0.13210   0.00000  Uiso   1.00
C201   C     0.11605   0.74984   0.16508   0.00000  Uiso   1.00
C202   C     0.38435   0.74974   0.16488   0.00000  Uiso   1.00
C203   C     0.02412   0.74995   0.16204   0.00000  Uiso   1.00
C204   C     0.47639   0.74912   0.16177   0.00000  Uiso   1.00
H205   H     0.02742   0.80550   0.21715   0.00000  Uiso   1.00
H206   H     0.47315   0.68878   0.21067   0.00000  Uiso   1.00
H207   H     0.47142   0.80930   0.11292   0.00000  Uiso   1.00
H208   H     0.02952   0.69423   0.10741   0.00000  Uiso   1.00
N209   N     0.25000   0.62624   0.16667   0.00000  Uiso   1.00
N210   N     0.25000   0.87377   0.16667   0.00000  Uiso   1.00
O211   O     0.18453   0.78974   0.16667   0.00000  Uiso   1.00
O212   O     0.31547   0.71026   0.16666   0.00000  Uiso   1.00
O213   O     0.31547   0.78974   0.16666   0.00000  Uiso   1.00
O214   O     0.18453   0.71026   0.16667   0.00000  Uiso   1.00
O215   O     0.25000   0.78973   0.09511   0.00000  Uiso   1.00
O216   O     0.25000   0.71027   0.23822   0.00000  Uiso   1.00
O217   O     0.25000   0.78973   0.23822   0.00000  Uiso   1.00
O218   O     0.25000   0.71027   0.09511   0.00000  Uiso   1.00
Zn219  Zn    0.25000   0.80307   0.16667   0.00000  Uiso   1.00
Zn220  Zn    0.25000   0.69693   0.16667   0.00000  Uiso   1.00
H221   H     0.25768   0.62203   0.08838   0.00000  Uiso   1.00
H222   H     0.30569   0.87846   0.21541   0.00000  Uiso   1.00
H223   H     0.24226   0.62189   0.24495   0.00000  Uiso   1.00
H224   H     0.19410   0.87794   0.11826   0.00000  Uiso   1.00
O225   O     0.11433   0.81160   0.22829   0.00000  Uiso   1.00
C226   C     0.11872   0.78958   0.27547   0.00000  Uiso   1.00
H227   H     0.13715   0.81374   0.30092   0.00000  Uiso   1.00
H228   H     0.13836   0.75635   0.27290   0.00000  Uiso   1.00
H229   H     0.08546   0.78247   0.29253   0.00000  Uiso   1.00
O230   O     0.38551   0.68145   0.22002   0.00000  Uiso   1.00
C231   C     0.38934   0.63613   0.19858   0.00000  Uiso   1.00
H232   H     0.37879   0.63595   0.15850   0.00000  Uiso   1.00
H233   H     0.42391   0.62232   0.20247   0.00000  Uiso   1.00
H234   H     0.36677   0.61167   0.21899   0.00000  Uiso   1.00
O235   O     0.38327   0.81680   0.10825   0.00000  Uiso   1.00
C236   C     0.38985   0.86264   0.12747   0.00000  Uiso   1.00
H237   H     0.38382   0.86409   0.16862   0.00000  Uiso   1.00
H238   H     0.42388   0.87599   0.11857   0.00000  Uiso   1.00
H239   H     0.36545   0.88664   0.10928   0.00000  Uiso   1.00
O240   O     0.11687   0.68829   0.10162   0.00000  Uiso   1.00
C241   C     0.12284   0.70993   0.05449   0.00000  Uiso   1.00
H242   H     0.09021   0.71603   0.03545   0.00000  Uiso   1.00
H243   H     0.14179   0.74368   0.05777   0.00000  Uiso   1.00
H244   H     0.14270   0.68598   0.03045   0.00000  Uiso   1.00
O245   O     0.26015   0.52726   0.07718   0.00000  Uiso   1.00
C246   C     0.29692   0.54385   0.04911   0.00000  Uiso   1.00
H247   H     0.32680   0.55102   0.07300   0.00000  Uiso   1.00
H248   H     0.28761   0.57565   0.02712   0.00000  Uiso   1.00
H249   H     0.30642   0.51613   0.02185   0.00000  Uiso   1.00
O250   O     0.31374   0.97087   0.22299   0.00000  Uiso   1.00
C251   C     0.35093   0.98204   0.19289   0.00000  Uiso   1.00
H252   H     0.34154   0.50487   0.16059   0.00000  Uiso   1.00
H253   H     0.36777   0.94957   0.17949   0.00000  Uiso   1.00
H254   H     0.37540   0.50201   0.21593   0.00000  Uiso   1.00
O255   O     0.23897   0.52713   0.25625   0.00000  Uiso   1.00
C256   C     0.20225   0.54367   0.28423   0.00000  Uiso   1.00
H257   H     0.17240   0.55069   0.26030   0.00000  Uiso   1.00
H258   H     0.21164   0.57555   0.30605   0.00000  Uiso   1.00
H259   H     0.19269   0.51598   0.31164   0.00000  Uiso   1.00
O260   O     0.18476   0.97050   0.11222   0.00000  Uiso   1.00
C261   C     0.14605   0.97414   0.14193   0.00000  Uiso   1.00
H262   H     0.15274   0.99445   0.17688   0.00000  Uiso   1.00
H263   H     0.13215   0.93869   0.15113   0.00000  Uiso   1.00
H264   H     0.12023   0.99355   0.12034   0.00000  Uiso   1.00
C265   C     0.66395   0.74994   0.16645   0.00000  Uiso   1.00
C266   C     0.83620   0.75000   0.16643   0.00000  Uiso   1.00
C267   C     0.75477   0.60224   0.12280   0.00000  Uiso   1.00
C268   C     0.78125   0.89791   0.19378   0.00000  Uiso   1.00
C269   C     0.74500   0.60216   0.21056   0.00000  Uiso   1.00
C270   C     0.71861   0.89761   0.13967   0.00000  Uiso   1.00
C271   C     0.75580   0.55217   0.12172   0.00000  Uiso   1.00
C272   C     0.78239   0.94773   0.19382   0.00000  Uiso   1.00
C273   C     0.74345   0.55210   0.21167   0.00000  Uiso   1.00
C274   C     0.71719   0.94742   0.13977   0.00000  Uiso   1.00
C275   C     0.74986   0.75002   0.07285   0.00000  Uiso   1.00
C276   C     0.74987   0.74997   0.26048   0.00000  Uiso   1.00
C277   C     0.74950   0.52669   0.16670   0.00000  Uiso   1.00
C278   C     0.74974   0.97335   0.16672   0.00000  Uiso   1.00
C279   C     0.74972   0.75001   0.02179   0.00000  Uiso   1.00
C280   C     0.74972   0.74995   0.31154   0.00000  Uiso   1.00
C281   C     0.54614   0.78142   0.19373   0.00000  Uiso   1.00
C282   C     0.95430   0.71457   0.18935   0.00000  Uiso   1.00
C283   C     0.95333   0.78361   0.13520   0.00000  Uiso   1.00
C284   C     0.54732   0.71855   0.13168   0.00000  Uiso   1.00
C285   C     0.59238   0.78086   0.19634   0.00000  Uiso   1.00
C286   C     0.90790   0.71386   0.19026   0.00000  Uiso   1.00
C287   C     0.90694   0.78479   0.13721   0.00000  Uiso   1.00
C288   C     0.59364   0.71904   0.13210   0.00000  Uiso   1.00
C289   C     0.61605   0.74984   0.16508   0.00000  Uiso   1.00
C290   C     0.88435   0.74974   0.16488   0.00000  Uiso   1.00
C291   C     0.52412   0.74995   0.16204   0.00000  Uiso   1.00
C292   C     0.97639   0.74912   0.16177   0.00000  Uiso   1.00
H293   H     0.52742   0.80550   0.21715   0.00000  Uiso   1.00
H294   H     0.97315   0.68878   0.21067   0.00000  Uiso   1.00
H295   H     0.97142   0.80930   0.11292   0.00000  Uiso   1.00
H296   H     0.52952   0.69423   0.10741   0.00000  Uiso   1.00
N297   N     0.75000   0.62624   0.16667   0.00000  Uiso   1.00
N298   N     0.75000   0.87377   0.16667   0.00000  Uiso   1.00
O299   O     0.68453   0.78974   0.16667   0.00000  Uiso   1.00
O300   O     0.81547   0.71026   0.16666   0.00000  Uiso   1.00
O301   O     0.81547   0.78974   0.16666   0.00000  Uiso   1.00
O302   O     0.68453   0.71026   0.16667   0.00000  Uiso   1.00
O303   O     0.75000   0.78973   0.09511   0.00000  Uiso   1.00
O304   O     0.75000   0.71027   0.23822   0.00000  Uiso   1.00
O305   O     0.75000   0.78973   0.23822   0.00000  Uiso   1.00
O306   O     0.75000   0.71027   0.09511   0.00000  Uiso   1.00
Zn307  Zn    0.75000   0.80307   0.16667   0.00000  Uiso   1.00
Zn308  Zn    0.75000   0.69693   0.16667   0.00000  Uiso   1.00
H309   H     0.75768   0.62203   0.08838   0.00000  Uiso   1.00
H310   H     0.80569   0.87846   0.21541   0.00000  Uiso   1.00
H311   H     0.74226   0.62189   0.24495   0.00000  Uiso   1.00
H312   H     0.69410   0.87794   0.11826   0.00000  Uiso   1.00
O313   O     0.61433   0.81160   0.22829   0.00000  Uiso   1.00
C314   C     0.61872   0.78958   0.27547   0.00000  Uiso   1.00
H315   H     0.63715   0.81374   0.30092   0.00000  Uiso   1.00
H316   H     0.63836   0.75635   0.27290   0.00000  Uiso   1.00
H317   H     0.58546   0.78247   0.29253   0.00000  Uiso   1.00
O318   O     0.88551   0.68145   0.22002   0.00000  Uiso   1.00
C319   C     0.88934   0.63613   0.19858   0.00000  Uiso   1.00
H320   H     0.87879   0.63595   0.15850   0.00000  Uiso   1.00
H321   H     0.92391   0.62232   0.20247   0.00000  Uiso   1.00
H322   H     0.86677   0.61167   0.21899   0.00000  Uiso   1.00
O323   O     0.88327   0.81680   0.10825   0.00000  Uiso   1.00
C324   C     0.88985   0.86264   0.12747   0.00000  Uiso   1.00
H325   H     0.88382   0.86409   0.16862   0.00000  Uiso   1.00
H326   H     0.92388   0.87599   0.11857   0.00000  Uiso   1.00
H327   H     0.86545   0.88664   0.10928   0.00000  Uiso   1.00
O328   O     0.61687   0.68829   0.10162   0.00000  Uiso   1.00
C329   C     0.62284   0.70993   0.05449   0.00000  Uiso   1.00
H330   H     0.59021   0.71603   0.03545   0.00000  Uiso   1.00
H331   H     0.64179   0.74368   0.05777   0.00000  Uiso   1.00
H332   H     0.64270   0.68598   0.03045   0.00000  Uiso   1.00
O333   O     0.76015   0.52726   0.07718   0.00000  Uiso   1.00
C334   C     0.79692   0.54385   0.04911   0.00000  Uiso   1.00
H335   H     0.82680   0.55102   0.07300   0.00000  Uiso   1.00
H336   H     0.78761   0.57565   0.02712   0.00000  Uiso   1.00
H337   H     0.80642   0.51613   0.02185   0.00000  Uiso   1.00
O338   O     0.81374   0.97087   0.22299   0.00000  Uiso   1.00
C339   C     0.85093   0.98204   0.19289   0.00000  Uiso   1.00
H340   H     0.84154   0.50487   0.16059   0.00000  Uiso   1.00
H341   H     0.86777   0.94957   0.17949   0.00000  Uiso   1.00
H342   H     0.87540   0.50201   0.21593   0.00000  Uiso   1.00
O343   O     0.73897   0.52713   0.25625   0.00000  Uiso   1.00
C344   C     0.70225   0.54367   0.28423   0.00000  Uiso   1.00
H345   H     0.67240   0.55069   0.26030   0.00000  Uiso   1.00
H346   H     0.71164   0.57555   0.30605   0.00000  Uiso   1.00
H347   H     0.69269   0.51598   0.31164   0.00000  Uiso   1.00
O348   O     0.68476   0.97050   0.11222   0.00000  Uiso   1.00
C349   C     0.64605   0.97414   0.14193   0.00000  Uiso   1.00
H350   H     0.65274   0.99445   0.17688   0.00000  Uiso   1.00
H351   H     0.63215   0.93869   0.15113   0.00000  Uiso   1.00
H352   H     0.62023   0.99355   0.12034   0.00000  Uiso   1.00
C353   C     0.16395   0.24994   0.49979   0.00000  Uiso   1.00
C354   C     0.33620   0.25000   0.49976   0.00000  Uiso   1.00
C355   C     0.25477   0.10224   0.45613   0.00000  Uiso   1.00
C356   C     0.28125   0.39791   0.52711   0.00000  Uiso   1.00
C357   C     0.24500   0.10216   0.54389   0.00000  Uiso   1.00
C358   C     0.21861   0.39761   0.47300   0.00000  Uiso   1.00
C359   C     0.25580   0.05217   0.45505   0.00000  Uiso   1.00
C360   C     0.28239   0.44773   0.52715   0.00000  Uiso   1.00
C361   C     0.24345   0.05210   0.54500   0.00000  Uiso   1.00
C362   C     0.21719   0.44742   0.47311   0.00000  Uiso   1.00
C363   C     0.24986   0.25002   0.40618   0.00000  Uiso   1.00
C364   C     0.24987   0.24997   0.59382   0.00000  Uiso   1.00
C365   C     0.24950   0.02669   0.50004   0.00000  Uiso   1.00
C366   C     0.24974   0.47335   0.50005   0.00000  Uiso   1.00
C367   C     0.24972   0.25001   0.35513   0.00000  Uiso   1.00
C368   C     0.24972   0.24995   0.64487   0.00000  Uiso   1.00
C369   C     0.04614   0.28142   0.52707   0.00000  Uiso   1.00
C370   C     0.45430   0.21457   0.52269   0.00000  Uiso   1.00
C371   C     0.45333   0.28361   0.46853   0.00000  Uiso   1.00
C372   C     0.04732   0.21855   0.46502   0.00000  Uiso   1.00
C373   C     0.09238   0.28086   0.52967   0.00000  Uiso   1.00
C374   C     0.40790   0.21386   0.52360   0.00000  Uiso   1.00
C375   C     0.40694   0.28479   0.47054   0.00000  Uiso   1.00
C376   C     0.09364   0.21904   0.46543   0.00000  Uiso   1.00
C377   C     0.11605   0.24984   0.49842   0.00000  Uiso   1.00
C378   C     0.38435   0.24974   0.49821   0.00000  Uiso   1.00
C379   C     0.02412   0.24995   0.49537   0.00000  Uiso   1.00
C380   C     0.47639   0.24912   0.49510   0.00000  Uiso   1.00
H381   H     0.02742   0.30550   0.55048   0.00000  Uiso   1.00
H382   H     0.47315   0.18878   0.54401   0.00000  Uiso   1.00
H383   H     0.47142   0.30930   0.44626   0.00000  Uiso   1.00
H384   H     0.02952   0.19423   0.44074   0.00000  Uiso   1.00
N385   N     0.25000   0.12624   0.50000   0.00000  Uiso   1.00
N386   N     0.25000   0.37377   0.50000   0.00000  Uiso   1.00
O387   O     0.18453   0.28974   0.50000   0.00000  Uiso   1.00
O388   O     0.31547   0.21026   0.50000   0.00000  Uiso   1.00
O389   O     0.31547   0.28974   0.50000   0.00000  Uiso   1.00
O390   O     0.18453   0.21026   0.50000   0.00000  Uiso   1.00
O391   O     0.25000   0.28973   0.42845   0.00000  Uiso   1.00
O392   O     0.25000   0.21027   0.57155   0.00000  Uiso   1.00
O393   O     0.25000   0.28973   0.57155   0.00000  Uiso   1.00
O394   O     0.25000   0.21027   0.42845   0.00000  Uiso   1.00
Zn395  Zn    0.25000   0.30307   0.50000   0.00000  Uiso   1.00
Zn396  Zn    0.25000   0.19693   0.50000   0.00000  Uiso   1.00
H397   H     0.25768   0.12203   0.42172   0.00000  Uiso   1.00
H398   H     0.30569   0.37846   0.54874   0.00000  Uiso   1.00
H399   H     0.24226   0.12189   0.57829   0.00000  Uiso   1.00
H400   H     0.19410   0.37794   0.45159   0.00000  Uiso   1.00
O401   O     0.11433   0.31160   0.56162   0.00000  Uiso   1.00
C402   C     0.11872   0.28958   0.60881   0.00000  Uiso   1.00
H403   H     0.13715   0.31374   0.63425   0.00000  Uiso   1.00
H404   H     0.13836   0.25635   0.60623   0.00000  Uiso   1.00
H405   H     0.08546   0.28247   0.62586   0.00000  Uiso   1.00
O406   O     0.38551   0.18145   0.55336   0.00000  Uiso   1.00
C407   C     0.38934   0.13613   0.53192   0.00000  Uiso   1.00
H408   H     0.37879   0.13595   0.49183   0.00000  Uiso   1.00
H409   H     0.42391   0.12232   0.53580   0.00000  Uiso   1.00
H410   H     0.36677   0.11167   0.55233   0.00000  Uiso   1.00
O411   O     0.38327   0.31680   0.44158   0.00000  Uiso   1.00
C412   C     0.38985   0.36264   0.46080   0.00000  Uiso   1.00
H413   H     0.38382   0.36409   0.50196   0.00000  Uiso   1.00
H414   H     0.42388   0.37599   0.45190   0.00000  Uiso   1.00
H415   H     0.36545   0.38664   0.44262   0.00000  Uiso   1.00
O416   O     0.11687   0.18829   0.43496   0.00000  Uiso   1.00
C417   C     0.12284   0.20993   0.38782   0.00000  Uiso   1.00
H418   H     0.09021   0.21603   0.36878   0.00000  Uiso   1.00
H419   H     0.14179   0.24368   0.39111   0.00000  Uiso   1.00
H420   H     0.14270   0.18598   0.36378   0.00000  Uiso   1.00
O421   O     0.26015   0.02726   0.41051   0.00000  Uiso   1.00
C422   C     0.29692   0.04385   0.38245   0.00000  Uiso   1.00
H423   H     0.32680   0.05102   0.40633   0.00000  Uiso   1.00
H424   H     0.28761   0.07565   0.36046   0.00000  Uiso   1.00
H425   H     0.30642   0.01613   0.35519   0.00000  Uiso   1.00
O426   O     0.31374   0.47087   0.55633   0.00000  Uiso   1.00
C427   C     0.35093   0.48204   0.52622   0.00000  Uiso   1.00
H428   H     0.34154   0.00487   0.49392   0.00000  Uiso   1.00
H429   H     0.36777   0.44957   0.51282   0.00000  Uiso   1.00
H430   H     0.37540   0.00201   0.54927   0.00000  Uiso   1.00
O431   O     0.23897   0.02713   0.58958   0.00000  Uiso   1.00
C432   C     0.20225   0.04367   0.61756   0.00000  Uiso   1.00
H433   H     0.17240   0.05069   0.59363   0.00000  Uiso   1.00
H434   H     0.21164   0.07555   0.63938   0.00000  Uiso   1.00
H435   H     0.19269   0.01598   0.64497   0.00000  Uiso   1.00
O436   O     0.18476   0.47050   0.44556   0.00000  Uiso   1.00
C437   C     0.14605   0.47414   0.47527   0.00000  Uiso   1.00
H438   H     0.15274   0.49445   0.51021   0.00000  Uiso   1.00
H439   H     0.13215   0.43869   0.48446   0.00000  Uiso   1.00
H440   H     0.12023   0.49355   0.45368   0.00000  Uiso   1.00
C441   C     0.66395   0.24994   0.49979   0.00000  Uiso   1.00
C442   C     0.83620   0.25000   0.49976   0.00000  Uiso   1.00
C443   C     0.75477   0.10224   0.45613   0.00000  Uiso   1.00
C444   C     0.78125   0.39791   0.52711   0.00000  Uiso   1.00
C445   C     0.74500   0.10216   0.54389   0.00000  Uiso   1.00
C446   C     0.71861   0.39761   0.47300   0.00000  Uiso   1.00
C447   C     0.75580   0.05217   0.45505   0.00000  Uiso   1.00
C448   C     0.78239   0.44773   0.52715   0.00000  Uiso   1.00
C449   C     0.74345   0.05210   0.54500   0.00000  Uiso   1.00
C450   C     0.71719   0.44742   0.47311   0.00000  Uiso   1.00
C451   C     0.74986   0.25002   0.40618   0.00000  Uiso   1.00
C452   C     0.74987   0.24997   0.59382   0.00000  Uiso   1.00
C453   C     0.74950   0.02669   0.50004   0.00000  Uiso   1.00
C454   C     0.74974   0.47335   0.50005   0.00000  Uiso   1.00
C455   C     0.74972   0.25001   0.35513   0.00000  Uiso   1.00
C456   C     0.74972   0.24995   0.64487   0.00000  Uiso   1.00
C457   C     0.54614   0.28142   0.52707   0.00000  Uiso   1.00
C458   C     0.95430   0.21457   0.52269   0.00000  Uiso   1.00
C459   C     0.95333   0.28361   0.46853   0.00000  Uiso   1.00
C460   C     0.54732   0.21855   0.46502   0.00000  Uiso   1.00
C461   C     0.59238   0.28086   0.52967   0.00000  Uiso   1.00
C462   C     0.90790   0.21386   0.52360   0.00000  Uiso   1.00
C463   C     0.90694   0.28479   0.47054   0.00000  Uiso   1.00
C464   C     0.59364   0.21904   0.46543   0.00000  Uiso   1.00
C465   C     0.61605   0.24984   0.49842   0.00000  Uiso   1.00
C466   C     0.88435   0.24974   0.49821   0.00000  Uiso   1.00
C467   C     0.52412   0.24995   0.49537   0.00000  Uiso   1.00
C468   C     0.97639   0.24912   0.49510   0.00000  Uiso   1.00
H469   H     0.52742   0.30550   0.55048   0.00000  Uiso   1.00
H470   H     0.97315   0.18878   0.54401   0.00000  Uiso   1.00
H471   H     0.97142   0.30930   0.44626   0.00000  Uiso   1.00
H472   H     0.52952   0.19423   0.44074   0.00000  Uiso   1.00
N473   N     0.75000   0.12624   0.50000   0.00000  Uiso   1.00
N474   N     0.75000   0.37377   0.50000   0.00000  Uiso   1.00
O475   O     0.68453   0.28974   0.50000   0.00000  Uiso   1.00
O476   O     0.81547   0.21026   0.50000   0.00000  Uiso   1.00
O477   O     0.81547   0.28974   0.50000   0.00000  Uiso   1.00
O478   O     0.68453   0.21026   0.50000   0.00000  Uiso   1.00
O479   O     0.75000   0.28973   0.42845   0.00000  Uiso   1.00
O480   O     0.75000   0.21027   0.57155   0.00000  Uiso   1.00
O481   O     0.75000   0.28973   0.57155   0.00000  Uiso   1.00
O482   O     0.75000   0.21027   0.42845   0.00000  Uiso   1.00
Zn483  Zn    0.75000   0.30307   0.50000   0.00000  Uiso   1.00
Zn484  Zn    0.75000   0.19693   0.50000   0.00000  Uiso   1.00
H485   H     0.75768   0.12203   0.42172   0.00000  Uiso   1.00
H486   H     0.80569   0.37846   0.54874   0.00000  Uiso   1.00
H487   H     0.74226   0.12189   0.57829   0.00000  Uiso   1.00
H488   H     0.69410   0.37794   0.45159   0.00000  Uiso   1.00
O489   O     0.61433   0.31160   0.56162   0.00000  Uiso   1.00
C490   C     0.61872   0.28958   0.60881   0.00000  Uiso   1.00
H491   H     0.63715   0.31374   0.63425   0.00000  Uiso   1.00
H492   H     0.63836   0.25635   0.60623   0.00000  Uiso   1.00
H493   H     0.58546   0.28247   0.62586   0.00000  Uiso   1.00
O494   O     0.88551   0.18145   0.55336   0.00000  Uiso   1.00
C495   C     0.88934   0.13613   0.53192   0.00000  Uiso   1.00
H496   H     0.87879   0.13595   0.49183   0.00000  Uiso   1.00
H497   H     0.92391   0.12232   0.53580   0.00000  Uiso   1.00
H498   H     0.86677   0.11167   0.55233   0.00000  Uiso   1.00
O499   O     0.88327   0.31680   0.44158   0.00000  Uiso   1.00
C500   C     0.88985   0.36264   0.46080   0.00000  Uiso   1.00
H501   H     0.88382   0.36409   0.50196   0.00000  Uiso   1.00
H502   H     0.92388   0.37599   0.45190   0.00000  Uiso   1.00
H503   H     0.86545   0.38664   0.44262   0.00000  Uiso   1.00
O504   O     0.61687   0.18829   0.43496   0.00000  Uiso   1.00
C505   C     0.62284   0.20993   0.38782   0.00000  Uiso   1.00
H506   H     0.59021   0.21603   0.36878   0.00000  Uiso   1.00
H507   H     0.64179   0.24368   0.39111   0.00000  Uiso   1.00
H508   H     0.64270   0.18598   0.36378   0.00000  Uiso   1.00
O509   O     0.76015   0.02726   0.41051   0.00000  Uiso   1.00
C510   C     0.79692   0.04385   0.38245   0.00000  Uiso   1.00
H511   H     0.82680   0.05102   0.40633   0.00000  Uiso   1.00
H512   H     0.78761   0.07565   0.36046   0.00000  Uiso   1.00
H513   H     0.80642   0.01613   0.35519   0.00000  Uiso   1.00
O514   O     0.81374   0.47087   0.55633   0.00000  Uiso   1.00
C515   C     0.85093   0.48204   0.52622   0.00000  Uiso   1.00
H516   H     0.84154   0.00487   0.49392   0.00000  Uiso   1.00
H517   H     0.86777   0.44957   0.51282   0.00000  Uiso   1.00
H518   H     0.87540   0.00201   0.54927   0.00000  Uiso   1.00
O519   O     0.73897   0.02713   0.58958   0.00000  Uiso   1.00
C520   C     0.70225   0.04367   0.61756   0.00000  Uiso   1.00
H521   H     0.67240   0.05069   0.59363   0.00000  Uiso   1.00
H522   H     0.71164   0.07555   0.63938   0.00000  Uiso   1.00
H523   H     0.69269   0.01598   0.64497   0.00000  Uiso   1.00
O524   O     0.68476   0.47050   0.44556   0.00000  Uiso   1.00
C525   C     0.64605   0.47414   0.47527   0.00000  Uiso   1.00
H526   H     0.65274   0.49445   0.51021   0.00000  Uiso   1.00
H527   H     0.63215   0.43869   0.48446   0.00000  Uiso   1.00
H528   H     0.62023   0.49355   0.45368   0.00000  Uiso   1.00
C529   C     0.16395   0.74994   0.49979   0.00000  Uiso   1.00
C530   C     0.33620   0.75000   0.49976   0.00000  Uiso   1.00
C531   C     0.25477   0.60224   0.45613   0.00000  Uiso   1.00
C532   C     0.28125   0.89791   0.52711   0.00000  Uiso   1.00
C533   C     0.24500   0.60216   0.54389   0.00000  Uiso   1.00
C534   C     0.21861   0.89761   0.47300   0.00000  Uiso   1.00
C535   C     0.25580   0.55217   0.45505   0.00000  Uiso   1.00
C536   C     0.28239   0.94773   0.52715   0.00000  Uiso   1.00
C537   C     0.24345   0.55210   0.54500   0.00000  Uiso   1.00
C538   C     0.21719   0.94742   0.47311   0.00000  Uiso   1.00
C539   C     0.24986   0.75002   0.40618   0.00000  Uiso   1.00
C540   C     0.24987   0.74997   0.59382   0.00000  Uiso   1.00
C541   C     0.24950   0.52669   0.50004   0.00000  Uiso   1.00
C542   C     0.24974   0.97335   0.50005   0.00000  Uiso   1.00
C543   C     0.24972   0.75001   0.35513   0.00000  Uiso   1.00
C544   C     0.24972   0.74995   0.64487   0.00000  Uiso   1.00
C545   C     0.04614   0.78142   0.52707   0.00000  Uiso   1.00
C546   C     0.45430   0.71457   0.52269   0.00000  Uiso   1.00
C547   C     0.45333   0.78361   0.46853   0.00000  Uiso   1.00
C548   C     0.04732   0.71855   0.46502   0.00000  Uiso   1.00
C549   C     0.09238   0.78086   0.52967   0.00000  Uiso   1.00
C550   C     0.40790   0.71386   0.52360   0.00000  Uiso   1.00
C551   C     0.40694   0.78479   0.47054   0.00000  Uiso   1.00
C552   C     0.09364   0.71904   0.46543   0.00000  Uiso   1.00
C553   C     0.11605   0.74984   0.49842   0.00000  Uiso   1.00
C554   C     0.38435   0.74974   0.49821   0.00000  Uiso   1.00
C555   C     0.02412   0.74995   0.49537   0.00000  Uiso   1.00
C556   C     0.47639   0.74912   0.49510   0.00000  Uiso   1.00
H557   H     0.02742   0.80550   0.55048   0.00000  Uiso   1.00
H558   H     0.47315   0.68878   0.54401   0.00000  Uiso   1.00
H559   H     0.47142   0.80930   0.44626   0.00000  Uiso   1.00
H560   H     0.02952   0.69423   0.44074   0.00000  Uiso   1.00
N561   N     0.25000   0.62624   0.50000   0.00000  Uiso   1.00
N562   N     0.25000   0.87377   0.50000   0.00000  Uiso   1.00
O563   O     0.18453   0.78974   0.50000   0.00000  Uiso   1.00
O564   O     0.31547   0.71026   0.50000   0.00000  Uiso   1.00
O565   O     0.31547   0.78974   0.50000   0.00000  Uiso   1.00
O566   O     0.18453   0.71026   0.50000   0.00000  Uiso   1.00
O567   O     0.25000   0.78973   0.42845   0.00000  Uiso   1.00
O568   O     0.25000   0.71027   0.57155   0.00000  Uiso   1.00
O569   O     0.25000   0.78973   0.57155   0.00000  Uiso   1.00
O570   O     0.25000   0.71027   0.42845   0.00000  Uiso   1.00
Zn571  Zn    0.25000   0.80307   0.50000   0.00000  Uiso   1.00
Zn572  Zn    0.25000   0.69693   0.50000   0.00000  Uiso   1.00
H573   H     0.25768   0.62203   0.42172   0.00000  Uiso   1.00
H574   H     0.30569   0.87846   0.54874   0.00000  Uiso   1.00
H575   H     0.24226   0.62189   0.57829   0.00000  Uiso   1.00
H576   H     0.19410   0.87794   0.45159   0.00000  Uiso   1.00
O577   O     0.11433   0.81160   0.56162   0.00000  Uiso   1.00
C578   C     0.11872   0.78958   0.60881   0.00000  Uiso   1.00
H579   H     0.13715   0.81374   0.63425   0.00000  Uiso   1.00
H580   H     0.13836   0.75635   0.60623   0.00000  Uiso   1.00
H581   H     0.08546   0.78247   0.62586   0.00000  Uiso   1.00
O582   O     0.38551   0.68145   0.55336   0.00000  Uiso   1.00
C583   C     0.38934   0.63613   0.53192   0.00000  Uiso   1.00
H584   H     0.37879   0.63595   0.49183   0.00000  Uiso   1.00
H585   H     0.42391   0.62232   0.53580   0.00000  Uiso   1.00
H586   H     0.36677   0.61167   0.55233   0.00000  Uiso   1.00
O587   O     0.38327   0.81680   0.44158   0.00000  Uiso   1.00
C588   C     0.38985   0.86264   0.46080   0.00000  Uiso   1.00
H589   H     0.38382   0.86409   0.50196   0.00000  Uiso   1.00
H590   H     0.42388   0.87599   0.45190   0.00000  Uiso   1.00
H591   H     0.36545   0.88664   0.44262   0.00000  Uiso   1.00
O592   O     0.11687   0.68829   0.43496   0.00000  Uiso   1.00
C593   C     0.12284   0.70993   0.38782   0.00000  Uiso   1.00
H594   H     0.09021   0.71603   0.36878   0.00000  Uiso   1.00
H595   H     0.14179   0.74368   0.39111   0.00000  Uiso   1.00
H596   H     0.14270   0.68598   0.36378   0.00000  Uiso   1.00
O597   O     0.26015   0.52726   0.41051   0.00000  Uiso   1.00
C598   C     0.29692   0.54385   0.38245   0.00000  Uiso   1.00
H599   H     0.32680   0.55102   0.40633   0.00000  Uiso   1.00
H600   H     0.28761   0.57565   0.36046   0.00000  Uiso   1.00
H601   H     0.30642   0.51613   0.35519   0.00000  Uiso   1.00
O602   O     0.31374   0.97087   0.55633   0.00000  Uiso   1.00
C603   C     0.35093   0.98204   0.52622   0.00000  Uiso   1.00
H604   H     0.34154   0.50487   0.49392   0.00000  Uiso   1.00
H605   H     0.36777   0.94957   0.51282   0.00000  Uiso   1.00
H606   H     0.37540   0.50201   0.54927   0.00000  Uiso   1.00
O607   O     0.23897   0.52713   0.58958   0.00000  Uiso   1.00
C608   C     0.20225   0.54367   0.61756   0.00000  Uiso   1.00
H609   H     0.17240   0.55069   0.59363   0.00000  Uiso   1.00
H610   H     0.21164   0.57555   0.63938   0.00000  Uiso   1.00
H611   H     0.19269   0.51598   0.64497   0.00000  Uiso   1.00
O612   O     0.18476   0.97050   0.44556   0.00000  Uiso   1.00
C613   C     0.14605   0.97414   0.47527   0.00000  Uiso   1.00
H614   H     0.15274   0.99445   0.51021   0.00000  Uiso   1.00
H615   H     0.13215   0.93869   0.48446   0.00000  Uiso   1.00
H616   H     0.12023   0.99355   0.45368   0.00000  Uiso   1.00
C617   C     0.66395   0.74994   0.49979   0.00000  Uiso   1.00
C618   C     0.83620   0.75000   0.49976   0.00000  Uiso   1.00
C619   C     0.75477   0.60224   0.45613   0.00000  Uiso   1.00
C620   C     0.78125   0.89791   0.52711   0.00000  Uiso   1.00
C621   C     0.74500   0.60216   0.54389   0.00000  Uiso   1.00
C622   C     0.71861   0.89761   0.47300   0.00000  Uiso   1.00
C623   C     0.75580   0.55217   0.45505   0.00000  Uiso   1.00
C624   C     0.78239   0.94773   0.52715   0.00000  Uiso   1.00
C625   C     0.74345   0.55210   0.54500   0.00000  Uiso   1.00
C626   C     0.71719   0.94742   0.47311   0.00000  Uiso   1.00
C627   C     0.74986   0.75002   0.40618   0.00000  Uiso   1.00
C628   C     0.74987   0.74997   0.59382   0.00000  Uiso   1.00
C629   C     0.74950   0.52669   0.50004   0.00000  Uiso   1.00
C630   C     0.74974   0.97335   0.50005   0.00000  Uiso   1.00
C631   C     0.74972   0.75001   0.35513   0.00000  Uiso   1.00
C632   C     0.74972   0.74995   0.64487   0.00000  Uiso   1.00
C633   C     0.54614   0.78142   0.52707   0.00000  Uiso   1.00
C634   C     0.95430   0.71457   0.52269   0.00000  Uiso   1.00
C635   C     0.95333   0.78361   0.46853   0.00000  Uiso   1.00
C636   C     0.54732   0.71855   0.46502   0.00000  Uiso   1.00
C637   C     0.59238   0.78086   0.52967   0.00000  Uiso   1.00
C638   C     0.90790   0.71386   0.52360   0.00000  Uiso   1.00
C639   C     0.90694   0.78479   0.47054   0.00000  Uiso   1.00
C640   C     0.59364   0.71904   0.46543   0.00000  Uiso   1.00
C641   C     0.61605   0.74984   0.49842   0.00000  Uiso   1.00
C642   C     0.88435   0.74974   0.49821   0.00000  Uiso   1.00
C643   C     0.52412   0.74995   0.49537   0.00000  Uiso   1.00
C644   C     0.97639   0.74912   0.49510   0.00000  Uiso   1.00
H645   H     0.52742   0.80550   0.55048   0.00000  Uiso   1.00
H646   H     0.97315   0.68878   0.54401   0.00000  Uiso   1.00
H647   H     0.97142   0.80930   0.44626   0.00000  Uiso   1.00
H648   H     0.52952   0.69423   0.44074   0.00000  Uiso   1.00
N649   N     0.75000   0.62624   0.50000   0.00000  Uiso   1.00
N650   N     0.75000   0.87377   0.50000   0.00000  Uiso   1.00
O651   O     0.68453   0.78974   0.50000   0.00000  Uiso   1.00
O652   O     0.81547   0.71026   0.50000   0.00000  Uiso   1.00
O653   O     0.81547   0.78974   0.50000   0.00000  Uiso   1.00
O654   O     0.68453   0.71026   0.50000   0.00000  Uiso   1.00
O655   O     0.75000   0.78973   0.42845   0.00000  Uiso   1.00
O656   O     0.75000   0.71027   0.57155   0.00000  Uiso   1.00
O657   O     0.75000   0.78973   0.57155   0.00000  Uiso   1.00
O658   O     0.75000   0.71027   0.42845   0.00000  Uiso   1.00
Zn659  Zn    0.75000   0.80307   0.50000   0.00000  Uiso   1.00
Zn660  Zn    0.75000   0.69693   0.50000   0.00000  Uiso   1.00
H661   H     0.75768   0.62203   0.42172   0.00000  Uiso   1.00
H662   H     0.80569   0.87846   0.54874   0.00000  Uiso   1.00
H663   H     0.74226   0.62189   0.57829   0.00000  Uiso   1.00
H664   H     0.69410   0.87794   0.45159   0.00000  Uiso   1.00
O665   O     0.61433   0.81160   0.56162   0.00000  Uiso   1.00
C666   C     0.61872   0.78958   0.60881   0.00000  Uiso   1.00
H667   H     0.63715   0.81374   0.63425   0.00000  Uiso   1.00
H668   H     0.63836   0.75635   0.60623   0.00000  Uiso   1.00
H669   H     0.58546   0.78247   0.62586   0.00000  Uiso   1.00
O670   O     0.88551   0.68145   0.55336   0.00000  Uiso   1.00
C671   C     0.88934   0.63613   0.53192   0.00000  Uiso   1.00
H672   H     0.87879   0.63595   0.49183   0.00000  Uiso   1.00
H673   H     0.92391   0.62232   0.53580   0.00000  Uiso   1.00
H674   H     0.86677   0.61167   0.55233   0.00000  Uiso   1.00
O675   O     0.88327   0.81680   0.44158   0.00000  Uiso   1.00
C676   C     0.88985   0.86264   0.46080   0.00000  Uiso   1.00
H677   H     0.88382   0.86409   0.50196   0.00000  Uiso   1.00
H678   H     0.92388   0.87599   0.45190   0.00000  Uiso   1.00
H679   H     0.86545   0.88664   0.44262   0.00000  Uiso   1.00
O680   O     0.61687   0.68829   0.43496   0.00000  Uiso   1.00
C681   C     0.62284   0.70993   0.38782   0.00000  Uiso   1.00
H682   H     0.59021   0.71603   0.36878   0.00000  Uiso   1.00
H683   H     0.64179   0.74368   0.39111   0.00000  Uiso   1.00
H684   H     0.64270   0.68598   0.36378   0.00000  Uiso   1.00
O685   O     0.76015   0.52726   0.41051   0.00000  Uiso   1.00
C686   C     0.79692   0.54385   0.38245   0.00000  Uiso   1.00
H687   H     0.82680   0.55102   0.40633   0.00000  Uiso   1.00
H688   H     0.78761   0.57565   0.36046   0.00000  Uiso   1.00
H689   H     0.80642   0.51613   0.35519   0.00000  Uiso   1.00
O690   O     0.81374   0.97087   0.55633   0.00000  Uiso   1.00
C691   C     0.85093   0.98204   0.52622   0.00000  Uiso   1.00
H692   H     0.84154   0.50487   0.49392   0.00000  Uiso   1.00
H693   H     0.86777   0.94957   0.51282   0.00000  Uiso   1.00
H694   H     0.87540   0.50201   0.54927   0.00000  Uiso   1.00
O695   O     0.73897   0.52713   0.58958   0.00000  Uiso   1.00
C696   C     0.70225   0.54367   0.61756   0.00000  Uiso   1.00
H697   H     0.67240   0.55069   0.59363   0.00000  Uiso   1.00
H698   H     0.71164   0.57555   0.63938   0.00000  Uiso   1.00
H699   H     0.69269   0.51598   0.64497   0.00000  Uiso   1.00
O700   O     0.68476   0.97050   0.44556   0.00000  Uiso   1.00
C701   C     0.64605   0.97414   0.47527   0.00000  Uiso   1.00
H702   H     0.65274   0.99445   0.51021   0.00000  Uiso   1.00
H703   H     0.63215   0.93869   0.48446   0.00000  Uiso   1.00
H704   H     0.62023   0.99355   0.45368   0.00000  Uiso   1.00
C705   C     0.16395   0.24994   0.83312   0.00000  Uiso   1.00
C706   C     0.33620   0.25000   0.83309   0.00000  Uiso   1.00
C707   C     0.25477   0.10224   0.78946   0.00000  Uiso   1.00
C708   C     0.28125   0.39791   0.86044   0.00000  Uiso   1.00
C709   C     0.24500   0.10216   0.87722   0.00000  Uiso   1.00
C710   C     0.21861   0.39761   0.80633   0.00000  Uiso   1.00
C711   C     0.25580   0.05217   0.78839   0.00000  Uiso   1.00
C712   C     0.28239   0.44773   0.86048   0.00000  Uiso   1.00
C713   C     0.24345   0.05210   0.87833   0.00000  Uiso   1.00
C714   C     0.21719   0.44742   0.80644   0.00000  Uiso   1.00
C715   C     0.24986   0.25002   0.73952   0.00000  Uiso   1.00
C716   C     0.24987   0.24997   0.92715   0.00000  Uiso   1.00
C717   C     0.24950   0.02669   0.83337   0.00000  Uiso   1.00
C718   C     0.24974   0.47335   0.83338   0.00000  Uiso   1.00
C719   C     0.24972   0.25001   0.68846   0.00000  Uiso   1.00
C720   C     0.24972   0.24995   0.97820   0.00000  Uiso   1.00
C721   C     0.04614   0.28142   0.86040   0.00000  Uiso   1.00
C722   C     0.45430   0.21457   0.85602   0.00000  Uiso   1.00
C723   C     0.45333   0.28361   0.80186   0.00000  Uiso   1.00
C724   C     0.04732   0.21855   0.79835   0.00000  Uiso   1.00
C725   C     0.09238   0.28086   0.86301   0.00000  Uiso   1.00
C726   C     0.40790   0.21386   0.85693   0.00000  Uiso   1.00
C727   C     0.40694   0.28479   0.80387   0.00000  Uiso   1.00
C728   C     0.09364   0.21904   0.79877   0.00000  Uiso   1.00
C729   C     0.11605   0.24984   0.83175   0.00000  Uiso   1.00
C730   C     0.38435   0.24974   0.83154   0.00000  Uiso   1.00
C731   C     0.02412   0.24995   0.82870   0.00000  Uiso   1.00
C732   C     0.47639   0.24912   0.82843   0.00000  Uiso   1.00
H733   H     0.02742   0.30550   0.88382   0.00000  Uiso   1.00
H734   H     0.47315   0.18878   0.87734   0.00000  Uiso   1.00
H735   H     0.47142   0.30930   0.77959   0.00000  Uiso   1.00
H736   H     0.02952   0.19423   0.77408   0.00000  Uiso   1.00
N737   N     0.25000   0.12624   0.83333   0.00000  Uiso   1.00
N738   N     0.25000   0.37377   0.83333   0.00000  Uiso   1.00
O739   O     0.18453   0.28974   0.83334   0.00000  Uiso   1.00
O740   O     0.31547   0.21026   0.83333   0.00000  Uiso   1.00
O741   O     0.31547   0.28974   0.83333   0.00000  Uiso   1.00
O742   O     0.18453   0.21026   0.83334   0.00000  Uiso   1.00
O743   O     0.25000   0.28973   0.76178   0.00000  Uiso   1.00
O744   O     0.25000   0.21027   0.90489   0.00000  Uiso   1.00
O745   O     0.25000   0.28973   0.90489   0.00000  Uiso   1.00
O746   O     0.25000   0.21027   0.76178   0.00000  Uiso   1.00
Zn747  Zn    0.25000   0.30307   0.83333   0.00000  Uiso   1.00
Zn748  Zn    0.25000   0.19693   0.83333   0.00000  Uiso   1.00
H749   H     0.25768   0.12203   0.75505   0.00000  Uiso   1.00
H750   H     0.30569   0.37846   0.88207   0.00000  Uiso   1.00
H751   H     0.24226   0.12189   0.91162   0.00000  Uiso   1.00
H752   H     0.19410   0.37794   0.78492   0.00000  Uiso   1.00
O753   O     0.11433   0.31160   0.89496   0.00000  Uiso   1.00
C754   C     0.11872   0.28958   0.94214   0.00000  Uiso   1.00
H755   H     0.13715   0.31374   0.96758   0.00000  Uiso   1.00
H756   H     0.13836   0.25635   0.93957   0.00000  Uiso   1.00
H757   H     0.08546   0.28247   0.95919   0.00000  Uiso   1.00
O758   O     0.38551   0.18145   0.88669   0.00000  Uiso   1.00
C759   C     0.38934   0.13613   0.86525   0.00000  Uiso   1.00
H760   H     0.37879   0.13595   0.82517   0.00000  Uiso   1.00
H761   H     0.42391   0.12232   0.86913   0.00000  Uiso   1.00
H762   H     0.36677   0.11167   0.88566   0.00000  Uiso   1.00
O763   O     0.38327   0.31680   0.77492   0.00000  Uiso   1.00
C764   C     0.38985   0.36264   0.79413   0.00000  Uiso   1.00
H765   H     0.38382   0.36409   0.83529   0.00000  Uiso   1.00
H766   H     0.42388   0.37599   0.78524   0.00000  Uiso   1.00
H767   H     0.36545   0.38664   0.77595   0.00000  Uiso   1.00
O768   O     0.11687   0.18829   0.76829   0.00000  Uiso   1.00
C769   C     0.12284   0.20993   0.72115   0.00000  Uiso   1.00
H770   H     0.09021   0.21603   0.70212   0.00000  Uiso   1.00
H771   H     0.14179   0.24368   0.72444   0.00000  Uiso   1.00
H772   H     0.14270   0.18598   0.69712   0.00000  Uiso   1.00
O773   O     0.26015   0.02726   0.74384   0.00000  Uiso   1.00
C774   C     0.29692   0.04385   0.71578   0.00000  Uiso   1.00
H775   H     0.32680   0.05102   0.73966   0.00000  Uiso   1.00
H776   H     0.28761   0.07565   0.69379   0.00000  Uiso   1.00
H777   H     0.30642   0.01613   0.68852   0.00000  Uiso   1.00
O778   O     0.31374   0.47087   0.88966   0.00000  Uiso   1.00
C779   C     0.35093   0.48204   0.85955   0.00000  Uiso   1.00
H780   H     0.34154   0.00487   0.82726   0.00000  Uiso   1.00
H781   H     0.36777   0.44957   0.84615   0.00000  Uiso   1.00
H782   H     0.37540   0.00201   0.88260   0.00000  Uiso   1.00
O783   O     0.23897   0.02713   0.92291   0.00000  Uiso   1.00
C784   C     0.20225   0.04367   0.95090   0.00000  Uiso   1.00
H785   H     0.17240   0.05069   0.92696   0.00000  Uiso   1.00
H786   H     0.21164   0.07555   0.97272   0.00000  Uiso   1.00
H787   H     0.19269   0.01598   0.97830   0.00000  Uiso   1.00
O788   O     0.18476   0.47050   0.77889   0.00000  Uiso   1.00
C789   C     0.14605   0.47414   0.80860   0.00000  Uiso   1.00
H790   H     0.15274   0.49445   0.84354   0.00000  Uiso   1.00
H791   H     0.13215   0.43869   0.81780   0.00000  Uiso   1.00
H792   H     0.12023   0.49355   0.78701   0.00000  Uiso   1.00
C793   C     0.66395   0.24994   0.83312   0.00000  Uiso   1.00
C794   C     0.83620   0.25000   0.83309   0.00000  Uiso   1.00
C795   C     0.75477   0.10224   0.78946   0.00000  Uiso   1.00
C796   C     0.78125   0.39791   0.86044   0.00000  Uiso   1.00
C797   C     0.74500   0.10216   0.87722   0.00000  Uiso   1.00
C798   C     0.71861   0.39761   0.80633   0.00000  Uiso   1.00
C799   C     0.75580   0.05217   0.78839   0.00000  Uiso   1.00
C800   C     0.78239   0.44773   0.86048   0.00000  Uiso   1.00
C801   C     0.74345   0.05210   0.87833   0.00000  Uiso   1.00
C802   C     0.71719   0.44742   0.80644   0.00000  Uiso   1.00
C803   C     0.74986   0.25002   0.73952   0.00000  Uiso   1.00
C804   C     0.74987   0.24997   0.92715   0.00000  Uiso   1.00
C805   C     0.74950   0.02669   0.83337   0.00000  Uiso   1.00
C806   C     0.74974   0.47335   0.83338   0.00000  Uiso   1.00
C807   C     0.74972   0.25001   0.68846   0.00000  Uiso   1.00
C808   C     0.74972   0.24995   0.97820   0.00000  Uiso   1.00
C809   C     0.54614   0.28142   0.86040   0.00000  Uiso   1.00
C810   C     0.95430   0.21457   0.85602   0.00000  Uiso   1.00
C811   C     0.95333   0.28361   0.80186   0.00000  Uiso   1.00
C812   C     0.54732   0.21855   0.79835   0.00000  Uiso   1.00
C813   C     0.59238   0.28086   0.86301   0.00000  Uiso   1.00
C814   C     0.90790   0.21386   0.85693   0.00000  Uiso   1.00
C815   C     0.90694   0.28479   0.80387   0.00000  Uiso   1.00
C816   C     0.59364   0.21904   0.79877   0.00000  Uiso   1.00
C817   C     0.61605   0.24984   0.83175   0.00000  Uiso   1.00
C818   C     0.88435   0.24974   0.83154   0.00000  Uiso   1.00
C819   C     0.52412   0.24995   0.82870   0.00000  Uiso   1.00
C820   C     0.97639   0.24912   0.82843   0.00000  Uiso   1.00
H821   H     0.52742   0.30550   0.88382   0.00000  Uiso   1.00
H822   H     0.97315   0.18878   0.87734   0.00000  Uiso   1.00
H823   H     0.97142   0.30930   0.77959   0.00000  Uiso   1.00
H824   H     0.52952   0.19423   0.77408   0.00000  Uiso   1.00
N825   N     0.75000   0.12624   0.83333   0.00000  Uiso   1.00
N826   N     0.75000   0.37377   0.83333   0.00000  Uiso   1.00
O827   O     0.68453   0.28974   0.83334   0.00000  Uiso   1.00
O828   O     0.81547   0.21026   0.83333   0.00000  Uiso   1.00
O829   O     0.81547   0.28974   0.83333   0.00000  Uiso   1.00
O830   O     0.68453   0.21026   0.83334   0.00000  Uiso   1.00
O831   O     0.75000   0.28973   0.76178   0.00000  Uiso   1.00
O832   O     0.75000   0.21027   0.90489   0.00000  Uiso   1.00
O833   O     0.75000   0.28973   0.90489   0.00000  Uiso   1.00
O834   O     0.75000   0.21027   0.76178   0.00000  Uiso   1.00
Zn835  Zn    0.75000   0.30307   0.83333   0.00000  Uiso   1.00
Zn836  Zn    0.75000   0.19693   0.83333   0.00000  Uiso   1.00
H837   H     0.75768   0.12203   0.75505   0.00000  Uiso   1.00
H838   H     0.80569   0.37846   0.88207   0.00000  Uiso   1.00
H839   H     0.74226   0.12189   0.91162   0.00000  Uiso   1.00
H840   H     0.69410   0.37794   0.78492   0.00000  Uiso   1.00
O841   O     0.61433   0.31160   0.89496   0.00000  Uiso   1.00
C842   C     0.61872   0.28958   0.94214   0.00000  Uiso   1.00
H843   H     0.63715   0.31374   0.96758   0.00000  Uiso   1.00
H844   H     0.63836   0.25635   0.93957   0.00000  Uiso   1.00
H845   H     0.58546   0.28247   0.95919   0.00000  Uiso   1.00
O846   O     0.88551   0.18145   0.88669   0.00000  Uiso   1.00
C847   C     0.88934   0.13613   0.86525   0.00000  Uiso   1.00
H848   H     0.87879   0.13595   0.82517   0.00000  Uiso   1.00
H849   H     0.92391   0.12232   0.86913   0.00000  Uiso   1.00
H850   H     0.86677   0.11167   0.88566   0.00000  Uiso   1.00
O851   O     0.88327   0.31680   0.77492   0.00000  Uiso   1.00
C852   C     0.88985   0.36264   0.79413   0.00000  Uiso   1.00
H853   H     0.88382   0.36409   0.83529   0.00000  Uiso   1.00
H854   H     0.92388   0.37599   0.78524   0.00000  Uiso   1.00
H855   H     0.86545   0.38664   0.77595   0.00000  Uiso   1.00
O856   O     0.61687   0.18829   0.76829   0.00000  Uiso   1.00
C857   C     0.62284   0.20993   0.72115   0.00000  Uiso   1.00
H858   H     0.59021   0.21603   0.70212   0.00000  Uiso   1.00
H859   H     0.64179   0.24368   0.72444   0.00000  Uiso   1.00
H860   H     0.64270   0.18598   0.69712   0.00000  Uiso   1.00
O861   O     0.76015   0.02726   0.74384   0.00000  Uiso   1.00
C862   C     0.79692   0.04385   0.71578   0.00000  Uiso   1.00
H863   H     0.82680   0.05102   0.73966   0.00000  Uiso   1.00
H864   H     0.78761   0.07565   0.69379   0.00000  Uiso   1.00
H865   H     0.80642   0.01613   0.68852   0.00000  Uiso   1.00
O866   O     0.81374   0.47087   0.88966   0.00000  Uiso   1.00
C867   C     0.85093   0.48204   0.85955   0.00000  Uiso   1.00
H868   H     0.84154   0.00487   0.82726   0.00000  Uiso   1.00
H869   H     0.86777   0.44957   0.84615   0.00000  Uiso   1.00
H870   H     0.87540   0.00201   0.88260   0.00000  Uiso   1.00
O871   O     0.73897   0.02713   0.92291   0.00000  Uiso   1.00
C872   C     0.70225   0.04367   0.95090   0.00000  Uiso   1.00
H873   H     0.67240   0.05069   0.92696   0.00000  Uiso   1.00
H874   H     0.71164   0.07555   0.97272   0.00000  Uiso   1.00
H875   H     0.69269   0.01598   0.97830   0.00000  Uiso   1.00
O876   O     0.68476   0.47050   0.77889   0.00000  Uiso   1.00
C877   C     0.64605   0.47414   0.80860   0.00000  Uiso   1.00
H878   H     0.65274   0.49445   0.84354   0.00000  Uiso   1.00
H879   H     0.63215   0.43869   0.81780   0.00000  Uiso   1.00
H880   H     0.62023   0.49355   0.78701   0.00000  Uiso   1.00
C881   C     0.16395   0.74994   0.83312   0.00000  Uiso   1.00
C882   C     0.33620   0.75000   0.83309   0.00000  Uiso   1.00
C883   C     0.25477   0.60224   0.78946   0.00000  Uiso   1.00
C884   C     0.28125   0.89791   0.86044   0.00000  Uiso   1.00
C885   C     0.24500   0.60216   0.87722   0.00000  Uiso   1.00
C886   C     0.21861   0.89761   0.80633   0.00000  Uiso   1.00
C887   C     0.25580   0.55217   0.78839   0.00000  Uiso   1.00
C888   C     0.28239   0.94773   0.86048   0.00000  Uiso   1.00
C889   C     0.24345   0.55210   0.87833   0.00000  Uiso   1.00
C890   C     0.21719   0.94742   0.80644   0.00000  Uiso   1.00
C891   C     0.24986   0.75002   0.73952   0.00000  Uiso   1.00
C892   C     0.24987   0.74997   0.92715   0.00000  Uiso   1.00
C893   C     0.24950   0.52669   0.83337   0.00000  Uiso   1.00
C894   C     0.24974   0.97335   0.83338   0.00000  Uiso   1.00
C895   C     0.24972   0.75001   0.68846   0.00000  Uiso   1.00
C896   C     0.24972   0.74995   0.97820   0.00000  Uiso   1.00
C897   C     0.04614   0.78142   0.86040   0.00000  Uiso   1.00
C898   C     0.45430   0.71457   0.85602   0.00000  Uiso   1.00
C899   C     0.45333   0.78361   0.80186   0.00000  Uiso   1.00
C900   C     0.04732   0.71855   0.79835   0.00000  Uiso   1.00
C901   C     0.09238   0.78086   0.86301   0.00000  Uiso   1.00
C902   C     0.40790   0.71386   0.85693   0.00000  Uiso   1.00
C903   C     0.40694   0.78479   0.80387   0.00000  Uiso   1.00
C904   C     0.09364   0.71904   0.79877   0.00000  Uiso   1.00
C905   C     0.11605   0.74984   0.83175   0.00000  Uiso   1.00
C906   C     0.38435   0.74974   0.83154   0.00000  Uiso   1.00
C907   C     0.02412   0.74995   0.82870   0.00000  Uiso   1.00
C908   C     0.47639   0.74912   0.82843   0.00000  Uiso   1.00
H909   H     0.02742   0.80550   0.88382   0.00000  Uiso   1.00
H910   H     0.47315   0.68878   0.87734   0.00000  Uiso   1.00
H911   H     0.47142   0.80930   0.77959   0.00000  Uiso   1.00
H912   H     0.02952   0.69423   0.77408   0.00000  Uiso   1.00
N913   N     0.25000   0.62624   0.83333   0.00000  Uiso   1.00
N914   N     0.25000   0.87377   0.83333   0.00000  Uiso   1.00
O915   O     0.18453   0.78974   0.83334   0.00000  Uiso   1.00
O916   O     0.31547   0.71026   0.83333   0.00000  Uiso   1.00
O917   O     0.31547   0.78974   0.83333   0.00000  Uiso   1.00
O918   O     0.18453   0.71026   0.83334   0.00000  Uiso   1.00
O919   O     0.25000   0.78973   0.76178   0.00000  Uiso   1.00
O920   O     0.25000   0.71027   0.90489   0.00000  Uiso   1.00
O921   O     0.25000   0.78973   0.90489   0.00000  Uiso   1.00
O922   O     0.25000   0.71027   0.76178   0.00000  Uiso   1.00
Zn923  Zn    0.25000   0.80307   0.83333   0.00000  Uiso   1.00
Zn924  Zn    0.25000   0.69693   0.83333   0.00000  Uiso   1.00
H925   H     0.25768   0.62203   0.75505   0.00000  Uiso   1.00
H926   H     0.30569   0.87846   0.88207   0.00000  Uiso   1.00
H927   H     0.24226   0.62189   0.91162   0.00000  Uiso   1.00
H928   H     0.19410   0.87794   0.78492   0.00000  Uiso   1.00
O929   O     0.11433   0.81160   0.89496   0.00000  Uiso   1.00
C930   C     0.11872   0.78958   0.94214   0.00000  Uiso   1.00
H931   H     0.13715   0.81374   0.96758   0.00000  Uiso   1.00
H932   H     0.13836   0.75635   0.93957   0.00000  Uiso   1.00
H933   H     0.08546   0.78247   0.95919   0.00000  Uiso   1.00
O934   O     0.38551   0.68145   0.88669   0.00000  Uiso   1.00
C935   C     0.38934   0.63613   0.86525   0.00000  Uiso   1.00
H936   H     0.37879   0.63595   0.82517   0.00000  Uiso   1.00
H937   H     0.42391   0.62232   0.86913   0.00000  Uiso   1.00
H938   H     0.36677   0.61167   0.88566   0.00000  Uiso   1.00
O939   O     0.38327   0.81680   0.77492   0.00000  Uiso   1.00
C940   C     0.38985   0.86264   0.79413   0.00000  Uiso   1.00
H941   H     0.38382   0.86409   0.83529   0.00000  Uiso   1.00
H942   H     0.42388   0.87599   0.78524   0.00000  Uiso   1.00
H943   H     0.36545   0.88664   0.77595   0.00000  Uiso   1.00
O944   O     0.11687   0.68829   0.76829   0.00000  Uiso   1.00
C945   C     0.12284   0.70993   0.72115   0.00000  Uiso   1.00
H946   H     0.09021   0.71603   0.70212   0.00000  Uiso   1.00
H947   H     0.14179   0.74368   0.72444   0.00000  Uiso   1.00
H948   H     0.14270   0.68598   0.69712   0.00000  Uiso   1.00
O949   O     0.26015   0.52726   0.74384   0.00000  Uiso   1.00
C950   C     0.29692   0.54385   0.71578   0.00000  Uiso   1.00
H951   H     0.32680   0.55102   0.73966   0.00000  Uiso   1.00
H952   H     0.28761   0.57565   0.69379   0.00000  Uiso   1.00
H953   H     0.30642   0.51613   0.68852   0.00000  Uiso   1.00
O954   O     0.31374   0.97087   0.88966   0.00000  Uiso   1.00
C955   C     0.35093   0.98204   0.85955   0.00000  Uiso   1.00
H956   H     0.34154   0.50487   0.82726   0.00000  Uiso   1.00
H957   H     0.36777   0.94957   0.84615   0.00000  Uiso   1.00
H958   H     0.37540   0.50201   0.88260   0.00000  Uiso   1.00
O959   O     0.23897   0.52713   0.92291   0.00000  Uiso   1.00
C960   C     0.20225   0.54367   0.95090   0.00000  Uiso   1.00
H961   H     0.17240   0.55069   0.92696   0.00000  Uiso   1.00
H962   H     0.21164   0.57555   0.97272   0.00000  Uiso   1.00
H963   H     0.19269   0.51598   0.97830   0.00000  Uiso   1.00
O964   O     0.18476   0.97050   0.77889   0.00000  Uiso   1.00
C965   C     0.14605   0.97414   0.80860   0.00000  Uiso   1.00
H966   H     0.15274   0.99445   0.84354   0.00000  Uiso   1.00
H967   H     0.13215   0.93869   0.81780   0.00000  Uiso   1.00
H968   H     0.12023   0.99355   0.78701   0.00000  Uiso   1.00
C969   C     0.66395   0.74994   0.83312   0.00000  Uiso   1.00
C970   C     0.83620   0.75000   0.83309   0.00000  Uiso   1.00
C971   C     0.75477   0.60224   0.78946   0.00000  Uiso   1.00
C972   C     0.78125   0.89791   0.86044   0.00000  Uiso   1.00
C973   C     0.74500   0.60216   0.87722   0.00000  Uiso   1.00
C974   C     0.71861   0.89761   0.80633   0.00000  Uiso   1.00
C975   C     0.75580   0.55217   0.78839   0.00000  Uiso   1.00
C976   C     0.78239   0.94773   0.86048   0.00000  Uiso   1.00
C977   C     0.74345   0.55210   0.87833   0.00000  Uiso   1.00
C978   C     0.71719   0.94742   0.80644   0.00000  Uiso   1.00
C979   C     0.74986   0.75002   0.73952   0.00000  Uiso   1.00
C980   C     0.74987   0.74997   0.92715   0.00000  Uiso   1.00
C981   C     0.74950   0.52669   0.83337   0.00000  Uiso   1.00
C982   C     0.74974   0.97335   0.83338   0.00000  Uiso   1.00
C983   C     0.74972   0.75001   0.68846   0.00000  Uiso   1.00
C984   C     0.74972   0.74995   0.97820   0.00000  Uiso   1.00
C985   C     0.54614   0.78142   0.86040   0.00000  Uiso   1.00
C986   C     0.95430   0.71457   0.85602   0.00000  Uiso   1.00
C987   C     0.95333   0.78361   0.80186   0.00000  Uiso   1.00
C988   C     0.54732   0.71855   0.79835   0.00000  Uiso   1.00
C989   C     0.59238   0.78086   0.86301   0.00000  Uiso   1.00
C990   C     0.90790   0.71386   0.85693   0.00000  Uiso   1.00
C991   C     0.90694   0.78479   0.80387   0.00000  Uiso   1.00
C992   C     0.59364   0.71904   0.79877   0.00000  Uiso   1.00
C993   C     0.61605   0.74984   0.83175   0.00000  Uiso   1.00
C994   C     0.88435   0.74974   0.83154   0.00000  Uiso   1.00
C995   C     0.52412   0.74995   0.82870   0.00000  Uiso   1.00
C996   C     0.97639   0.74912   0.82843   0.00000  Uiso   1.00
H997   H     0.52742   0.80550   0.88382   0.00000  Uiso   1.00
H998   H     0.97315   0.68878   0.87734   0.00000  Uiso   1.00
H999   H     0.97142   0.80930   0.77959   0.00000  Uiso   1.00
H1000  H     0.52952   0.69423   0.77408   0.00000  Uiso   1.00
N1001  N     0.75000   0.62624   0.83333   0.00000  Uiso   1.00
N1002  N     0.75000   0.87377   0.83333   0.00000  Uiso   1.00
O1003  O     0.68453   0.78974   0.83334   0.00000  Uiso   1.00
O1004  O     0.81547   0.71026   0.83333   0.00000  Uiso   1.00
O1005  O     0.81547   0.78974   0.83333   0.00000  Uiso   1.00
O1006  O     0.68453   0.71026   0.83334   0.00000  Uiso   1.00
O1007  O     0.75000   0.78973   0.76178   0.00000  Uiso   1.00
O1008  O     0.75000   0.71027   0.90489   0.00000  Uiso   1.00
O1009  O     0.75000   0.78973   0.90489   0.00000  Uiso   1.00
O1010  O     0.75000   0.71027   0.76178   0.00000  Uiso   1.00
Zn1011 Zn    0.75000   0.80307   0.83333   0.00000  Uiso   1.00
Zn1012 Zn    0.75000   0.69693   0.83333   0.00000  Uiso   1.00
H1013  H     0.75768   0.62203   0.75505   0.00000  Uiso   1.00
H1014  H     0.80569   0.87846   0.88207   0.00000  Uiso   1.00
H1015  H     0.74226   0.62189   0.91162   0.00000  Uiso   1.00
H1016  H     0.69410   0.87794   0.78492   0.00000  Uiso   1.00
O1017  O     0.61433   0.81160   0.89496   0.00000  Uiso   1.00
C1018  C     0.61872   0.78958   0.94214   0.00000  Uiso   1.00
H1019  H     0.63715   0.81374   0.96758   0.00000  Uiso   1.00
H1020  H     0.63836   0.75635   0.93957   0.00000  Uiso   1.00
H1021  H     0.58546   0.78247   0.95919   0.00000  Uiso   1.00
O1022  O     0.88551   0.68145   0.88669   0.00000  Uiso   1.00
C1023  C     0.88934   0.63613   0.86525   0.00000  Uiso   1.00
H1024  H     0.87879   0.63595   0.82517   0.00000  Uiso   1.00
H1025  H     0.92391   0.62232   0.86913   0.00000  Uiso   1.00
H1026  H     0.86677   0.61167   0.88566   0.00000  Uiso   1.00
O1027  O     0.88327   0.81680   0.77492   0.00000  Uiso   1.00
C1028  C     0.88985   0.86264   0.79413   0.00000  Uiso   1.00
H1029  H     0.88382   0.86409   0.83529   0.00000  Uiso   1.00
H1030  H     0.92388   0.87599   0.78524   0.00000  Uiso   1.00
H1031  H     0.86545   0.88664   0.77595   0.00000  Uiso   1.00
O1032  O     0.61687   0.68829   0.76829   0.00000  Uiso   1.00
C1033  C     0.62284   0.70993   0.72115   0.00000  Uiso   1.00
H1034  H     0.59021   0.71603   0.70212   0.00000  Uiso   1.00
H1035  H     0.64179   0.74368   0.72444   0.00000  Uiso   1.00
H1036  H     0.64270   0.68598   0.69712   0.00000  Uiso   1.00
O1037  O     0.76015   0.52726   0.74384   0.00000  Uiso   1.00
C1038  C     0.79692   0.54385   0.71578   0.00000  Uiso   1.00
H1039  H     0.82680   0.55102   0.73966   0.00000  Uiso   1.00
H1040  H     0.78761   0.57565   0.69379   0.00000  Uiso   1.00
H1041  H     0.80642   0.51613   0.68852   0.00000  Uiso   1.00
O1042  O     0.81374   0.97087   0.88966   0.00000  Uiso   1.00
C1043  C     0.85093   0.98204   0.85955   0.00000  Uiso   1.00
H1044  H     0.84154   0.50487   0.82726   0.00000  Uiso   1.00
H1045  H     0.86777   0.94957   0.84615   0.00000  Uiso   1.00
H1046  H     0.87540   0.50201   0.88260   0.00000  Uiso   1.00
O1047  O     0.73897   0.52713   0.92291   0.00000  Uiso   1.00
C1048  C     0.70225   0.54367   0.95090   0.00000  Uiso   1.00
H1049  H     0.67240   0.55069   0.92696   0.00000  Uiso   1.00
H1050  H     0.71164   0.57555   0.97272   0.00000  Uiso   1.00
H1051  H     0.69269   0.51598   0.97830   0.00000  Uiso   1.00
O1052  O     0.68476   0.97050   0.77889   0.00000  Uiso   1.00
C1053  C     0.64605   0.97414   0.80860   0.00000  Uiso   1.00
H1054  H     0.65274   0.99445   0.84354   0.00000  Uiso   1.00
H1055  H     0.63215   0.93869   0.81780   0.00000  Uiso   1.00
H1056  H     0.62023   0.99355   0.78701   0.00000  Uiso   1.00
loop_
_geom_bond_atom_site_label_1
_geom_bond_atom_site_label_2
_geom_bond_distance
_geom_bond_site_symmetry_2
_ccdc_geom_bond_type
C1     C25     1.433   .     S
C1     O38     1.284   .     A
C1     O35     1.283   .     A
C2     C26     1.441   .     S
C2     O36     1.284   .     A
C2     O37     1.287   .     A
C3     C7      1.420   .     A
C3     N33     1.363   .     A
C3     H45     1.079   .     S
C4     C8      1.412   .     A
C4     H46     1.082   .     S
C4     N34     1.364   .     A
C5     H47     1.079   .     S
C5     N33     1.363   .     A
C5     C9      1.420   .     A
C6     H48     1.082   .     S
C6     N34     1.362   .     A
C6     C10     1.412   .     A
C7     C13     1.413   .     A
C7     O69     1.390   .     S
C8     O74     1.382   .     S
C8     C14     1.415   .     A
C9     O79     1.390   .     S
C9     C13     1.413   .     A
C10    C14     1.414   .     A
C10    O84     1.381   .     S
C11    O42     1.273   .     A
C11    C15     1.362   .     S
C11    O39     1.273   .     A
C12    O40     1.273   .     A
C12    C16     1.362   .     S
C12    O41     1.273   .     A
C13    C190    1.511   1_545 S
C14    C189    1.511   .     S
C15    C720    1.163   1_554 S
C16    C367    1.163   .     S
C17    H29     1.084   .     S
C17    C27     1.393   .     A
C17    C21     1.385   .     A
C18    H30     1.084   .     S
C18    C28     1.391   .     A
C18    C22     1.388   .     A
C19    H31     1.084   .     S
C19    C23     1.389   .     A
C19    C28     1.390   .     A
C20    C24     1.386   .     A
C20    H32     1.084   .     S
C20    C27     1.392   .     A
C21    O49     1.383   .     S
C21    C25     1.407   .     A
C22    O54     1.386   .     S
C22    C26     1.410   .     A
C23    O59     1.385   .     S
C23    C26     1.409   .     A
C24    O64     1.383   .     S
C24    C25     1.408   .     A
C27    C116    1.428   1_455 S
C28    C115    1.428   .     S
N33    Zn44    2.003   .     S
N34    Zn43    2.003   .     S
O35    Zn43    1.994   .     S
O36    Zn44    1.994   .     S
O37    Zn43    1.996   .     S
O38    Zn44    1.996   .     S
O39    Zn43    1.947   .     S
O40    Zn44    1.947   .     S
O41    Zn43    1.946   .     S
O42    Zn44    1.946   .     S
O49    C50     1.410   .     S
C50    H52     1.114   .     S
C50    H53     1.113   .     S
C50    H51     1.109   .     S
O54    C55     1.412   .     S
C55    H56     1.114   .     S
C55    H57     1.111   .     S
C55    H58     1.110   .     S
O59    C60     1.410   .     S
C60    H63     1.109   .     S
C60    H62     1.111   .     S
C60    H61     1.114   .     S
O64    C65     1.410   .     S
C65    H67     1.114   .     S
C65    H68     1.109   .     S
C65    H66     1.113   .     S
O69    C70     1.412   .     S
C70    H71     1.115   .     S
C70    H73     1.109   .     S
C70    H72     1.110   .     S
O74    C75     1.409   .     S
C75    H77     1.111   .     S
C75    H252    1.113   .     S
C75    H254    1.109   .     S
H76    C251    1.113   1_545 S
H78    C251    1.109   1_545 S
O79    C80     1.412   .     S
C80    H83     1.109   .     S
C80    H82     1.110   .     S
C80    H81     1.115   .     S
O84    C85     1.409   .     S
C85    H86     1.114   .     S
C85    H87     1.113   .     S
C85    H88     1.109   .     S
C89    C113    1.433   .     S
C89    O126    1.284   .     A
C89    O123    1.283   .     A
C90    C114    1.441   .     S
C90    O124    1.284   .     A
C90    O125    1.287   .     A
C91    C95     1.420   .     A
C91    N121    1.363   .     A
C91    H133    1.079   .     S
C92    C96     1.412   .     A
C92    H134    1.082   .     S
C92    N122    1.364   .     A
C93    H135    1.079   .     S
C93    N121    1.363   .     A
C93    C97     1.420   .     A
C94    H136    1.082   .     S
C94    N122    1.362   .     A
C94    C98     1.412   .     A
C95    C101    1.413   .     A
C95    O157    1.390   .     S
C96    O162    1.382   .     S
C96    C102    1.415   .     A
C97    O167    1.390   .     S
C97    C101    1.413   .     A
C98    C102    1.414   .     A
C98    O172    1.381   .     S
C99    O130    1.273   .     A
C99    C103    1.362   .     S
C99    O127    1.273   .     A
C100   O128    1.273   .     A
C100   C104    1.362   .     S
C100   O129    1.273   .     A
C101   C278    1.511   1_545 S
C102   C277    1.511   .     S
C103   C808    1.163   1_554 S
C104   C455    1.163   .     S
C105   H117    1.084   .     S
C105   C115    1.393   .     A
C105   C109    1.385   .     A
C106   H118    1.084   .     S
C106   C116    1.391   .     A
C106   C110    1.388   .     A
C107   H119    1.084   .     S
C107   C111    1.389   .     A
C107   C116    1.390   .     A
C108   C112    1.386   .     A
C108   H120    1.084   .     S
C108   C115    1.392   .     A
C109   O137    1.383   .     S
C109   C113    1.407   .     A
C110   O142    1.386   .     S
C110   C114    1.410   .     A
C111   O147    1.385   .     S
C111   C114    1.409   .     A
C112   O152    1.383   .     S
C112   C113    1.408   .     A
C116   C27     1.428   1_655 S
N121   Zn132   2.003   .     S
N122   Zn131   2.003   .     S
O123   Zn131   1.994   .     S
O124   Zn132   1.994   .     S
O125   Zn131   1.996   .     S
O126   Zn132   1.996   .     S
O127   Zn131   1.947   .     S
O128   Zn132   1.947   .     S
O129   Zn131   1.946   .     S
O130   Zn132   1.946   .     S
O137   C138    1.410   .     S
C138   H140    1.114   .     S
C138   H141    1.113   .     S
C138   H139    1.109   .     S
O142   C143    1.412   .     S
C143   H144    1.114   .     S
C143   H145    1.111   .     S
C143   H146    1.110   .     S
O147   C148    1.410   .     S
C148   H151    1.109   .     S
C148   H150    1.111   .     S
C148   H149    1.114   .     S
O152   C153    1.410   .     S
C153   H155    1.114   .     S
C153   H156    1.109   .     S
C153   H154    1.113   .     S
O157   C158    1.412   .     S
C158   H159    1.115   .     S
C158   H161    1.109   .     S
C158   H160    1.110   .     S
O162   C163    1.409   .     S
C163   H165    1.111   .     S
C163   H340    1.113   .     S
C163   H342    1.109   .     S
H164   C339    1.113   1_545 S
H166   C339    1.109   1_545 S
O167   C168    1.412   .     S
C168   H171    1.109   .     S
C168   H170    1.110   .     S
C168   H169    1.115   .     S
O172   C173    1.409   .     S
C173   H174    1.114   .     S
C173   H175    1.113   .     S
C173   H176    1.109   .     S
C177   C201    1.433   .     S
C177   O214    1.284   .     A
C177   O211    1.283   .     A
C178   C202    1.441   .     S
C178   O212    1.284   .     A
C178   O213    1.287   .     A
C179   C183    1.420   .     A
C179   N209    1.363   .     A
C179   H221    1.079   .     S
C180   C184    1.412   .     A
C180   H222    1.082   .     S
C180   N210    1.364   .     A
C181   H223    1.079   .     S
C181   N209    1.363   .     A
C181   C185    1.420   .     A
C182   H224    1.082   .     S
C182   N210    1.362   .     A
C182   C186    1.412   .     A
C183   C189    1.413   .     A
C183   O245    1.390   .     S
C184   O250    1.382   .     S
C184   C190    1.415   .     A
C185   O255    1.390   .     S
C185   C189    1.413   .     A
C186   C190    1.414   .     A
C186   O260    1.381   .     S
C187   O218    1.273   .     A
C187   C191    1.362   .     S
C187   O215    1.273   .     A
C188   O216    1.273   .     A
C188   C192    1.362   .     S
C188   O217    1.273   .     A
C190   C13     1.511   1_565 S
C191   C896    1.163   1_554 S
C192   C543    1.163   .     S
C193   H205    1.084   .     S
C193   C203    1.393   .     A
C193   C197    1.385   .     A
C194   H206    1.084   .     S
C194   C204    1.391   .     A
C194   C198    1.388   .     A
C195   H207    1.084   .     S
C195   C199    1.389   .     A
C195   C204    1.390   .     A
C196   C200    1.386   .     A
C196   H208    1.084   .     S
C196   C203    1.392   .     A
C197   O225    1.383   .     S
C197   C201    1.407   .     A
C198   O230    1.386   .     S
C198   C202    1.410   .     A
C199   O235    1.385   .     S
C199   C202    1.409   .     A
C200   O240    1.383   .     S
C200   C201    1.408   .     A
C203   C292    1.428   1_455 S
C204   C291    1.428   .     S
N209   Zn220   2.003   .     S
N210   Zn219   2.003   .     S
O211   Zn219   1.994   .     S
O212   Zn220   1.994   .     S
O213   Zn219   1.996   .     S
O214   Zn220   1.996   .     S
O215   Zn219   1.947   .     S
O216   Zn220   1.947   .     S
O217   Zn219   1.946   .     S
O218   Zn220   1.946   .     S
O225   C226    1.410   .     S
C226   H228    1.114   .     S
C226   H229    1.113   .     S
C226   H227    1.109   .     S
O230   C231    1.412   .     S
C231   H232    1.114   .     S
C231   H233    1.111   .     S
C231   H234    1.110   .     S
O235   C236    1.410   .     S
C236   H239    1.109   .     S
C236   H238    1.111   .     S
C236   H237    1.114   .     S
O240   C241    1.410   .     S
C241   H243    1.114   .     S
C241   H244    1.109   .     S
C241   H242    1.113   .     S
O245   C246    1.412   .     S
C246   H247    1.115   .     S
C246   H249    1.109   .     S
C246   H248    1.110   .     S
O250   C251    1.409   .     S
C251   H253    1.111   .     S
C251   H76     1.113   1_565 S
C251   H78     1.109   1_565 S
O255   C256    1.412   .     S
C256   H259    1.109   .     S
C256   H258    1.110   .     S
C256   H257    1.115   .     S
O260   C261    1.409   .     S
C261   H262    1.114   .     S
C261   H263    1.113   .     S
C261   H264    1.109   .     S
C265   C289    1.433   .     S
C265   O302    1.284   .     A
C265   O299    1.283   .     A
C266   C290    1.441   .     S
C266   O300    1.284   .     A
C266   O301    1.287   .     A
C267   C271    1.420   .     A
C267   N297    1.363   .     A
C267   H309    1.079   .     S
C268   C272    1.412   .     A
C268   H310    1.082   .     S
C268   N298    1.364   .     A
C269   H311    1.079   .     S
C269   N297    1.363   .     A
C269   C273    1.420   .     A
C270   H312    1.082   .     S
C270   N298    1.362   .     A
C270   C274    1.412   .     A
C271   C277    1.413   .     A
C271   O333    1.390   .     S
C272   O338    1.382   .     S
C272   C278    1.415   .     A
C273   O343    1.390   .     S
C273   C277    1.413   .     A
C274   C278    1.414   .     A
C274   O348    1.381   .     S
C275   O306    1.273   .     A
C275   C279    1.362   .     S
C275   O303    1.273   .     A
C276   O304    1.273   .     A
C276   C280    1.362   .     S
C276   O305    1.273   .     A
C278   C101    1.511   1_565 S
C279   C984    1.163   1_554 S
C280   C631    1.163   .     S
C281   H293    1.084   .     S
C281   C291    1.393   .     A
C281   C285    1.385   .     A
C282   H294    1.084   .     S
C282   C292    1.391   .     A
C282   C286    1.388   .     A
C283   H295    1.084   .     S
C283   C287    1.389   .     A
C283   C292    1.390   .     A
C284   C288    1.386   .     A
C284   H296    1.084   .     S
C284   C291    1.392   .     A
C285   O313    1.383   .     S
C285   C289    1.407   .     A
C286   O318    1.386   .     S
C286   C290    1.410   .     A
C287   O323    1.385   .     S
C287   C290    1.409   .     A
C288   O328    1.383   .     S
C288   C289    1.408   .     A
C292   C203    1.428   1_655 S
N297   Zn308   2.003   .     S
N298   Zn307   2.003   .     S
O299   Zn307   1.994   .     S
O300   Zn308   1.994   .     S
O301   Zn307   1.996   .     S
O302   Zn308   1.996   .     S
O303   Zn307   1.947   .     S
O304   Zn308   1.947   .     S
O305   Zn307   1.946   .     S
O306   Zn308   1.946   .     S
O313   C314    1.410   .     S
C314   H316    1.114   .     S
C314   H317    1.113   .     S
C314   H315    1.109   .     S
O318   C319    1.412   .     S
C319   H320    1.114   .     S
C319   H321    1.111   .     S
C319   H322    1.110   .     S
O323   C324    1.410   .     S
C324   H327    1.109   .     S
C324   H326    1.111   .     S
C324   H325    1.114   .     S
O328   C329    1.410   .     S
C329   H331    1.114   .     S
C329   H332    1.109   .     S
C329   H330    1.113   .     S
O333   C334    1.412   .     S
C334   H335    1.115   .     S
C334   H337    1.109   .     S
C334   H336    1.110   .     S
O338   C339    1.409   .     S
C339   H341    1.111   .     S
C339   H164    1.113   1_565 S
C339   H166    1.109   1_565 S
O343   C344    1.412   .     S
C344   H347    1.109   .     S
C344   H346    1.110   .     S
C344   H345    1.115   .     S
O348   C349    1.409   .     S
C349   H350    1.114   .     S
C349   H351    1.113   .     S
C349   H352    1.109   .     S
C353   C377    1.433   .     S
C353   O390    1.284   .     A
C353   O387    1.283   .     A
C354   C378    1.441   .     S
C354   O388    1.284   .     A
C354   O389    1.287   .     A
C355   C359    1.420   .     A
C355   N385    1.363   .     A
C355   H397    1.079   .     S
C356   C360    1.412   .     A
C356   H398    1.082   .     S
C356   N386    1.364   .     A
C357   H399    1.079   .     S
C357   N385    1.363   .     A
C357   C361    1.420   .     A
C358   H400    1.082   .     S
C358   N386    1.362   .     A
C358   C362    1.412   .     A
C359   C365    1.413   .     A
C359   O421    1.390   .     S
C360   O426    1.382   .     S
C360   C366    1.415   .     A
C361   O431    1.390   .     S
C361   C365    1.413   .     A
C362   C366    1.414   .     A
C362   O436    1.381   .     S
C363   O394    1.273   .     A
C363   C367    1.362   .     S
C363   O391    1.273   .     A
C364   O392    1.273   .     A
C364   C368    1.362   .     S
C364   O393    1.273   .     A
C365   C542    1.511   1_545 S
C366   C541    1.511   .     S
C368   C719    1.163   .     S
C369   H381    1.084   .     S
C369   C379    1.393   .     A
C369   C373    1.385   .     A
C370   H382    1.084   .     S
C370   C380    1.391   .     A
C370   C374    1.388   .     A
C371   H383    1.084   .     S
C371   C375    1.389   .     A
C371   C380    1.390   .     A
C372   C376    1.386   .     A
C372   H384    1.084   .     S
C372   C379    1.392   .     A
C373   O401    1.383   .     S
C373   C377    1.407   .     A
C374   O406    1.386   .     S
C374   C378    1.410   .     A
C375   O411    1.385   .     S
C375   C378    1.409   .     A
C376   O416    1.383   .     S
C376   C377    1.408   .     A
C379   C468    1.428   1_455 S
C380   C467    1.428   .     S
N385   Zn396   2.003   .     S
N386   Zn395   2.003   .     S
O387   Zn395   1.994   .     S
O388   Zn396   1.994   .     S
O389   Zn395   1.996   .     S
O390   Zn396   1.996   .     S
O391   Zn395   1.947   .     S
O392   Zn396   1.947   .     S
O393   Zn395   1.946   .     S
O394   Zn396   1.946   .     S
O401   C402    1.410   .     S
C402   H404    1.114   .     S
C402   H405    1.113   .     S
C402   H403    1.109   .     S
O406   C407    1.412   .     S
C407   H408    1.114   .     S
C407   H409    1.111   .     S
C407   H410    1.110   .     S
O411   C412    1.410   .     S
C412   H415    1.109   .     S
C412   H414    1.111   .     S
C412   H413    1.114   .     S
O416   C417    1.410   .     S
C417   H419    1.114   .     S
C417   H420    1.109   .     S
C417   H418    1.113   .     S
O421   C422    1.412   .     S
C422   H423    1.115   .     S
C422   H425    1.109   .     S
C422   H424    1.110   .     S
O426   C427    1.409   .     S
C427   H429    1.111   .     S
C427   H604    1.113   .     S
C427   H606    1.109   .     S
H428   C603    1.113   1_545 S
H430   C603    1.109   1_545 S
O431   C432    1.412   .     S
C432   H435    1.109   .     S
C432   H434    1.110   .     S
C432   H433    1.115   .     S
O436   C437    1.409   .     S
C437   H438    1.114   .     S
C437   H439    1.113   .     S
C437   H440    1.109   .     S
C441   C465    1.433   .     S
C441   O478    1.284   .     A
C441   O475    1.283   .     A
C442   C466    1.441   .     S
C442   O476    1.284   .     A
C442   O477    1.287   .     A
C443   C447    1.420   .     A
C443   N473    1.363   .     A
C443   H485    1.079   .     S
C444   C448    1.412   .     A
C444   H486    1.082   .     S
C444   N474    1.364   .     A
C445   H487    1.079   .     S
C445   N473    1.363   .     A
C445   C449    1.420   .     A
C446   H488    1.082   .     S
C446   N474    1.362   .     A
C446   C450    1.412   .     A
C447   C453    1.413   .     A
C447   O509    1.390   .     S
C448   O514    1.382   .     S
C448   C454    1.415   .     A
C449   O519    1.390   .     S
C449   C453    1.413   .     A
C450   C454    1.414   .     A
C450   O524    1.381   .     S
C451   O482    1.273   .     A
C451   C455    1.362   .     S
C451   O479    1.273   .     A
C452   O480    1.273   .     A
C452   C456    1.362   .     S
C452   O481    1.273   .     A
C453   C630    1.511   1_545 S
C454   C629    1.511   .     S
C456   C807    1.163   .     S
C457   H469    1.084   .     S
C457   C467    1.393   .     A
C457   C461    1.385   .     A
C458   H470    1.084   .     S
C458   C468    1.391   .     A
C458   C462    1.388   .     A
C459   H471    1.084   .     S
C459   C463    1.389   .     A
C459   C468    1.390   .     A
C460   C464    1.386   .     A
C460   H472    1.084   .     S
C460   C467    1.392   .     A
C461   O489    1.383   .     S
C461   C465    1.407   .     A
C462   O494    1.386   .     S
C462   C466    1.410   .     A
C463   O499    1.385   .     S
C463   C466    1.409   .     A
C464   O504    1.383   .     S
C464   C465    1.408   .     A
C468   C379    1.428   1_655 S
N473   Zn484   2.003   .     S
N474   Zn483   2.003   .     S
O475   Zn483   1.994   .     S
O476   Zn484   1.994   .     S
O477   Zn483   1.996   .     S
O478   Zn484   1.996   .     S
O479   Zn483   1.947   .     S
O480   Zn484   1.947   .     S
O481   Zn483   1.946   .     S
O482   Zn484   1.946   .     S
O489   C490    1.410   .     S
C490   H492    1.114   .     S
C490   H493    1.113   .     S
C490   H491    1.109   .     S
O494   C495    1.412   .     S
C495   H496    1.114   .     S
C495   H497    1.111   .     S
C495   H498    1.110   .     S
O499   C500    1.410   .     S
C500   H503    1.109   .     S
C500   H502    1.111   .     S
C500   H501    1.114   .     S
O504   C505    1.410   .     S
C505   H507    1.114   .     S
C505   H508    1.109   .     S
C505   H506    1.113   .     S
O509   C510    1.412   .     S
C510   H511    1.115   .     S
C510   H513    1.109   .     S
C510   H512    1.110   .     S
O514   C515    1.409   .     S
C515   H517    1.111   .     S
C515   H692    1.113   .     S
C515   H694    1.109   .     S
H516   C691    1.113   1_545 S
H518   C691    1.109   1_545 S
O519   C520    1.412   .     S
C520   H523    1.109   .     S
C520   H522    1.110   .     S
C520   H521    1.115   .     S
O524   C525    1.409   .     S
C525   H526    1.114   .     S
C525   H527    1.113   .     S
C525   H528    1.109   .     S
C529   C553    1.433   .     S
C529   O566    1.284   .     A
C529   O563    1.283   .     A
C530   C554    1.441   .     S
C530   O564    1.284   .     A
C530   O565    1.287   .     A
C531   C535    1.420   .     A
C531   N561    1.363   .     A
C531   H573    1.079   .     S
C532   C536    1.412   .     A
C532   H574    1.082   .     S
C532   N562    1.364   .     A
C533   H575    1.079   .     S
C533   N561    1.363   .     A
C533   C537    1.420   .     A
C534   H576    1.082   .     S
C534   N562    1.362   .     A
C534   C538    1.412   .     A
C535   C541    1.413   .     A
C535   O597    1.390   .     S
C536   O602    1.382   .     S
C536   C542    1.415   .     A
C537   O607    1.390   .     S
C537   C541    1.413   .     A
C538   C542    1.414   .     A
C538   O612    1.381   .     S
C539   O570    1.273   .     A
C539   C543    1.362   .     S
C539   O567    1.273   .     A
C540   O568    1.273   .     A
C540   C544    1.362   .     S
C540   O569    1.273   .     A
C542   C365    1.511   1_565 S
C544   C895    1.163   .     S
C545   H557    1.084   .     S
C545   C555    1.393   .     A
C545   C549    1.385   .     A
C546   H558    1.084   .     S
C546   C556    1.391   .     A
C546   C550    1.388   .     A
C547   H559    1.084   .     S
C547   C551    1.389   .     A
C547   C556    1.390   .     A
C548   C552    1.386   .     A
C548   H560    1.084   .     S
C548   C555    1.392   .     A
C549   O577    1.383   .     S
C549   C553    1.407   .     A
C550   O582    1.386   .     S
C550   C554    1.410   .     A
C551   O587    1.385   .     S
C551   C554    1.409   .     A
C552   O592    1.383   .     S
C552   C553    1.408   .     A
C555   C644    1.428   1_455 S
C556   C643    1.428   .     S
N561   Zn572   2.003   .     S
N562   Zn571   2.003   .     S
O563   Zn571   1.994   .     S
O564   Zn572   1.994   .     S
O565   Zn571   1.996   .     S
O566   Zn572   1.996   .     S
O567   Zn571   1.947   .     S
O568   Zn572   1.947   .     S
O569   Zn571   1.946   .     S
O570   Zn572   1.946   .     S
O577   C578    1.410   .     S
C578   H580    1.114   .     S
C578   H581    1.113   .     S
C578   H579    1.109   .     S
O582   C583    1.412   .     S
C583   H584    1.114   .     S
C583   H585    1.111   .     S
C583   H586    1.110   .     S
O587   C588    1.410   .     S
C588   H591    1.109   .     S
C588   H590    1.111   .     S
C588   H589    1.114   .     S
O592   C593    1.410   .     S
C593   H595    1.114   .     S
C593   H596    1.109   .     S
C593   H594    1.113   .     S
O597   C598    1.412   .     S
C598   H599    1.115   .     S
C598   H601    1.109   .     S
C598   H600    1.110   .     S
O602   C603    1.409   .     S
C603   H605    1.111   .     S
C603   H428    1.113   1_565 S
C603   H430    1.109   1_565 S
O607   C608    1.412   .     S
C608   H611    1.109   .     S
C608   H610    1.110   .     S
C608   H609    1.115   .     S
O612   C613    1.409   .     S
C613   H614    1.114   .     S
C613   H615    1.113   .     S
C613   H616    1.109   .     S
C617   C641    1.433   .     S
C617   O654    1.284   .     A
C617   O651    1.283   .     A
C618   C642    1.441   .     S
C618   O652    1.284   .     A
C618   O653    1.287   .     A
C619   C623    1.420   .     A
C619   N649    1.363   .     A
C619   H661    1.079   .     S
C620   C624    1.412   .     A
C620   H662    1.082   .     S
C620   N650    1.364   .     A
C621   H663    1.079   .     S
C621   N649    1.363   .     A
C621   C625    1.420   .     A
C622   H664    1.082   .     S
C622   N650    1.362   .     A
C622   C626    1.412   .     A
C623   C629    1.413   .     A
C623   O685    1.390   .     S
C624   O690    1.382   .     S
C624   C630    1.415   .     A
C625   O695    1.390   .     S
C625   C629    1.413   .     A
C626   C630    1.414   .     A
C626   O700    1.381   .     S
C627   O658    1.273   .     A
C627   C631    1.362   .     S
C627   O655    1.273   .     A
C628   O656    1.273   .     A
C628   C632    1.362   .     S
C628   O657    1.273   .     A
C630   C453    1.511   1_565 S
C632   C983    1.163   .     S
C633   H645    1.084   .     S
C633   C643    1.393   .     A
C633   C637    1.385   .     A
C634   H646    1.084   .     S
C634   C644    1.391   .     A
C634   C638    1.388   .     A
C635   H647    1.084   .     S
C635   C639    1.389   .     A
C635   C644    1.390   .     A
C636   C640    1.386   .     A
C636   H648    1.084   .     S
C636   C643    1.392   .     A
C637   O665    1.383   .     S
C637   C641    1.407   .     A
C638   O670    1.386   .     S
C638   C642    1.410   .     A
C639   O675    1.385   .     S
C639   C642    1.409   .     A
C640   O680    1.383   .     S
C640   C641    1.408   .     A
C644   C555    1.428   1_655 S
N649   Zn660   2.003   .     S
N650   Zn659   2.003   .     S
O651   Zn659   1.994   .     S
O652   Zn660   1.994   .     S
O653   Zn659   1.996   .     S
O654   Zn660   1.996   .     S
O655   Zn659   1.947   .     S
O656   Zn660   1.947   .     S
O657   Zn659   1.946   .     S
O658   Zn660   1.946   .     S
O665   C666    1.410   .     S
C666   H668    1.114   .     S
C666   H669    1.113   .     S
C666   H667    1.109   .     S
O670   C671    1.412   .     S
C671   H672    1.114   .     S
C671   H673    1.111   .     S
C671   H674    1.110   .     S
O675   C676    1.410   .     S
C676   H679    1.109   .     S
C676   H678    1.111   .     S
C676   H677    1.114   .     S
O680   C681    1.410   .     S
C681   H683    1.114   .     S
C681   H684    1.109   .     S
C681   H682    1.113   .     S
O685   C686    1.412   .     S
C686   H687    1.115   .     S
C686   H689    1.109   .     S
C686   H688    1.110   .     S
O690   C691    1.409   .     S
C691   H693    1.111   .     S
C691   H516    1.113   1_565 S
C691   H518    1.109   1_565 S
O695   C696    1.412   .     S
C696   H699    1.109   .     S
C696   H698    1.110   .     S
C696   H697    1.115   .     S
O700   C701    1.409   .     S
C701   H702    1.114   .     S
C701   H703    1.113   .     S
C701   H704    1.109   .     S
C705   C729    1.433   .     S
C705   O742    1.284   .     A
C705   O739    1.283   .     A
C706   C730    1.441   .     S
C706   O740    1.284   .     A
C706   O741    1.287   .     A
C707   C711    1.420   .     A
C707   N737    1.363   .     A
C707   H749    1.079   .     S
C708   C712    1.412   .     A
C708   H750    1.082   .     S
C708   N738    1.364   .     A
C709   H751    1.079   .     S
C709   N737    1.363   .     A
C709   C713    1.420   .     A
C710   H752    1.082   .     S
C710   N738    1.362   .     A
C710   C714    1.412   .     A
C711   C717    1.413   .     A
C711   O773    1.390   .     S
C712   O778    1.382   .     S
C712   C718    1.415   .     A
C713   O783    1.390   .     S
C713   C717    1.413   .     A
C714   C718    1.414   .     A
C714   O788    1.381   .     S
C715   O746    1.273   .     A
C715   C719    1.362   .     S
C715   O743    1.273   .     A
C716   O744    1.273   .     A
C716   C720    1.362   .     S
C716   O745    1.273   .     A
C717   C894    1.511   1_545 S
C718   C893    1.511   .     S
C720   C15     1.163   1_556 S
C721   H733    1.084   .     S
C721   C731    1.393   .     A
C721   C725    1.385   .     A
C722   H734    1.084   .     S
C722   C732    1.391   .     A
C722   C726    1.388   .     A
C723   H735    1.084   .     S
C723   C727    1.389   .     A
C723   C732    1.390   .     A
C724   C728    1.386   .     A
C724   H736    1.084   .     S
C724   C731    1.392   .     A
C725   O753    1.383   .     S
C725   C729    1.407   .     A
C726   O758    1.386   .     S
C726   C730    1.410   .     A
C727   O763    1.385   .     S
C727   C730    1.409   .     A
C728   O768    1.383   .     S
C728   C729    1.408   .     A
C731   C820    1.428   1_455 S
C732   C819    1.428   .     S
N737   Zn748   2.003   .     S
N738   Zn747   2.003   .     S
O739   Zn747   1.994   .     S
O740   Zn748   1.994   .     S
O741   Zn747   1.996   .     S
O742   Zn748   1.996   .     S
O743   Zn747   1.947   .     S
O744   Zn748   1.947   .     S
O745   Zn747   1.946   .     S
O746   Zn748   1.946   .     S
O753   C754    1.410   .     S
C754   H756    1.114   .     S
C754   H757    1.113   .     S
C754   H755    1.109   .     S
O758   C759    1.412   .     S
C759   H760    1.114   .     S
C759   H761    1.111   .     S
C759   H762    1.110   .     S
O763   C764    1.410   .     S
C764   H767    1.109   .     S
C764   H766    1.111   .     S
C764   H765    1.114   .     S
O768   C769    1.410   .     S
C769   H771    1.114   .     S
C769   H772    1.109   .     S
C769   H770    1.113   .     S
O773   C774    1.412   .     S
C774   H775    1.115   .     S
C774   H777    1.109   .     S
C774   H776    1.110   .     S
O778   C779    1.409   .     S
C779   H781    1.111   .     S
C779   H956    1.113   .     S
C779   H958    1.109   .     S
H780   C955    1.113   1_545 S
H782   C955    1.109   1_545 S
O783   C784    1.412   .     S
C784   H787    1.109   .     S
C784   H786    1.110   .     S
C784   H785    1.115   .     S
O788   C789    1.409   .     S
C789   H790    1.114   .     S
C789   H791    1.113   .     S
C789   H792    1.109   .     S
C793   C817    1.433   .     S
C793   O830    1.284   .     A
C793   O827    1.283   .     A
C794   C818    1.441   .     S
C794   O828    1.284   .     A
C794   O829    1.287   .     A
C795   C799    1.420   .     A
C795   N825    1.363   .     A
C795   H837    1.079   .     S
C796   C800    1.412   .     A
C796   H838    1.082   .     S
C796   N826    1.364   .     A
C797   H839    1.079   .     S
C797   N825    1.363   .     A
C797   C801    1.420   .     A
C798   H840    1.082   .     S
C798   N826    1.362   .     A
C798   C802    1.412   .     A
C799   C805    1.413   .     A
C799   O861    1.390   .     S
C800   O866    1.382   .     S
C800   C806    1.415   .     A
C801   O871    1.390   .     S
C801   C805    1.413   .     A
C802   C806    1.414   .     A
C802   O876    1.381   .     S
C803   O834    1.273   .     A
C803   C807    1.362   .     S
C803   O831    1.273   .     A
C804   O832    1.273   .     A
C804   C808    1.362   .     S
C804   O833    1.273   .     A
C805   C982    1.511   1_545 S
C806   C981    1.511   .     S
C808   C103    1.163   1_556 S
C809   H821    1.084   .     S
C809   C819    1.393   .     A
C809   C813    1.385   .     A
C810   H822    1.084   .     S
C810   C820    1.391   .     A
C810   C814    1.388   .     A
C811   H823    1.084   .     S
C811   C815    1.389   .     A
C811   C820    1.390   .     A
C812   C816    1.386   .     A
C812   H824    1.084   .     S
C812   C819    1.392   .     A
C813   O841    1.383   .     S
C813   C817    1.407   .     A
C814   O846    1.386   .     S
C814   C818    1.410   .     A
C815   O851    1.385   .     S
C815   C818    1.409   .     A
C816   O856    1.383   .     S
C816   C817    1.408   .     A
C820   C731    1.428   1_655 S
N825   Zn836   2.003   .     S
N826   Zn835   2.003   .     S
O827   Zn835   1.994   .     S
O828   Zn836   1.994   .     S
O829   Zn835   1.996   .     S
O830   Zn836   1.996   .     S
O831   Zn835   1.947   .     S
O832   Zn836   1.947   .     S
O833   Zn835   1.946   .     S
O834   Zn836   1.946   .     S
O841   C842    1.410   .     S
C842   H844    1.114   .     S
C842   H845    1.113   .     S
C842   H843    1.109   .     S
O846   C847    1.412   .     S
C847   H848    1.114   .     S
C847   H849    1.111   .     S
C847   H850    1.110   .     S
O851   C852    1.410   .     S
C852   H855    1.109   .     S
C852   H854    1.111   .     S
C852   H853    1.114   .     S
O856   C857    1.410   .     S
C857   H859    1.114   .     S
C857   H860    1.109   .     S
C857   H858    1.113   .     S
O861   C862    1.412   .     S
C862   H863    1.115   .     S
C862   H865    1.109   .     S
C862   H864    1.110   .     S
O866   C867    1.409   .     S
C867   H869    1.111   .     S
C867   H1044   1.113   .     S
C867   H1046   1.109   .     S
H868   C1043   1.113   1_545 S
H870   C1043   1.109   1_545 S
O871   C872    1.412   .     S
C872   H875    1.109   .     S
C872   H874    1.110   .     S
C872   H873    1.115   .     S
O876   C877    1.409   .     S
C877   H878    1.114   .     S
C877   H879    1.113   .     S
C877   H880    1.109   .     S
C881   C905    1.433   .     S
C881   O918    1.284   .     A
C881   O915    1.283   .     A
C882   C906    1.441   .     S
C882   O916    1.284   .     A
C882   O917    1.287   .     A
C883   C887    1.420   .     A
C883   N913    1.363   .     A
C883   H925    1.079   .     S
C884   C888    1.412   .     A
C884   H926    1.082   .     S
C884   N914    1.364   .     A
C885   H927    1.079   .     S
C885   N913    1.363   .     A
C885   C889    1.420   .     A
C886   H928    1.082   .     S
C886   N914    1.362   .     A
C886   C890    1.412   .     A
C887   C893    1.413   .     A
C887   O949    1.390   .     S
C888   O954    1.382   .     S
C888   C894    1.415   .     A
C889   O959    1.390   .     S
C889   C893    1.413   .     A
C890   C894    1.414   .     A
C890   O964    1.381   .     S
C891   O922    1.273   .     A
C891   C895    1.362   .     S
C891   O919    1.273   .     A
C892   O920    1.273   .     A
C892   C896    1.362   .     S
C892   O921    1.273   .     A
C894   C717    1.511   1_565 S
C896   C191    1.163   1_556 S
C897   H909    1.084   .     S
C897   C907    1.393   .     A
C897   C901    1.385   .     A
C898   H910    1.084   .     S
C898   C908    1.391   .     A
C898   C902    1.388   .     A
C899   H911    1.084   .     S
C899   C903    1.389   .     A
C899   C908    1.390   .     A
C900   C904    1.386   .     A
C900   H912    1.084   .     S
C900   C907    1.392   .     A
C901   O929    1.383   .     S
C901   C905    1.407   .     A
C902   O934    1.386   .     S
C902   C906    1.410   .     A
C903   O939    1.385   .     S
C903   C906    1.409   .     A
C904   O944    1.383   .     S
C904   C905    1.408   .     A
C907   C996    1.428   1_455 S
C908   C995    1.428   .     S
N913   Zn924   2.003   .     S
N914   Zn923   2.003   .     S
O915   Zn923   1.994   .     S
O916   Zn924   1.994   .     S
O917   Zn923   1.996   .     S
O918   Zn924   1.996   .     S
O919   Zn923   1.947   .     S
O920   Zn924   1.947   .     S
O921   Zn923   1.946   .     S
O922   Zn924   1.946   .     S
O929   C930    1.410   .     S
C930   H932    1.114   .     S
C930   H933    1.113   .     S
C930   H931    1.109   .     S
O934   C935    1.412   .     S
C935   H936    1.114   .     S
C935   H937    1.111   .     S
C935   H938    1.110   .     S
O939   C940    1.410   .     S
C940   H943    1.109   .     S
C940   H942    1.111   .     S
C940   H941    1.114   .     S
O944   C945    1.410   .     S
C945   H947    1.114   .     S
C945   H948    1.109   .     S
C945   H946    1.113   .     S
O949   C950    1.412   .     S
C950   H951    1.115   .     S
C950   H953    1.109   .     S
C950   H952    1.110   .     S
O954   C955    1.409   .     S
C955   H957    1.111   .     S
C955   H780    1.113   1_565 S
C955   H782    1.109   1_565 S
O959   C960    1.412   .     S
C960   H963    1.109   .     S
C960   H962    1.110   .     S
C960   H961    1.115   .     S
O964   C965    1.409   .     S
C965   H966    1.114   .     S
C965   H967    1.113   .     S
C965   H968    1.109   .     S
C969   C993    1.433   .     S
C969   O1006   1.284   .     A
C969   O1003   1.283   .     A
C970   C994    1.441   .     S
C970   O1004   1.284   .     A
C970   O1005   1.287   .     A
C971   C975    1.420   .     A
C971   N1001   1.363   .     A
C971   H1013   1.079   .     S
C972   C976    1.412   .     A
C972   H1014   1.082   .     S
C972   N1002   1.364   .     A
C973   H1015   1.079   .     S
C973   N1001   1.363   .     A
C973   C977    1.420   .     A
C974   H1016   1.082   .     S
C974   N1002   1.362   .     A
C974   C978    1.412   .     A
C975   C981    1.413   .     A
C975   O1037   1.390   .     S
C976   O1042   1.382   .     S
C976   C982    1.415   .     A
C977   O1047   1.390   .     S
C977   C981    1.413   .     A
C978   C982    1.414   .     A
C978   O1052   1.381   .     S
C979   O1010   1.273   .     A
C979   C983    1.362   .     S
C979   O1007   1.273   .     A
C980   O1008   1.273   .     A
C980   C984    1.362   .     S
C980   O1009   1.273   .     A
C982   C805    1.511   1_565 S
C984   C279    1.163   1_556 S
C985   H997    1.084   .     S
C985   C995    1.393   .     A
C985   C989    1.385   .     A
C986   H998    1.084   .     S
C986   C996    1.391   .     A
C986   C990    1.388   .     A
C987   H999    1.084   .     S
C987   C991    1.389   .     A
C987   C996    1.390   .     A
C988   C992    1.386   .     A
C988   H1000   1.084   .     S
C988   C995    1.392   .     A
C989   O1017   1.383   .     S
C989   C993    1.407   .     A
C990   O1022   1.386   .     S
C990   C994    1.410   .     A
C991   O1027   1.385   .     S
C991   C994    1.409   .     A
C992   O1032   1.383   .     S
C992   C993    1.408   .     A
C996   C907    1.428   1_655 S
N1001  Zn1012  2.003   .     S
N1002  Zn1011  2.003   .     S
O1003  Zn1011  1.994   .     S
O1004  Zn1012  1.994   .     S
O1005  Zn1011  1.996   .     S
O1006  Zn1012  1.996   .     S
O1007  Zn1011  1.947   .     S
O1008  Zn1012  1.947   .     S
O1009  Zn1011  1.946   .     S
O1010  Zn1012  1.946   .     S
O1017  C1018   1.410   .     S
C1018  H1020   1.114   .     S
C1018  H1021   1.113   .     S
C1018  H1019   1.109   .     S
O1022  C1023   1.412   .     S
C1023  H1024   1.114   .     S
C1023  H1025   1.111   .     S
C1023  H1026   1.110   .     S
O1027  C1028   1.410   .     S
C1028  H1031   1.109   .     S
C1028  H1030   1.111   .     S
C1028  H1029   1.114   .     S
O1032  C1033   1.410   .     S
C1033  H1035   1.114   .     S
C1033  H1036   1.109   .     S
C1033  H1034   1.113   .     S
O1037  C1038   1.412   .     S
C1038  H1039   1.115   .     S
C1038  H1041   1.109   .     S
C1038  H1040   1.110   .     S
O1042  C1043   1.409   .     S
C1043  H1045   1.111   .     S
C1043  H868    1.113   1_565 S
C1043  H870    1.109   1_565 S
O1047  C1048   1.412   .     S
C1048  H1051   1.109   .     S
C1048  H1050   1.110   .     S
C1048  H1049   1.115   .     S
O1052  C1053   1.409   .     S
C1053  H1054   1.114   .     S
C1053  H1055   1.113   .     S
C1053  H1056   1.109   .     S
