data_str_m3_o10_o18_pcu_sym.31
_audit_creation_date              2020-01-03
_audit_creation_method            'Materials Studio'
_symmetry_space_group_name_H-M    'P1'
_symmetry_Int_Tables_number       1
_symmetry_cell_setting            triclinic
loop_
_symmetry_equiv_pos_as_xyz
  x,y,z
_cell_length_a                    23.4818
_cell_length_b                    25.6812
_cell_length_c                    26.9974
_cell_angle_alpha                 93.2064
_cell_angle_beta                  92.9027
_cell_angle_gamma                 94.2318
loop_
_atom_site_label
_atom_site_type_symbol
_atom_site_fract_x
_atom_site_fract_y
_atom_site_fract_z
_atom_site_U_iso_or_equiv
_atom_site_adp_type
_atom_site_occupancy
O1     O     0.29719   0.24631   0.25310   0.00000  Uiso   1.00
O2     O     0.03614   0.08702   0.24691   0.00000  Uiso   1.00
O3     O     0.05822   0.23702   0.24502   0.00000  Uiso   1.00
O4     O     0.27512   0.09632   0.25499   0.00000  Uiso   1.00
C5     C     0.01511   0.26493   0.24890   0.00000  Uiso   1.00
C6     C     0.31827   0.06842   0.25135   0.00000  Uiso   1.00
O7     O     0.30328   0.17397   0.32247   0.00000  Uiso   1.00
O8     O     0.03005   0.15937   0.17753   0.00000  Uiso   1.00
O9     O     0.06431   0.16467   0.31439   0.00000  Uiso   1.00
O10    O     0.26902   0.16866   0.18561   0.00000  Uiso   1.00
C11    C     0.02115   0.17222   0.34165   0.00000  Uiso   1.00
C12    C     0.31244   0.16190   0.15823   0.00000  Uiso   1.00
Zn13   Zn    0.27033   0.17287   0.25540   0.00000  Uiso   1.00
Zn14   Zn    0.06300   0.16046   0.24461   0.00000  Uiso   1.00
C15    C     0.03335   0.18781   0.39419   0.00000  Uiso   1.00
C16    C     0.30399   0.15743   0.10399   0.00000  Uiso   1.00
C17    C     0.04548   0.25870   0.45772   0.00000  Uiso   1.00
C18    C     0.32206   0.11873   0.02275   0.00000  Uiso   1.00
C19    C     0.01516   0.23498   0.41551   0.00000  Uiso   1.00
C20    C     0.00542   0.12837   0.07304   0.00000  Uiso   1.00
C21    C     0.07827   0.16438   0.41728   0.00000  Uiso   1.00
C22    C     0.25766   0.18075   0.08298   0.00000  Uiso   1.00
C23    C     0.11534   0.19291   0.45254   0.00000  Uiso   1.00
C24    C     0.24446   0.17572   0.03193   0.00000  Uiso   1.00
C25    C     0.09621   0.23898   0.47538   0.00000  Uiso   1.00
C26    C     0.27352   0.14014   0.00279   0.00000  Uiso   1.00
C27    C     0.17038   0.17701   0.46606   0.00000  Uiso   1.00
C28    C     0.19837   0.20041   0.01059   0.00000  Uiso   1.00
C29    C     0.18012   0.24814   0.03136   0.00000  Uiso   1.00
C30    C     0.20077   0.14137   0.43642   0.00000  Uiso   1.00
C31    C     0.12936   0.26659   0.01365   0.00000  Uiso   1.00
C32    C     0.25278   0.12524   0.45464   0.00000  Uiso   1.00
H33    H     0.11642   0.30347   0.02919   0.00000  Uiso   1.00
H34    H     0.27613   0.09924   0.43157   0.00000  Uiso   1.00
H35    H     0.22977   0.20056   0.10719   0.00000  Uiso   1.00
H36    H     0.08573   0.12508   0.40465   0.00000  Uiso   1.00
H37    H     0.03156   0.29458   0.47463   0.00000  Uiso   1.00
H38    H     0.01299   0.09360   0.49962   0.00000  Uiso   1.00
C39    C     0.02299   0.31952   0.24838   0.00000  Uiso   1.00
C40    C     0.31045   0.01386   0.25229   0.00000  Uiso   1.00
H41    H     0.06618   0.00339   0.24464   0.00000  Uiso   1.00
H42    H     0.26726   0.32999   0.25609   0.00000  Uiso   1.00
N43    N     0.14695   0.15216   0.23740   0.00000  Uiso   1.00
N44    N     0.18638   0.18117   0.26261   0.00000  Uiso   1.00
H45    H     0.16230   0.12432   0.21373   0.00000  Uiso   1.00
H46    H     0.17103   0.20908   0.28620   0.00000  Uiso   1.00
N47    N     0.05540   0.10585   0.09219   0.00000  Uiso   1.00
O48    O     0.10108   0.13616   0.10558   0.00000  Uiso   1.00
O49    O     0.05987   0.05584   0.08482   0.00000  Uiso   1.00
N50    N     0.30314   0.26158   0.39288   0.00000  Uiso   1.00
O51    O     0.30911   0.31207   0.38985   0.00000  Uiso   1.00
O52    O     0.25268   0.23756   0.38395   0.00000  Uiso   1.00
Br53   Br    0.22819   0.29726   0.07472   0.00000  Uiso   1.00
Br54   Br    0.18381   0.11996   0.36737   0.00000  Uiso   1.00
O55    O     0.63052   0.24631   0.25310   0.00000  Uiso   1.00
O56    O     0.36948   0.08702   0.24691   0.00000  Uiso   1.00
O57    O     0.39155   0.23702   0.24502   0.00000  Uiso   1.00
O58    O     0.60845   0.09632   0.25499   0.00000  Uiso   1.00
C59    C     0.34844   0.26493   0.24890   0.00000  Uiso   1.00
C60    C     0.65160   0.06842   0.25135   0.00000  Uiso   1.00
O61    O     0.63662   0.17397   0.32247   0.00000  Uiso   1.00
O62    O     0.36338   0.15937   0.17753   0.00000  Uiso   1.00
O63    O     0.39764   0.16467   0.31439   0.00000  Uiso   1.00
O64    O     0.60236   0.16866   0.18561   0.00000  Uiso   1.00
C65    C     0.35448   0.17222   0.34165   0.00000  Uiso   1.00
C66    C     0.64578   0.16190   0.15823   0.00000  Uiso   1.00
Zn67   Zn    0.60366   0.17287   0.25540   0.00000  Uiso   1.00
Zn68   Zn    0.39634   0.16046   0.24461   0.00000  Uiso   1.00
C69    C     0.36668   0.18781   0.39419   0.00000  Uiso   1.00
C70    C     0.63733   0.15743   0.10399   0.00000  Uiso   1.00
C71    C     0.37881   0.25870   0.45772   0.00000  Uiso   1.00
C72    C     0.65540   0.11873   0.02275   0.00000  Uiso   1.00
C73    C     0.34849   0.23498   0.41551   0.00000  Uiso   1.00
C74    C     0.33875   0.12837   0.07304   0.00000  Uiso   1.00
C75    C     0.41160   0.16438   0.41728   0.00000  Uiso   1.00
C76    C     0.59099   0.18075   0.08298   0.00000  Uiso   1.00
C77    C     0.44867   0.19291   0.45254   0.00000  Uiso   1.00
C78    C     0.57779   0.17572   0.03193   0.00000  Uiso   1.00
C79    C     0.42954   0.23898   0.47538   0.00000  Uiso   1.00
C80    C     0.60685   0.14014   0.00279   0.00000  Uiso   1.00
C81    C     0.50371   0.17701   0.46606   0.00000  Uiso   1.00
C82    C     0.53170   0.20041   0.01059   0.00000  Uiso   1.00
C83    C     0.51345   0.24814   0.03136   0.00000  Uiso   1.00
C84    C     0.53411   0.14137   0.43642   0.00000  Uiso   1.00
C85    C     0.46269   0.26659   0.01365   0.00000  Uiso   1.00
C86    C     0.58611   0.12524   0.45464   0.00000  Uiso   1.00
H87    H     0.44975   0.30347   0.02919   0.00000  Uiso   1.00
H88    H     0.60947   0.09924   0.43157   0.00000  Uiso   1.00
H89    H     0.56310   0.20056   0.10719   0.00000  Uiso   1.00
H90    H     0.41906   0.12508   0.40465   0.00000  Uiso   1.00
H91    H     0.36490   0.29458   0.47463   0.00000  Uiso   1.00
H92    H     0.34632   0.09360   0.49962   0.00000  Uiso   1.00
C93    C     0.35632   0.31952   0.24838   0.00000  Uiso   1.00
C94    C     0.64378   0.01386   0.25229   0.00000  Uiso   1.00
H95    H     0.39951   0.00339   0.24464   0.00000  Uiso   1.00
H96    H     0.60060   0.32999   0.25609   0.00000  Uiso   1.00
N97    N     0.48029   0.15216   0.23740   0.00000  Uiso   1.00
N98    N     0.51971   0.18117   0.26261   0.00000  Uiso   1.00
H99    H     0.49564   0.12432   0.21373   0.00000  Uiso   1.00
H100   H     0.50436   0.20908   0.28620   0.00000  Uiso   1.00
N101   N     0.38874   0.10585   0.09219   0.00000  Uiso   1.00
O102   O     0.43441   0.13616   0.10558   0.00000  Uiso   1.00
O103   O     0.39320   0.05584   0.08482   0.00000  Uiso   1.00
N104   N     0.63647   0.26158   0.39288   0.00000  Uiso   1.00
O105   O     0.64244   0.31207   0.38985   0.00000  Uiso   1.00
O106   O     0.58601   0.23756   0.38395   0.00000  Uiso   1.00
Br107  Br    0.56152   0.29726   0.07472   0.00000  Uiso   1.00
Br108  Br    0.51714   0.11996   0.36737   0.00000  Uiso   1.00
O109   O     0.96386   0.24631   0.25310   0.00000  Uiso   1.00
O110   O     0.70281   0.08702   0.24691   0.00000  Uiso   1.00
O111   O     0.72488   0.23702   0.24502   0.00000  Uiso   1.00
O112   O     0.94178   0.09632   0.25499   0.00000  Uiso   1.00
C113   C     0.68177   0.26493   0.24890   0.00000  Uiso   1.00
C114   C     0.98493   0.06842   0.25135   0.00000  Uiso   1.00
O115   O     0.96995   0.17397   0.32247   0.00000  Uiso   1.00
O116   O     0.69672   0.15937   0.17753   0.00000  Uiso   1.00
O117   O     0.73098   0.16467   0.31439   0.00000  Uiso   1.00
O118   O     0.93569   0.16866   0.18561   0.00000  Uiso   1.00
C119   C     0.68781   0.17222   0.34165   0.00000  Uiso   1.00
C120   C     0.97911   0.16190   0.15823   0.00000  Uiso   1.00
Zn121  Zn    0.93700   0.17287   0.25540   0.00000  Uiso   1.00
Zn122  Zn    0.72967   0.16046   0.24461   0.00000  Uiso   1.00
C123   C     0.70002   0.18781   0.39419   0.00000  Uiso   1.00
C124   C     0.97066   0.15743   0.10399   0.00000  Uiso   1.00
C125   C     0.71215   0.25870   0.45772   0.00000  Uiso   1.00
C126   C     0.98873   0.11873   0.02275   0.00000  Uiso   1.00
C127   C     0.68182   0.23498   0.41551   0.00000  Uiso   1.00
C128   C     0.67208   0.12837   0.07304   0.00000  Uiso   1.00
C129   C     0.74494   0.16438   0.41728   0.00000  Uiso   1.00
C130   C     0.92432   0.18075   0.08298   0.00000  Uiso   1.00
C131   C     0.78201   0.19291   0.45254   0.00000  Uiso   1.00
C132   C     0.91112   0.17572   0.03193   0.00000  Uiso   1.00
C133   C     0.76287   0.23898   0.47538   0.00000  Uiso   1.00
C134   C     0.94018   0.14014   0.00279   0.00000  Uiso   1.00
C135   C     0.83704   0.17701   0.46606   0.00000  Uiso   1.00
C136   C     0.86504   0.20041   0.01059   0.00000  Uiso   1.00
C137   C     0.84678   0.24814   0.03136   0.00000  Uiso   1.00
C138   C     0.86744   0.14137   0.43642   0.00000  Uiso   1.00
C139   C     0.79602   0.26659   0.01365   0.00000  Uiso   1.00
C140   C     0.91944   0.12524   0.45464   0.00000  Uiso   1.00
H141   H     0.78309   0.30347   0.02919   0.00000  Uiso   1.00
H142   H     0.94280   0.09924   0.43157   0.00000  Uiso   1.00
H143   H     0.89643   0.20056   0.10719   0.00000  Uiso   1.00
H144   H     0.75240   0.12508   0.40465   0.00000  Uiso   1.00
H145   H     0.69823   0.29458   0.47463   0.00000  Uiso   1.00
H146   H     0.67965   0.09360   0.49962   0.00000  Uiso   1.00
C147   C     0.68965   0.31952   0.24838   0.00000  Uiso   1.00
C148   C     0.97711   0.01386   0.25229   0.00000  Uiso   1.00
H149   H     0.73284   0.00339   0.24464   0.00000  Uiso   1.00
H150   H     0.93393   0.32999   0.25609   0.00000  Uiso   1.00
N151   N     0.81362   0.15216   0.23740   0.00000  Uiso   1.00
N152   N     0.85305   0.18117   0.26261   0.00000  Uiso   1.00
H153   H     0.82897   0.12432   0.21373   0.00000  Uiso   1.00
H154   H     0.83770   0.20908   0.28620   0.00000  Uiso   1.00
N155   N     0.72207   0.10585   0.09219   0.00000  Uiso   1.00
O156   O     0.76775   0.13616   0.10558   0.00000  Uiso   1.00
O157   O     0.72653   0.05584   0.08482   0.00000  Uiso   1.00
N158   N     0.96980   0.26158   0.39288   0.00000  Uiso   1.00
O159   O     0.97578   0.31207   0.38985   0.00000  Uiso   1.00
O160   O     0.91935   0.23756   0.38395   0.00000  Uiso   1.00
Br161  Br    0.89486   0.29726   0.07472   0.00000  Uiso   1.00
Br162  Br    0.85047   0.11996   0.36737   0.00000  Uiso   1.00
O163   O     0.29719   0.57964   0.25310   0.00000  Uiso   1.00
O164   O     0.03614   0.42036   0.24691   0.00000  Uiso   1.00
O165   O     0.05822   0.57035   0.24502   0.00000  Uiso   1.00
O166   O     0.27512   0.42965   0.25499   0.00000  Uiso   1.00
C167   C     0.01511   0.59827   0.24890   0.00000  Uiso   1.00
C168   C     0.31827   0.40175   0.25135   0.00000  Uiso   1.00
O169   O     0.30328   0.50730   0.32247   0.00000  Uiso   1.00
O170   O     0.03005   0.49270   0.17753   0.00000  Uiso   1.00
O171   O     0.06431   0.49801   0.31439   0.00000  Uiso   1.00
O172   O     0.26902   0.50199   0.18561   0.00000  Uiso   1.00
C173   C     0.02115   0.50555   0.34165   0.00000  Uiso   1.00
C174   C     0.31244   0.49524   0.15823   0.00000  Uiso   1.00
Zn175  Zn    0.27033   0.50621   0.25540   0.00000  Uiso   1.00
Zn176  Zn    0.06300   0.49379   0.24461   0.00000  Uiso   1.00
C177   C     0.03335   0.52114   0.39419   0.00000  Uiso   1.00
C178   C     0.30399   0.49076   0.10399   0.00000  Uiso   1.00
C179   C     0.04548   0.59203   0.45772   0.00000  Uiso   1.00
C180   C     0.32206   0.45207   0.02275   0.00000  Uiso   1.00
C181   C     0.01516   0.56832   0.41551   0.00000  Uiso   1.00
C182   C     0.00542   0.46171   0.07304   0.00000  Uiso   1.00
C183   C     0.07827   0.49771   0.41728   0.00000  Uiso   1.00
C184   C     0.25766   0.51409   0.08298   0.00000  Uiso   1.00
C185   C     0.11534   0.52625   0.45254   0.00000  Uiso   1.00
C186   C     0.24446   0.50905   0.03193   0.00000  Uiso   1.00
C187   C     0.09621   0.57231   0.47538   0.00000  Uiso   1.00
C188   C     0.27352   0.47347   0.00279   0.00000  Uiso   1.00
C189   C     0.17038   0.51034   0.46606   0.00000  Uiso   1.00
C190   C     0.19837   0.53375   0.01059   0.00000  Uiso   1.00
C191   C     0.18012   0.58147   0.03136   0.00000  Uiso   1.00
C192   C     0.20077   0.47470   0.43642   0.00000  Uiso   1.00
C193   C     0.12936   0.59993   0.01365   0.00000  Uiso   1.00
C194   C     0.25278   0.45857   0.45464   0.00000  Uiso   1.00
H195   H     0.11642   0.63680   0.02919   0.00000  Uiso   1.00
H196   H     0.27613   0.43257   0.43157   0.00000  Uiso   1.00
H197   H     0.22977   0.53389   0.10719   0.00000  Uiso   1.00
H198   H     0.08573   0.45841   0.40465   0.00000  Uiso   1.00
H199   H     0.03156   0.62791   0.47463   0.00000  Uiso   1.00
H200   H     0.01299   0.42694   0.49962   0.00000  Uiso   1.00
C201   C     0.02299   0.65285   0.24838   0.00000  Uiso   1.00
C202   C     0.31045   0.34719   0.25229   0.00000  Uiso   1.00
H203   H     0.06618   0.33673   0.24464   0.00000  Uiso   1.00
H204   H     0.26726   0.66332   0.25609   0.00000  Uiso   1.00
N205   N     0.14695   0.48550   0.23740   0.00000  Uiso   1.00
N206   N     0.18638   0.51450   0.26261   0.00000  Uiso   1.00
H207   H     0.16230   0.45766   0.21373   0.00000  Uiso   1.00
H208   H     0.17103   0.54241   0.28620   0.00000  Uiso   1.00
N209   N     0.05540   0.43918   0.09219   0.00000  Uiso   1.00
O210   O     0.10108   0.46950   0.10558   0.00000  Uiso   1.00
O211   O     0.05987   0.38918   0.08482   0.00000  Uiso   1.00
N212   N     0.30314   0.59491   0.39288   0.00000  Uiso   1.00
O213   O     0.30911   0.64540   0.38985   0.00000  Uiso   1.00
O214   O     0.25268   0.57089   0.38395   0.00000  Uiso   1.00
Br215  Br    0.22819   0.63060   0.07472   0.00000  Uiso   1.00
Br216  Br    0.18381   0.45329   0.36737   0.00000  Uiso   1.00
O217   O     0.63052   0.57964   0.25310   0.00000  Uiso   1.00
O218   O     0.36948   0.42036   0.24691   0.00000  Uiso   1.00
O219   O     0.39155   0.57035   0.24502   0.00000  Uiso   1.00
O220   O     0.60845   0.42965   0.25499   0.00000  Uiso   1.00
C221   C     0.34844   0.59827   0.24890   0.00000  Uiso   1.00
C222   C     0.65160   0.40175   0.25135   0.00000  Uiso   1.00
O223   O     0.63662   0.50730   0.32247   0.00000  Uiso   1.00
O224   O     0.36338   0.49270   0.17753   0.00000  Uiso   1.00
O225   O     0.39764   0.49801   0.31439   0.00000  Uiso   1.00
O226   O     0.60236   0.50199   0.18561   0.00000  Uiso   1.00
C227   C     0.35448   0.50555   0.34165   0.00000  Uiso   1.00
C228   C     0.64578   0.49524   0.15823   0.00000  Uiso   1.00
Zn229  Zn    0.60366   0.50621   0.25540   0.00000  Uiso   1.00
Zn230  Zn    0.39634   0.49379   0.24461   0.00000  Uiso   1.00
C231   C     0.36668   0.52114   0.39419   0.00000  Uiso   1.00
C232   C     0.63733   0.49076   0.10399   0.00000  Uiso   1.00
C233   C     0.37881   0.59203   0.45772   0.00000  Uiso   1.00
C234   C     0.65540   0.45207   0.02275   0.00000  Uiso   1.00
C235   C     0.34849   0.56832   0.41551   0.00000  Uiso   1.00
C236   C     0.33875   0.46171   0.07304   0.00000  Uiso   1.00
C237   C     0.41160   0.49771   0.41728   0.00000  Uiso   1.00
C238   C     0.59099   0.51409   0.08298   0.00000  Uiso   1.00
C239   C     0.44867   0.52625   0.45254   0.00000  Uiso   1.00
C240   C     0.57779   0.50905   0.03193   0.00000  Uiso   1.00
C241   C     0.42954   0.57231   0.47538   0.00000  Uiso   1.00
C242   C     0.60685   0.47347   0.00279   0.00000  Uiso   1.00
C243   C     0.50371   0.51034   0.46606   0.00000  Uiso   1.00
C244   C     0.53170   0.53375   0.01059   0.00000  Uiso   1.00
C245   C     0.51345   0.58147   0.03136   0.00000  Uiso   1.00
C246   C     0.53411   0.47470   0.43642   0.00000  Uiso   1.00
C247   C     0.46269   0.59993   0.01365   0.00000  Uiso   1.00
C248   C     0.58611   0.45857   0.45464   0.00000  Uiso   1.00
H249   H     0.44975   0.63680   0.02919   0.00000  Uiso   1.00
H250   H     0.60947   0.43257   0.43157   0.00000  Uiso   1.00
H251   H     0.56310   0.53389   0.10719   0.00000  Uiso   1.00
H252   H     0.41906   0.45841   0.40465   0.00000  Uiso   1.00
H253   H     0.36490   0.62791   0.47463   0.00000  Uiso   1.00
H254   H     0.34632   0.42694   0.49962   0.00000  Uiso   1.00
C255   C     0.35632   0.65285   0.24838   0.00000  Uiso   1.00
C256   C     0.64378   0.34719   0.25229   0.00000  Uiso   1.00
H257   H     0.39951   0.33673   0.24464   0.00000  Uiso   1.00
H258   H     0.60060   0.66332   0.25609   0.00000  Uiso   1.00
N259   N     0.48029   0.48550   0.23740   0.00000  Uiso   1.00
N260   N     0.51971   0.51450   0.26261   0.00000  Uiso   1.00
H261   H     0.49564   0.45766   0.21373   0.00000  Uiso   1.00
H262   H     0.50436   0.54241   0.28620   0.00000  Uiso   1.00
N263   N     0.38874   0.43918   0.09219   0.00000  Uiso   1.00
O264   O     0.43441   0.46950   0.10558   0.00000  Uiso   1.00
O265   O     0.39320   0.38918   0.08482   0.00000  Uiso   1.00
N266   N     0.63647   0.59491   0.39288   0.00000  Uiso   1.00
O267   O     0.64244   0.64540   0.38985   0.00000  Uiso   1.00
O268   O     0.58601   0.57089   0.38395   0.00000  Uiso   1.00
Br269  Br    0.56152   0.63060   0.07472   0.00000  Uiso   1.00
Br270  Br    0.51714   0.45329   0.36737   0.00000  Uiso   1.00
O271   O     0.96386   0.57964   0.25310   0.00000  Uiso   1.00
O272   O     0.70281   0.42036   0.24691   0.00000  Uiso   1.00
O273   O     0.72488   0.57035   0.24502   0.00000  Uiso   1.00
O274   O     0.94178   0.42965   0.25499   0.00000  Uiso   1.00
C275   C     0.68177   0.59827   0.24890   0.00000  Uiso   1.00
C276   C     0.98493   0.40175   0.25135   0.00000  Uiso   1.00
O277   O     0.96995   0.50730   0.32247   0.00000  Uiso   1.00
O278   O     0.69672   0.49270   0.17753   0.00000  Uiso   1.00
O279   O     0.73098   0.49801   0.31439   0.00000  Uiso   1.00
O280   O     0.93569   0.50199   0.18561   0.00000  Uiso   1.00
C281   C     0.68781   0.50555   0.34165   0.00000  Uiso   1.00
C282   C     0.97911   0.49524   0.15823   0.00000  Uiso   1.00
Zn283  Zn    0.93700   0.50621   0.25540   0.00000  Uiso   1.00
Zn284  Zn    0.72967   0.49379   0.24461   0.00000  Uiso   1.00
C285   C     0.70002   0.52114   0.39419   0.00000  Uiso   1.00
C286   C     0.97066   0.49076   0.10399   0.00000  Uiso   1.00
C287   C     0.71215   0.59203   0.45772   0.00000  Uiso   1.00
C288   C     0.98873   0.45207   0.02275   0.00000  Uiso   1.00
C289   C     0.68182   0.56832   0.41551   0.00000  Uiso   1.00
C290   C     0.67208   0.46171   0.07304   0.00000  Uiso   1.00
C291   C     0.74494   0.49771   0.41728   0.00000  Uiso   1.00
C292   C     0.92432   0.51409   0.08298   0.00000  Uiso   1.00
C293   C     0.78201   0.52625   0.45254   0.00000  Uiso   1.00
C294   C     0.91112   0.50905   0.03193   0.00000  Uiso   1.00
C295   C     0.76287   0.57231   0.47538   0.00000  Uiso   1.00
C296   C     0.94018   0.47347   0.00279   0.00000  Uiso   1.00
C297   C     0.83704   0.51034   0.46606   0.00000  Uiso   1.00
C298   C     0.86504   0.53375   0.01059   0.00000  Uiso   1.00
C299   C     0.84678   0.58147   0.03136   0.00000  Uiso   1.00
C300   C     0.86744   0.47470   0.43642   0.00000  Uiso   1.00
C301   C     0.79602   0.59993   0.01365   0.00000  Uiso   1.00
C302   C     0.91944   0.45857   0.45464   0.00000  Uiso   1.00
H303   H     0.78309   0.63680   0.02919   0.00000  Uiso   1.00
H304   H     0.94280   0.43257   0.43157   0.00000  Uiso   1.00
H305   H     0.89643   0.53389   0.10719   0.00000  Uiso   1.00
H306   H     0.75240   0.45841   0.40465   0.00000  Uiso   1.00
H307   H     0.69823   0.62791   0.47463   0.00000  Uiso   1.00
H308   H     0.67965   0.42694   0.49962   0.00000  Uiso   1.00
C309   C     0.68965   0.65285   0.24838   0.00000  Uiso   1.00
C310   C     0.97711   0.34719   0.25229   0.00000  Uiso   1.00
H311   H     0.73284   0.33673   0.24464   0.00000  Uiso   1.00
H312   H     0.93393   0.66332   0.25609   0.00000  Uiso   1.00
N313   N     0.81362   0.48550   0.23740   0.00000  Uiso   1.00
N314   N     0.85305   0.51450   0.26261   0.00000  Uiso   1.00
H315   H     0.82897   0.45766   0.21373   0.00000  Uiso   1.00
H316   H     0.83770   0.54241   0.28620   0.00000  Uiso   1.00
N317   N     0.72207   0.43918   0.09219   0.00000  Uiso   1.00
O318   O     0.76775   0.46950   0.10558   0.00000  Uiso   1.00
O319   O     0.72653   0.38918   0.08482   0.00000  Uiso   1.00
N320   N     0.96980   0.59491   0.39288   0.00000  Uiso   1.00
O321   O     0.97578   0.64540   0.38985   0.00000  Uiso   1.00
O322   O     0.91935   0.57089   0.38395   0.00000  Uiso   1.00
Br323  Br    0.89486   0.63060   0.07472   0.00000  Uiso   1.00
Br324  Br    0.85047   0.45329   0.36737   0.00000  Uiso   1.00
O325   O     0.29719   0.91298   0.25310   0.00000  Uiso   1.00
O326   O     0.03614   0.75369   0.24691   0.00000  Uiso   1.00
O327   O     0.05822   0.90368   0.24502   0.00000  Uiso   1.00
O328   O     0.27512   0.76298   0.25499   0.00000  Uiso   1.00
C329   C     0.01511   0.93160   0.24890   0.00000  Uiso   1.00
C330   C     0.31827   0.73508   0.25135   0.00000  Uiso   1.00
O331   O     0.30328   0.84063   0.32247   0.00000  Uiso   1.00
O332   O     0.03005   0.82603   0.17753   0.00000  Uiso   1.00
O333   O     0.06431   0.83134   0.31439   0.00000  Uiso   1.00
O334   O     0.26902   0.83533   0.18561   0.00000  Uiso   1.00
C335   C     0.02115   0.83888   0.34165   0.00000  Uiso   1.00
C336   C     0.31244   0.82857   0.15823   0.00000  Uiso   1.00
Zn337  Zn    0.27033   0.83954   0.25540   0.00000  Uiso   1.00
Zn338  Zn    0.06300   0.82713   0.24461   0.00000  Uiso   1.00
C339   C     0.03335   0.85448   0.39419   0.00000  Uiso   1.00
C340   C     0.30399   0.82410   0.10399   0.00000  Uiso   1.00
C341   C     0.04548   0.92537   0.45772   0.00000  Uiso   1.00
C342   C     0.32206   0.78540   0.02275   0.00000  Uiso   1.00
C343   C     0.01516   0.90165   0.41551   0.00000  Uiso   1.00
C344   C     0.00542   0.79504   0.07304   0.00000  Uiso   1.00
C345   C     0.07827   0.83105   0.41728   0.00000  Uiso   1.00
C346   C     0.25766   0.84742   0.08298   0.00000  Uiso   1.00
C347   C     0.11534   0.85958   0.45254   0.00000  Uiso   1.00
C348   C     0.24446   0.84238   0.03193   0.00000  Uiso   1.00
C349   C     0.09621   0.90565   0.47538   0.00000  Uiso   1.00
C350   C     0.27352   0.80681   0.00279   0.00000  Uiso   1.00
C351   C     0.17038   0.84368   0.46606   0.00000  Uiso   1.00
C352   C     0.19837   0.86708   0.01059   0.00000  Uiso   1.00
C353   C     0.18012   0.91481   0.03136   0.00000  Uiso   1.00
C354   C     0.20077   0.80803   0.43642   0.00000  Uiso   1.00
C355   C     0.12936   0.93326   0.01365   0.00000  Uiso   1.00
C356   C     0.25278   0.79190   0.45464   0.00000  Uiso   1.00
H357   H     0.11642   0.97013   0.02919   0.00000  Uiso   1.00
H358   H     0.27613   0.76591   0.43157   0.00000  Uiso   1.00
H359   H     0.22977   0.86722   0.10719   0.00000  Uiso   1.00
H360   H     0.08573   0.79174   0.40465   0.00000  Uiso   1.00
H361   H     0.03156   0.96124   0.47463   0.00000  Uiso   1.00
H362   H     0.01299   0.76027   0.49962   0.00000  Uiso   1.00
C363   C     0.02299   0.98619   0.24838   0.00000  Uiso   1.00
C364   C     0.31045   0.68052   0.25229   0.00000  Uiso   1.00
H365   H     0.06618   0.67006   0.24464   0.00000  Uiso   1.00
H366   H     0.26726   0.99666   0.25609   0.00000  Uiso   1.00
N367   N     0.14695   0.81883   0.23740   0.00000  Uiso   1.00
N368   N     0.18638   0.84784   0.26261   0.00000  Uiso   1.00
H369   H     0.16230   0.79099   0.21373   0.00000  Uiso   1.00
H370   H     0.17103   0.87575   0.28620   0.00000  Uiso   1.00
N371   N     0.05540   0.77252   0.09219   0.00000  Uiso   1.00
O372   O     0.10108   0.80283   0.10558   0.00000  Uiso   1.00
O373   O     0.05987   0.72251   0.08482   0.00000  Uiso   1.00
N374   N     0.30314   0.92825   0.39288   0.00000  Uiso   1.00
O375   O     0.30911   0.97874   0.38985   0.00000  Uiso   1.00
O376   O     0.25268   0.90422   0.38395   0.00000  Uiso   1.00
Br377  Br    0.22819   0.96393   0.07472   0.00000  Uiso   1.00
Br378  Br    0.18381   0.78663   0.36737   0.00000  Uiso   1.00
O379   O     0.63052   0.91298   0.25310   0.00000  Uiso   1.00
O380   O     0.36948   0.75369   0.24691   0.00000  Uiso   1.00
O381   O     0.39155   0.90368   0.24502   0.00000  Uiso   1.00
O382   O     0.60845   0.76298   0.25499   0.00000  Uiso   1.00
C383   C     0.34844   0.93160   0.24890   0.00000  Uiso   1.00
C384   C     0.65160   0.73508   0.25135   0.00000  Uiso   1.00
O385   O     0.63662   0.84063   0.32247   0.00000  Uiso   1.00
O386   O     0.36338   0.82603   0.17753   0.00000  Uiso   1.00
O387   O     0.39764   0.83134   0.31439   0.00000  Uiso   1.00
O388   O     0.60236   0.83533   0.18561   0.00000  Uiso   1.00
C389   C     0.35448   0.83888   0.34165   0.00000  Uiso   1.00
C390   C     0.64578   0.82857   0.15823   0.00000  Uiso   1.00
Zn391  Zn    0.60366   0.83954   0.25540   0.00000  Uiso   1.00
Zn392  Zn    0.39634   0.82713   0.24461   0.00000  Uiso   1.00
C393   C     0.36668   0.85448   0.39419   0.00000  Uiso   1.00
C394   C     0.63733   0.82410   0.10399   0.00000  Uiso   1.00
C395   C     0.37881   0.92537   0.45772   0.00000  Uiso   1.00
C396   C     0.65540   0.78540   0.02275   0.00000  Uiso   1.00
C397   C     0.34849   0.90165   0.41551   0.00000  Uiso   1.00
C398   C     0.33875   0.79504   0.07304   0.00000  Uiso   1.00
C399   C     0.41160   0.83105   0.41728   0.00000  Uiso   1.00
C400   C     0.59099   0.84742   0.08298   0.00000  Uiso   1.00
C401   C     0.44867   0.85958   0.45254   0.00000  Uiso   1.00
C402   C     0.57779   0.84238   0.03193   0.00000  Uiso   1.00
C403   C     0.42954   0.90565   0.47538   0.00000  Uiso   1.00
C404   C     0.60685   0.80681   0.00279   0.00000  Uiso   1.00
C405   C     0.50371   0.84368   0.46606   0.00000  Uiso   1.00
C406   C     0.53170   0.86708   0.01059   0.00000  Uiso   1.00
C407   C     0.51345   0.91481   0.03136   0.00000  Uiso   1.00
C408   C     0.53411   0.80803   0.43642   0.00000  Uiso   1.00
C409   C     0.46269   0.93326   0.01365   0.00000  Uiso   1.00
C410   C     0.58611   0.79190   0.45464   0.00000  Uiso   1.00
H411   H     0.44975   0.97013   0.02919   0.00000  Uiso   1.00
H412   H     0.60947   0.76591   0.43157   0.00000  Uiso   1.00
H413   H     0.56310   0.86722   0.10719   0.00000  Uiso   1.00
H414   H     0.41906   0.79174   0.40465   0.00000  Uiso   1.00
H415   H     0.36490   0.96124   0.47463   0.00000  Uiso   1.00
H416   H     0.34632   0.76027   0.49962   0.00000  Uiso   1.00
C417   C     0.35632   0.98619   0.24838   0.00000  Uiso   1.00
C418   C     0.64378   0.68052   0.25229   0.00000  Uiso   1.00
H419   H     0.39951   0.67006   0.24464   0.00000  Uiso   1.00
H420   H     0.60060   0.99666   0.25609   0.00000  Uiso   1.00
N421   N     0.48029   0.81883   0.23740   0.00000  Uiso   1.00
N422   N     0.51971   0.84784   0.26261   0.00000  Uiso   1.00
H423   H     0.49564   0.79099   0.21373   0.00000  Uiso   1.00
H424   H     0.50436   0.87575   0.28620   0.00000  Uiso   1.00
N425   N     0.38874   0.77252   0.09219   0.00000  Uiso   1.00
O426   O     0.43441   0.80283   0.10558   0.00000  Uiso   1.00
O427   O     0.39320   0.72251   0.08482   0.00000  Uiso   1.00
N428   N     0.63647   0.92825   0.39288   0.00000  Uiso   1.00
O429   O     0.64244   0.97874   0.38985   0.00000  Uiso   1.00
O430   O     0.58601   0.90422   0.38395   0.00000  Uiso   1.00
Br431  Br    0.56152   0.96393   0.07472   0.00000  Uiso   1.00
Br432  Br    0.51714   0.78663   0.36737   0.00000  Uiso   1.00
O433   O     0.96386   0.91298   0.25310   0.00000  Uiso   1.00
O434   O     0.70281   0.75369   0.24691   0.00000  Uiso   1.00
O435   O     0.72488   0.90368   0.24502   0.00000  Uiso   1.00
O436   O     0.94178   0.76298   0.25499   0.00000  Uiso   1.00
C437   C     0.68177   0.93160   0.24890   0.00000  Uiso   1.00
C438   C     0.98493   0.73508   0.25135   0.00000  Uiso   1.00
O439   O     0.96995   0.84063   0.32247   0.00000  Uiso   1.00
O440   O     0.69672   0.82603   0.17753   0.00000  Uiso   1.00
O441   O     0.73098   0.83134   0.31439   0.00000  Uiso   1.00
O442   O     0.93569   0.83533   0.18561   0.00000  Uiso   1.00
C443   C     0.68781   0.83888   0.34165   0.00000  Uiso   1.00
C444   C     0.97911   0.82857   0.15823   0.00000  Uiso   1.00
Zn445  Zn    0.93700   0.83954   0.25540   0.00000  Uiso   1.00
Zn446  Zn    0.72967   0.82713   0.24461   0.00000  Uiso   1.00
C447   C     0.70002   0.85448   0.39419   0.00000  Uiso   1.00
C448   C     0.97066   0.82410   0.10399   0.00000  Uiso   1.00
C449   C     0.71215   0.92537   0.45772   0.00000  Uiso   1.00
C450   C     0.98873   0.78540   0.02275   0.00000  Uiso   1.00
C451   C     0.68182   0.90165   0.41551   0.00000  Uiso   1.00
C452   C     0.67208   0.79504   0.07304   0.00000  Uiso   1.00
C453   C     0.74494   0.83105   0.41728   0.00000  Uiso   1.00
C454   C     0.92432   0.84742   0.08298   0.00000  Uiso   1.00
C455   C     0.78201   0.85958   0.45254   0.00000  Uiso   1.00
C456   C     0.91112   0.84238   0.03193   0.00000  Uiso   1.00
C457   C     0.76287   0.90565   0.47538   0.00000  Uiso   1.00
C458   C     0.94018   0.80681   0.00279   0.00000  Uiso   1.00
C459   C     0.83704   0.84368   0.46606   0.00000  Uiso   1.00
C460   C     0.86504   0.86708   0.01059   0.00000  Uiso   1.00
C461   C     0.84678   0.91481   0.03136   0.00000  Uiso   1.00
C462   C     0.86744   0.80803   0.43642   0.00000  Uiso   1.00
C463   C     0.79602   0.93326   0.01365   0.00000  Uiso   1.00
C464   C     0.91944   0.79190   0.45464   0.00000  Uiso   1.00
H465   H     0.78309   0.97013   0.02919   0.00000  Uiso   1.00
H466   H     0.94280   0.76591   0.43157   0.00000  Uiso   1.00
H467   H     0.89643   0.86722   0.10719   0.00000  Uiso   1.00
H468   H     0.75240   0.79174   0.40465   0.00000  Uiso   1.00
H469   H     0.69823   0.96124   0.47463   0.00000  Uiso   1.00
H470   H     0.67965   0.76027   0.49962   0.00000  Uiso   1.00
C471   C     0.68965   0.98619   0.24838   0.00000  Uiso   1.00
C472   C     0.97711   0.68052   0.25229   0.00000  Uiso   1.00
H473   H     0.73284   0.67006   0.24464   0.00000  Uiso   1.00
H474   H     0.93393   0.99666   0.25609   0.00000  Uiso   1.00
N475   N     0.81362   0.81883   0.23740   0.00000  Uiso   1.00
N476   N     0.85305   0.84784   0.26261   0.00000  Uiso   1.00
H477   H     0.82897   0.79099   0.21373   0.00000  Uiso   1.00
H478   H     0.83770   0.87575   0.28620   0.00000  Uiso   1.00
N479   N     0.72207   0.77252   0.09219   0.00000  Uiso   1.00
O480   O     0.76775   0.80283   0.10558   0.00000  Uiso   1.00
O481   O     0.72653   0.72251   0.08482   0.00000  Uiso   1.00
N482   N     0.96980   0.92825   0.39288   0.00000  Uiso   1.00
O483   O     0.97578   0.97874   0.38985   0.00000  Uiso   1.00
O484   O     0.91935   0.90422   0.38395   0.00000  Uiso   1.00
Br485  Br    0.89486   0.96393   0.07472   0.00000  Uiso   1.00
Br486  Br    0.85047   0.78663   0.36737   0.00000  Uiso   1.00
O487   O     0.29719   0.24631   0.75310   0.00000  Uiso   1.00
O488   O     0.03614   0.08702   0.74691   0.00000  Uiso   1.00
O489   O     0.05822   0.23702   0.74502   0.00000  Uiso   1.00
O490   O     0.27512   0.09632   0.75499   0.00000  Uiso   1.00
C491   C     0.01511   0.26493   0.74890   0.00000  Uiso   1.00
C492   C     0.31827   0.06842   0.75135   0.00000  Uiso   1.00
O493   O     0.30328   0.17397   0.82247   0.00000  Uiso   1.00
O494   O     0.03005   0.15937   0.67753   0.00000  Uiso   1.00
O495   O     0.06431   0.16467   0.81439   0.00000  Uiso   1.00
O496   O     0.26902   0.16866   0.68561   0.00000  Uiso   1.00
C497   C     0.02115   0.17222   0.84165   0.00000  Uiso   1.00
C498   C     0.31244   0.16190   0.65823   0.00000  Uiso   1.00
Zn499  Zn    0.27033   0.17287   0.75540   0.00000  Uiso   1.00
Zn500  Zn    0.06300   0.16046   0.74461   0.00000  Uiso   1.00
C501   C     0.03335   0.18781   0.89419   0.00000  Uiso   1.00
C502   C     0.30399   0.15743   0.60399   0.00000  Uiso   1.00
C503   C     0.04548   0.25870   0.95772   0.00000  Uiso   1.00
C504   C     0.32206   0.11873   0.52275   0.00000  Uiso   1.00
C505   C     0.01516   0.23498   0.91551   0.00000  Uiso   1.00
C506   C     0.00542   0.12837   0.57304   0.00000  Uiso   1.00
C507   C     0.07827   0.16438   0.91728   0.00000  Uiso   1.00
C508   C     0.25766   0.18075   0.58298   0.00000  Uiso   1.00
C509   C     0.11534   0.19291   0.95254   0.00000  Uiso   1.00
C510   C     0.24446   0.17572   0.53193   0.00000  Uiso   1.00
C511   C     0.09621   0.23898   0.97538   0.00000  Uiso   1.00
C512   C     0.27352   0.14014   0.50279   0.00000  Uiso   1.00
C513   C     0.17038   0.17701   0.96606   0.00000  Uiso   1.00
C514   C     0.19837   0.20041   0.51059   0.00000  Uiso   1.00
C515   C     0.18012   0.24814   0.53136   0.00000  Uiso   1.00
C516   C     0.20077   0.14137   0.93642   0.00000  Uiso   1.00
C517   C     0.12936   0.26659   0.51365   0.00000  Uiso   1.00
C518   C     0.25278   0.12524   0.95464   0.00000  Uiso   1.00
H519   H     0.11642   0.30347   0.52919   0.00000  Uiso   1.00
H520   H     0.27613   0.09924   0.93157   0.00000  Uiso   1.00
H521   H     0.22977   0.20056   0.60719   0.00000  Uiso   1.00
H522   H     0.08573   0.12508   0.90465   0.00000  Uiso   1.00
H523   H     0.03156   0.29458   0.97463   0.00000  Uiso   1.00
H524   H     0.01299   0.09360   0.99962   0.00000  Uiso   1.00
C525   C     0.02299   0.31952   0.74838   0.00000  Uiso   1.00
C526   C     0.31045   0.01386   0.75229   0.00000  Uiso   1.00
H527   H     0.06618   0.00339   0.74464   0.00000  Uiso   1.00
H528   H     0.26726   0.32999   0.75609   0.00000  Uiso   1.00
N529   N     0.14695   0.15216   0.73740   0.00000  Uiso   1.00
N530   N     0.18638   0.18117   0.76261   0.00000  Uiso   1.00
H531   H     0.16230   0.12432   0.71373   0.00000  Uiso   1.00
H532   H     0.17103   0.20908   0.78620   0.00000  Uiso   1.00
N533   N     0.05540   0.10585   0.59219   0.00000  Uiso   1.00
O534   O     0.10108   0.13616   0.60558   0.00000  Uiso   1.00
O535   O     0.05987   0.05584   0.58482   0.00000  Uiso   1.00
N536   N     0.30314   0.26158   0.89288   0.00000  Uiso   1.00
O537   O     0.30911   0.31207   0.88985   0.00000  Uiso   1.00
O538   O     0.25268   0.23756   0.88395   0.00000  Uiso   1.00
Br539  Br    0.22819   0.29726   0.57472   0.00000  Uiso   1.00
Br540  Br    0.18381   0.11996   0.86737   0.00000  Uiso   1.00
O541   O     0.63052   0.24631   0.75310   0.00000  Uiso   1.00
O542   O     0.36948   0.08702   0.74691   0.00000  Uiso   1.00
O543   O     0.39155   0.23702   0.74502   0.00000  Uiso   1.00
O544   O     0.60845   0.09632   0.75499   0.00000  Uiso   1.00
C545   C     0.34844   0.26493   0.74890   0.00000  Uiso   1.00
C546   C     0.65160   0.06842   0.75135   0.00000  Uiso   1.00
O547   O     0.63662   0.17397   0.82247   0.00000  Uiso   1.00
O548   O     0.36338   0.15937   0.67753   0.00000  Uiso   1.00
O549   O     0.39764   0.16467   0.81439   0.00000  Uiso   1.00
O550   O     0.60236   0.16866   0.68561   0.00000  Uiso   1.00
C551   C     0.35448   0.17222   0.84165   0.00000  Uiso   1.00
C552   C     0.64578   0.16190   0.65823   0.00000  Uiso   1.00
Zn553  Zn    0.60366   0.17287   0.75540   0.00000  Uiso   1.00
Zn554  Zn    0.39634   0.16046   0.74461   0.00000  Uiso   1.00
C555   C     0.36668   0.18781   0.89419   0.00000  Uiso   1.00
C556   C     0.63733   0.15743   0.60399   0.00000  Uiso   1.00
C557   C     0.37881   0.25870   0.95772   0.00000  Uiso   1.00
C558   C     0.65540   0.11873   0.52275   0.00000  Uiso   1.00
C559   C     0.34849   0.23498   0.91551   0.00000  Uiso   1.00
C560   C     0.33875   0.12837   0.57304   0.00000  Uiso   1.00
C561   C     0.41160   0.16438   0.91728   0.00000  Uiso   1.00
C562   C     0.59099   0.18075   0.58298   0.00000  Uiso   1.00
C563   C     0.44867   0.19291   0.95254   0.00000  Uiso   1.00
C564   C     0.57779   0.17572   0.53193   0.00000  Uiso   1.00
C565   C     0.42954   0.23898   0.97538   0.00000  Uiso   1.00
C566   C     0.60685   0.14014   0.50279   0.00000  Uiso   1.00
C567   C     0.50371   0.17701   0.96606   0.00000  Uiso   1.00
C568   C     0.53170   0.20041   0.51059   0.00000  Uiso   1.00
C569   C     0.51345   0.24814   0.53136   0.00000  Uiso   1.00
C570   C     0.53411   0.14137   0.93642   0.00000  Uiso   1.00
C571   C     0.46269   0.26659   0.51365   0.00000  Uiso   1.00
C572   C     0.58611   0.12524   0.95464   0.00000  Uiso   1.00
H573   H     0.44975   0.30347   0.52919   0.00000  Uiso   1.00
H574   H     0.60947   0.09924   0.93157   0.00000  Uiso   1.00
H575   H     0.56310   0.20056   0.60719   0.00000  Uiso   1.00
H576   H     0.41906   0.12508   0.90465   0.00000  Uiso   1.00
H577   H     0.36490   0.29458   0.97463   0.00000  Uiso   1.00
H578   H     0.34632   0.09360   0.99962   0.00000  Uiso   1.00
C579   C     0.35632   0.31952   0.74838   0.00000  Uiso   1.00
C580   C     0.64378   0.01386   0.75229   0.00000  Uiso   1.00
H581   H     0.39951   0.00339   0.74464   0.00000  Uiso   1.00
H582   H     0.60060   0.32999   0.75609   0.00000  Uiso   1.00
N583   N     0.48029   0.15216   0.73740   0.00000  Uiso   1.00
N584   N     0.51971   0.18117   0.76261   0.00000  Uiso   1.00
H585   H     0.49564   0.12432   0.71373   0.00000  Uiso   1.00
H586   H     0.50436   0.20908   0.78620   0.00000  Uiso   1.00
N587   N     0.38874   0.10585   0.59219   0.00000  Uiso   1.00
O588   O     0.43441   0.13616   0.60558   0.00000  Uiso   1.00
O589   O     0.39320   0.05584   0.58482   0.00000  Uiso   1.00
N590   N     0.63647   0.26158   0.89288   0.00000  Uiso   1.00
O591   O     0.64244   0.31207   0.88985   0.00000  Uiso   1.00
O592   O     0.58601   0.23756   0.88395   0.00000  Uiso   1.00
Br593  Br    0.56152   0.29726   0.57472   0.00000  Uiso   1.00
Br594  Br    0.51714   0.11996   0.86737   0.00000  Uiso   1.00
O595   O     0.96386   0.24631   0.75310   0.00000  Uiso   1.00
O596   O     0.70281   0.08702   0.74691   0.00000  Uiso   1.00
O597   O     0.72488   0.23702   0.74502   0.00000  Uiso   1.00
O598   O     0.94178   0.09632   0.75499   0.00000  Uiso   1.00
C599   C     0.68177   0.26493   0.74890   0.00000  Uiso   1.00
C600   C     0.98493   0.06842   0.75135   0.00000  Uiso   1.00
O601   O     0.96995   0.17397   0.82247   0.00000  Uiso   1.00
O602   O     0.69672   0.15937   0.67753   0.00000  Uiso   1.00
O603   O     0.73098   0.16467   0.81439   0.00000  Uiso   1.00
O604   O     0.93569   0.16866   0.68561   0.00000  Uiso   1.00
C605   C     0.68781   0.17222   0.84165   0.00000  Uiso   1.00
C606   C     0.97911   0.16190   0.65823   0.00000  Uiso   1.00
Zn607  Zn    0.93700   0.17287   0.75540   0.00000  Uiso   1.00
Zn608  Zn    0.72967   0.16046   0.74461   0.00000  Uiso   1.00
C609   C     0.70002   0.18781   0.89419   0.00000  Uiso   1.00
C610   C     0.97066   0.15743   0.60399   0.00000  Uiso   1.00
C611   C     0.71215   0.25870   0.95772   0.00000  Uiso   1.00
C612   C     0.98873   0.11873   0.52275   0.00000  Uiso   1.00
C613   C     0.68182   0.23498   0.91551   0.00000  Uiso   1.00
C614   C     0.67208   0.12837   0.57304   0.00000  Uiso   1.00
C615   C     0.74494   0.16438   0.91728   0.00000  Uiso   1.00
C616   C     0.92432   0.18075   0.58298   0.00000  Uiso   1.00
C617   C     0.78201   0.19291   0.95254   0.00000  Uiso   1.00
C618   C     0.91112   0.17572   0.53193   0.00000  Uiso   1.00
C619   C     0.76287   0.23898   0.97538   0.00000  Uiso   1.00
C620   C     0.94018   0.14014   0.50279   0.00000  Uiso   1.00
C621   C     0.83704   0.17701   0.96606   0.00000  Uiso   1.00
C622   C     0.86504   0.20041   0.51059   0.00000  Uiso   1.00
C623   C     0.84678   0.24814   0.53136   0.00000  Uiso   1.00
C624   C     0.86744   0.14137   0.93642   0.00000  Uiso   1.00
C625   C     0.79602   0.26659   0.51365   0.00000  Uiso   1.00
C626   C     0.91944   0.12524   0.95464   0.00000  Uiso   1.00
H627   H     0.78309   0.30347   0.52919   0.00000  Uiso   1.00
H628   H     0.94280   0.09924   0.93157   0.00000  Uiso   1.00
H629   H     0.89643   0.20056   0.60719   0.00000  Uiso   1.00
H630   H     0.75240   0.12508   0.90465   0.00000  Uiso   1.00
H631   H     0.69823   0.29458   0.97463   0.00000  Uiso   1.00
H632   H     0.67965   0.09360   0.99962   0.00000  Uiso   1.00
C633   C     0.68965   0.31952   0.74838   0.00000  Uiso   1.00
C634   C     0.97711   0.01386   0.75229   0.00000  Uiso   1.00
H635   H     0.73284   0.00339   0.74464   0.00000  Uiso   1.00
H636   H     0.93393   0.32999   0.75609   0.00000  Uiso   1.00
N637   N     0.81362   0.15216   0.73740   0.00000  Uiso   1.00
N638   N     0.85305   0.18117   0.76261   0.00000  Uiso   1.00
H639   H     0.82897   0.12432   0.71373   0.00000  Uiso   1.00
H640   H     0.83770   0.20908   0.78620   0.00000  Uiso   1.00
N641   N     0.72207   0.10585   0.59219   0.00000  Uiso   1.00
O642   O     0.76775   0.13616   0.60558   0.00000  Uiso   1.00
O643   O     0.72653   0.05584   0.58482   0.00000  Uiso   1.00
N644   N     0.96980   0.26158   0.89288   0.00000  Uiso   1.00
O645   O     0.97578   0.31207   0.88985   0.00000  Uiso   1.00
O646   O     0.91935   0.23756   0.88395   0.00000  Uiso   1.00
Br647  Br    0.89486   0.29726   0.57472   0.00000  Uiso   1.00
Br648  Br    0.85047   0.11996   0.86737   0.00000  Uiso   1.00
O649   O     0.29719   0.57964   0.75310   0.00000  Uiso   1.00
O650   O     0.03614   0.42036   0.74691   0.00000  Uiso   1.00
O651   O     0.05822   0.57035   0.74502   0.00000  Uiso   1.00
O652   O     0.27512   0.42965   0.75499   0.00000  Uiso   1.00
C653   C     0.01511   0.59827   0.74890   0.00000  Uiso   1.00
C654   C     0.31827   0.40175   0.75135   0.00000  Uiso   1.00
O655   O     0.30328   0.50730   0.82247   0.00000  Uiso   1.00
O656   O     0.03005   0.49270   0.67753   0.00000  Uiso   1.00
O657   O     0.06431   0.49801   0.81439   0.00000  Uiso   1.00
O658   O     0.26902   0.50199   0.68561   0.00000  Uiso   1.00
C659   C     0.02115   0.50555   0.84165   0.00000  Uiso   1.00
C660   C     0.31244   0.49524   0.65823   0.00000  Uiso   1.00
Zn661  Zn    0.27033   0.50621   0.75540   0.00000  Uiso   1.00
Zn662  Zn    0.06300   0.49379   0.74461   0.00000  Uiso   1.00
C663   C     0.03335   0.52114   0.89419   0.00000  Uiso   1.00
C664   C     0.30399   0.49076   0.60399   0.00000  Uiso   1.00
C665   C     0.04548   0.59203   0.95772   0.00000  Uiso   1.00
C666   C     0.32206   0.45207   0.52275   0.00000  Uiso   1.00
C667   C     0.01516   0.56832   0.91551   0.00000  Uiso   1.00
C668   C     0.00542   0.46171   0.57304   0.00000  Uiso   1.00
C669   C     0.07827   0.49771   0.91728   0.00000  Uiso   1.00
C670   C     0.25766   0.51409   0.58298   0.00000  Uiso   1.00
C671   C     0.11534   0.52625   0.95254   0.00000  Uiso   1.00
C672   C     0.24446   0.50905   0.53193   0.00000  Uiso   1.00
C673   C     0.09621   0.57231   0.97538   0.00000  Uiso   1.00
C674   C     0.27352   0.47347   0.50279   0.00000  Uiso   1.00
C675   C     0.17038   0.51034   0.96606   0.00000  Uiso   1.00
C676   C     0.19837   0.53375   0.51059   0.00000  Uiso   1.00
C677   C     0.18012   0.58147   0.53136   0.00000  Uiso   1.00
C678   C     0.20077   0.47470   0.93642   0.00000  Uiso   1.00
C679   C     0.12936   0.59993   0.51365   0.00000  Uiso   1.00
C680   C     0.25278   0.45857   0.95464   0.00000  Uiso   1.00
H681   H     0.11642   0.63680   0.52919   0.00000  Uiso   1.00
H682   H     0.27613   0.43257   0.93157   0.00000  Uiso   1.00
H683   H     0.22977   0.53389   0.60719   0.00000  Uiso   1.00
H684   H     0.08573   0.45841   0.90465   0.00000  Uiso   1.00
H685   H     0.03156   0.62791   0.97463   0.00000  Uiso   1.00
H686   H     0.01299   0.42694   0.99962   0.00000  Uiso   1.00
C687   C     0.02299   0.65285   0.74838   0.00000  Uiso   1.00
C688   C     0.31045   0.34719   0.75229   0.00000  Uiso   1.00
H689   H     0.06618   0.33673   0.74464   0.00000  Uiso   1.00
H690   H     0.26726   0.66332   0.75609   0.00000  Uiso   1.00
N691   N     0.14695   0.48550   0.73740   0.00000  Uiso   1.00
N692   N     0.18638   0.51450   0.76261   0.00000  Uiso   1.00
H693   H     0.16230   0.45766   0.71373   0.00000  Uiso   1.00
H694   H     0.17103   0.54241   0.78620   0.00000  Uiso   1.00
N695   N     0.05540   0.43918   0.59219   0.00000  Uiso   1.00
O696   O     0.10108   0.46950   0.60558   0.00000  Uiso   1.00
O697   O     0.05987   0.38918   0.58482   0.00000  Uiso   1.00
N698   N     0.30314   0.59491   0.89288   0.00000  Uiso   1.00
O699   O     0.30911   0.64540   0.88985   0.00000  Uiso   1.00
O700   O     0.25268   0.57089   0.88395   0.00000  Uiso   1.00
Br701  Br    0.22819   0.63060   0.57472   0.00000  Uiso   1.00
Br702  Br    0.18381   0.45329   0.86737   0.00000  Uiso   1.00
O703   O     0.63052   0.57964   0.75310   0.00000  Uiso   1.00
O704   O     0.36948   0.42036   0.74691   0.00000  Uiso   1.00
O705   O     0.39155   0.57035   0.74502   0.00000  Uiso   1.00
O706   O     0.60845   0.42965   0.75499   0.00000  Uiso   1.00
C707   C     0.34844   0.59827   0.74890   0.00000  Uiso   1.00
C708   C     0.65160   0.40175   0.75135   0.00000  Uiso   1.00
O709   O     0.63662   0.50730   0.82247   0.00000  Uiso   1.00
O710   O     0.36338   0.49270   0.67753   0.00000  Uiso   1.00
O711   O     0.39764   0.49801   0.81439   0.00000  Uiso   1.00
O712   O     0.60236   0.50199   0.68561   0.00000  Uiso   1.00
C713   C     0.35448   0.50555   0.84165   0.00000  Uiso   1.00
C714   C     0.64578   0.49524   0.65823   0.00000  Uiso   1.00
Zn715  Zn    0.60366   0.50621   0.75540   0.00000  Uiso   1.00
Zn716  Zn    0.39634   0.49379   0.74461   0.00000  Uiso   1.00
C717   C     0.36668   0.52114   0.89419   0.00000  Uiso   1.00
C718   C     0.63733   0.49076   0.60399   0.00000  Uiso   1.00
C719   C     0.37881   0.59203   0.95772   0.00000  Uiso   1.00
C720   C     0.65540   0.45207   0.52275   0.00000  Uiso   1.00
C721   C     0.34849   0.56832   0.91551   0.00000  Uiso   1.00
C722   C     0.33875   0.46171   0.57304   0.00000  Uiso   1.00
C723   C     0.41160   0.49771   0.91728   0.00000  Uiso   1.00
C724   C     0.59099   0.51409   0.58298   0.00000  Uiso   1.00
C725   C     0.44867   0.52625   0.95254   0.00000  Uiso   1.00
C726   C     0.57779   0.50905   0.53193   0.00000  Uiso   1.00
C727   C     0.42954   0.57231   0.97538   0.00000  Uiso   1.00
C728   C     0.60685   0.47347   0.50279   0.00000  Uiso   1.00
C729   C     0.50371   0.51034   0.96606   0.00000  Uiso   1.00
C730   C     0.53170   0.53375   0.51059   0.00000  Uiso   1.00
C731   C     0.51345   0.58147   0.53136   0.00000  Uiso   1.00
C732   C     0.53411   0.47470   0.93642   0.00000  Uiso   1.00
C733   C     0.46269   0.59993   0.51365   0.00000  Uiso   1.00
C734   C     0.58611   0.45857   0.95464   0.00000  Uiso   1.00
H735   H     0.44975   0.63680   0.52919   0.00000  Uiso   1.00
H736   H     0.60947   0.43257   0.93157   0.00000  Uiso   1.00
H737   H     0.56310   0.53389   0.60719   0.00000  Uiso   1.00
H738   H     0.41906   0.45841   0.90465   0.00000  Uiso   1.00
H739   H     0.36490   0.62791   0.97463   0.00000  Uiso   1.00
H740   H     0.34632   0.42694   0.99962   0.00000  Uiso   1.00
C741   C     0.35632   0.65285   0.74838   0.00000  Uiso   1.00
C742   C     0.64378   0.34719   0.75229   0.00000  Uiso   1.00
H743   H     0.39951   0.33673   0.74464   0.00000  Uiso   1.00
H744   H     0.60060   0.66332   0.75609   0.00000  Uiso   1.00
N745   N     0.48029   0.48550   0.73740   0.00000  Uiso   1.00
N746   N     0.51971   0.51450   0.76261   0.00000  Uiso   1.00
H747   H     0.49564   0.45766   0.71373   0.00000  Uiso   1.00
H748   H     0.50436   0.54241   0.78620   0.00000  Uiso   1.00
N749   N     0.38874   0.43918   0.59219   0.00000  Uiso   1.00
O750   O     0.43441   0.46950   0.60558   0.00000  Uiso   1.00
O751   O     0.39320   0.38918   0.58482   0.00000  Uiso   1.00
N752   N     0.63647   0.59491   0.89288   0.00000  Uiso   1.00
O753   O     0.64244   0.64540   0.88985   0.00000  Uiso   1.00
O754   O     0.58601   0.57089   0.88395   0.00000  Uiso   1.00
Br755  Br    0.56152   0.63060   0.57472   0.00000  Uiso   1.00
Br756  Br    0.51714   0.45329   0.86737   0.00000  Uiso   1.00
O757   O     0.96386   0.57964   0.75310   0.00000  Uiso   1.00
O758   O     0.70281   0.42036   0.74691   0.00000  Uiso   1.00
O759   O     0.72488   0.57035   0.74502   0.00000  Uiso   1.00
O760   O     0.94178   0.42965   0.75499   0.00000  Uiso   1.00
C761   C     0.68177   0.59827   0.74890   0.00000  Uiso   1.00
C762   C     0.98493   0.40175   0.75135   0.00000  Uiso   1.00
O763   O     0.96995   0.50730   0.82247   0.00000  Uiso   1.00
O764   O     0.69672   0.49270   0.67753   0.00000  Uiso   1.00
O765   O     0.73098   0.49801   0.81439   0.00000  Uiso   1.00
O766   O     0.93569   0.50199   0.68561   0.00000  Uiso   1.00
C767   C     0.68781   0.50555   0.84165   0.00000  Uiso   1.00
C768   C     0.97911   0.49524   0.65823   0.00000  Uiso   1.00
Zn769  Zn    0.93700   0.50621   0.75540   0.00000  Uiso   1.00
Zn770  Zn    0.72967   0.49379   0.74461   0.00000  Uiso   1.00
C771   C     0.70002   0.52114   0.89419   0.00000  Uiso   1.00
C772   C     0.97066   0.49076   0.60399   0.00000  Uiso   1.00
C773   C     0.71215   0.59203   0.95772   0.00000  Uiso   1.00
C774   C     0.98873   0.45207   0.52275   0.00000  Uiso   1.00
C775   C     0.68182   0.56832   0.91551   0.00000  Uiso   1.00
C776   C     0.67208   0.46171   0.57304   0.00000  Uiso   1.00
C777   C     0.74494   0.49771   0.91728   0.00000  Uiso   1.00
C778   C     0.92432   0.51409   0.58298   0.00000  Uiso   1.00
C779   C     0.78201   0.52625   0.95254   0.00000  Uiso   1.00
C780   C     0.91112   0.50905   0.53193   0.00000  Uiso   1.00
C781   C     0.76287   0.57231   0.97538   0.00000  Uiso   1.00
C782   C     0.94018   0.47347   0.50279   0.00000  Uiso   1.00
C783   C     0.83704   0.51034   0.96606   0.00000  Uiso   1.00
C784   C     0.86504   0.53375   0.51059   0.00000  Uiso   1.00
C785   C     0.84678   0.58147   0.53136   0.00000  Uiso   1.00
C786   C     0.86744   0.47470   0.93642   0.00000  Uiso   1.00
C787   C     0.79602   0.59993   0.51365   0.00000  Uiso   1.00
C788   C     0.91944   0.45857   0.95464   0.00000  Uiso   1.00
H789   H     0.78309   0.63680   0.52919   0.00000  Uiso   1.00
H790   H     0.94280   0.43257   0.93157   0.00000  Uiso   1.00
H791   H     0.89643   0.53389   0.60719   0.00000  Uiso   1.00
H792   H     0.75240   0.45841   0.90465   0.00000  Uiso   1.00
H793   H     0.69823   0.62791   0.97463   0.00000  Uiso   1.00
H794   H     0.67965   0.42694   0.99962   0.00000  Uiso   1.00
C795   C     0.68965   0.65285   0.74838   0.00000  Uiso   1.00
C796   C     0.97711   0.34719   0.75229   0.00000  Uiso   1.00
H797   H     0.73284   0.33673   0.74464   0.00000  Uiso   1.00
H798   H     0.93393   0.66332   0.75609   0.00000  Uiso   1.00
N799   N     0.81362   0.48550   0.73740   0.00000  Uiso   1.00
N800   N     0.85305   0.51450   0.76261   0.00000  Uiso   1.00
H801   H     0.82897   0.45766   0.71373   0.00000  Uiso   1.00
H802   H     0.83770   0.54241   0.78620   0.00000  Uiso   1.00
N803   N     0.72207   0.43918   0.59219   0.00000  Uiso   1.00
O804   O     0.76775   0.46950   0.60558   0.00000  Uiso   1.00
O805   O     0.72653   0.38918   0.58482   0.00000  Uiso   1.00
N806   N     0.96980   0.59491   0.89288   0.00000  Uiso   1.00
O807   O     0.97578   0.64540   0.88985   0.00000  Uiso   1.00
O808   O     0.91935   0.57089   0.88395   0.00000  Uiso   1.00
Br809  Br    0.89486   0.63060   0.57472   0.00000  Uiso   1.00
Br810  Br    0.85047   0.45329   0.86737   0.00000  Uiso   1.00
O811   O     0.29719   0.91298   0.75310   0.00000  Uiso   1.00
O812   O     0.03614   0.75369   0.74691   0.00000  Uiso   1.00
O813   O     0.05822   0.90368   0.74502   0.00000  Uiso   1.00
O814   O     0.27512   0.76298   0.75499   0.00000  Uiso   1.00
C815   C     0.01511   0.93160   0.74890   0.00000  Uiso   1.00
C816   C     0.31827   0.73508   0.75135   0.00000  Uiso   1.00
O817   O     0.30328   0.84063   0.82247   0.00000  Uiso   1.00
O818   O     0.03005   0.82603   0.67753   0.00000  Uiso   1.00
O819   O     0.06431   0.83134   0.81439   0.00000  Uiso   1.00
O820   O     0.26902   0.83533   0.68561   0.00000  Uiso   1.00
C821   C     0.02115   0.83888   0.84165   0.00000  Uiso   1.00
C822   C     0.31244   0.82857   0.65823   0.00000  Uiso   1.00
Zn823  Zn    0.27033   0.83954   0.75540   0.00000  Uiso   1.00
Zn824  Zn    0.06300   0.82713   0.74461   0.00000  Uiso   1.00
C825   C     0.03335   0.85448   0.89419   0.00000  Uiso   1.00
C826   C     0.30399   0.82410   0.60399   0.00000  Uiso   1.00
C827   C     0.04548   0.92537   0.95772   0.00000  Uiso   1.00
C828   C     0.32206   0.78540   0.52275   0.00000  Uiso   1.00
C829   C     0.01516   0.90165   0.91551   0.00000  Uiso   1.00
C830   C     0.00542   0.79504   0.57304   0.00000  Uiso   1.00
C831   C     0.07827   0.83105   0.91728   0.00000  Uiso   1.00
C832   C     0.25766   0.84742   0.58298   0.00000  Uiso   1.00
C833   C     0.11534   0.85958   0.95254   0.00000  Uiso   1.00
C834   C     0.24446   0.84238   0.53193   0.00000  Uiso   1.00
C835   C     0.09621   0.90565   0.97538   0.00000  Uiso   1.00
C836   C     0.27352   0.80681   0.50279   0.00000  Uiso   1.00
C837   C     0.17038   0.84368   0.96606   0.00000  Uiso   1.00
C838   C     0.19837   0.86708   0.51059   0.00000  Uiso   1.00
C839   C     0.18012   0.91481   0.53136   0.00000  Uiso   1.00
C840   C     0.20077   0.80803   0.93642   0.00000  Uiso   1.00
C841   C     0.12936   0.93326   0.51365   0.00000  Uiso   1.00
C842   C     0.25278   0.79190   0.95464   0.00000  Uiso   1.00
H843   H     0.11642   0.97013   0.52919   0.00000  Uiso   1.00
H844   H     0.27613   0.76591   0.93157   0.00000  Uiso   1.00
H845   H     0.22977   0.86722   0.60719   0.00000  Uiso   1.00
H846   H     0.08573   0.79174   0.90465   0.00000  Uiso   1.00
H847   H     0.03156   0.96124   0.97463   0.00000  Uiso   1.00
H848   H     0.01299   0.76027   0.99962   0.00000  Uiso   1.00
C849   C     0.02299   0.98619   0.74838   0.00000  Uiso   1.00
C850   C     0.31045   0.68052   0.75229   0.00000  Uiso   1.00
H851   H     0.06618   0.67006   0.74464   0.00000  Uiso   1.00
H852   H     0.26726   0.99666   0.75609   0.00000  Uiso   1.00
N853   N     0.14695   0.81883   0.73740   0.00000  Uiso   1.00
N854   N     0.18638   0.84784   0.76261   0.00000  Uiso   1.00
H855   H     0.16230   0.79099   0.71373   0.00000  Uiso   1.00
H856   H     0.17103   0.87575   0.78620   0.00000  Uiso   1.00
N857   N     0.05540   0.77252   0.59219   0.00000  Uiso   1.00
O858   O     0.10108   0.80283   0.60558   0.00000  Uiso   1.00
O859   O     0.05987   0.72251   0.58482   0.00000  Uiso   1.00
N860   N     0.30314   0.92825   0.89288   0.00000  Uiso   1.00
O861   O     0.30911   0.97874   0.88985   0.00000  Uiso   1.00
O862   O     0.25268   0.90422   0.88395   0.00000  Uiso   1.00
Br863  Br    0.22819   0.96393   0.57472   0.00000  Uiso   1.00
Br864  Br    0.18381   0.78663   0.86737   0.00000  Uiso   1.00
O865   O     0.63052   0.91298   0.75310   0.00000  Uiso   1.00
O866   O     0.36948   0.75369   0.74691   0.00000  Uiso   1.00
O867   O     0.39155   0.90368   0.74502   0.00000  Uiso   1.00
O868   O     0.60845   0.76298   0.75499   0.00000  Uiso   1.00
C869   C     0.34844   0.93160   0.74890   0.00000  Uiso   1.00
C870   C     0.65160   0.73508   0.75135   0.00000  Uiso   1.00
O871   O     0.63662   0.84063   0.82247   0.00000  Uiso   1.00
O872   O     0.36338   0.82603   0.67753   0.00000  Uiso   1.00
O873   O     0.39764   0.83134   0.81439   0.00000  Uiso   1.00
O874   O     0.60236   0.83533   0.68561   0.00000  Uiso   1.00
C875   C     0.35448   0.83888   0.84165   0.00000  Uiso   1.00
C876   C     0.64578   0.82857   0.65823   0.00000  Uiso   1.00
Zn877  Zn    0.60366   0.83954   0.75540   0.00000  Uiso   1.00
Zn878  Zn    0.39634   0.82713   0.74461   0.00000  Uiso   1.00
C879   C     0.36668   0.85448   0.89419   0.00000  Uiso   1.00
C880   C     0.63733   0.82410   0.60399   0.00000  Uiso   1.00
C881   C     0.37881   0.92537   0.95772   0.00000  Uiso   1.00
C882   C     0.65540   0.78540   0.52275   0.00000  Uiso   1.00
C883   C     0.34849   0.90165   0.91551   0.00000  Uiso   1.00
C884   C     0.33875   0.79504   0.57304   0.00000  Uiso   1.00
C885   C     0.41160   0.83105   0.91728   0.00000  Uiso   1.00
C886   C     0.59099   0.84742   0.58298   0.00000  Uiso   1.00
C887   C     0.44867   0.85958   0.95254   0.00000  Uiso   1.00
C888   C     0.57779   0.84238   0.53193   0.00000  Uiso   1.00
C889   C     0.42954   0.90565   0.97538   0.00000  Uiso   1.00
C890   C     0.60685   0.80681   0.50279   0.00000  Uiso   1.00
C891   C     0.50371   0.84368   0.96606   0.00000  Uiso   1.00
C892   C     0.53170   0.86708   0.51059   0.00000  Uiso   1.00
C893   C     0.51345   0.91481   0.53136   0.00000  Uiso   1.00
C894   C     0.53411   0.80803   0.93642   0.00000  Uiso   1.00
C895   C     0.46269   0.93326   0.51365   0.00000  Uiso   1.00
C896   C     0.58611   0.79190   0.95464   0.00000  Uiso   1.00
H897   H     0.44975   0.97013   0.52919   0.00000  Uiso   1.00
H898   H     0.60947   0.76591   0.93157   0.00000  Uiso   1.00
H899   H     0.56310   0.86722   0.60719   0.00000  Uiso   1.00
H900   H     0.41906   0.79174   0.90465   0.00000  Uiso   1.00
H901   H     0.36490   0.96124   0.97463   0.00000  Uiso   1.00
H902   H     0.34632   0.76027   0.99962   0.00000  Uiso   1.00
C903   C     0.35632   0.98619   0.74838   0.00000  Uiso   1.00
C904   C     0.64378   0.68052   0.75229   0.00000  Uiso   1.00
H905   H     0.39951   0.67006   0.74464   0.00000  Uiso   1.00
H906   H     0.60060   0.99666   0.75609   0.00000  Uiso   1.00
N907   N     0.48029   0.81883   0.73740   0.00000  Uiso   1.00
N908   N     0.51971   0.84784   0.76261   0.00000  Uiso   1.00
H909   H     0.49564   0.79099   0.71373   0.00000  Uiso   1.00
H910   H     0.50436   0.87575   0.78620   0.00000  Uiso   1.00
N911   N     0.38874   0.77252   0.59219   0.00000  Uiso   1.00
O912   O     0.43441   0.80283   0.60558   0.00000  Uiso   1.00
O913   O     0.39320   0.72251   0.58482   0.00000  Uiso   1.00
N914   N     0.63647   0.92825   0.89288   0.00000  Uiso   1.00
O915   O     0.64244   0.97874   0.88985   0.00000  Uiso   1.00
O916   O     0.58601   0.90422   0.88395   0.00000  Uiso   1.00
Br917  Br    0.56152   0.96393   0.57472   0.00000  Uiso   1.00
Br918  Br    0.51714   0.78663   0.86737   0.00000  Uiso   1.00
O919   O     0.96386   0.91298   0.75310   0.00000  Uiso   1.00
O920   O     0.70281   0.75369   0.74691   0.00000  Uiso   1.00
O921   O     0.72488   0.90368   0.74502   0.00000  Uiso   1.00
O922   O     0.94178   0.76298   0.75499   0.00000  Uiso   1.00
C923   C     0.68177   0.93160   0.74890   0.00000  Uiso   1.00
C924   C     0.98493   0.73508   0.75135   0.00000  Uiso   1.00
O925   O     0.96995   0.84063   0.82247   0.00000  Uiso   1.00
O926   O     0.69672   0.82603   0.67753   0.00000  Uiso   1.00
O927   O     0.73098   0.83134   0.81439   0.00000  Uiso   1.00
O928   O     0.93569   0.83533   0.68561   0.00000  Uiso   1.00
C929   C     0.68781   0.83888   0.84165   0.00000  Uiso   1.00
C930   C     0.97911   0.82857   0.65823   0.00000  Uiso   1.00
Zn931  Zn    0.93700   0.83954   0.75540   0.00000  Uiso   1.00
Zn932  Zn    0.72967   0.82713   0.74461   0.00000  Uiso   1.00
C933   C     0.70002   0.85448   0.89419   0.00000  Uiso   1.00
C934   C     0.97066   0.82410   0.60399   0.00000  Uiso   1.00
C935   C     0.71215   0.92537   0.95772   0.00000  Uiso   1.00
C936   C     0.98873   0.78540   0.52275   0.00000  Uiso   1.00
C937   C     0.68182   0.90165   0.91551   0.00000  Uiso   1.00
C938   C     0.67208   0.79504   0.57304   0.00000  Uiso   1.00
C939   C     0.74494   0.83105   0.91728   0.00000  Uiso   1.00
C940   C     0.92432   0.84742   0.58298   0.00000  Uiso   1.00
C941   C     0.78201   0.85958   0.95254   0.00000  Uiso   1.00
C942   C     0.91112   0.84238   0.53193   0.00000  Uiso   1.00
C943   C     0.76287   0.90565   0.97538   0.00000  Uiso   1.00
C944   C     0.94018   0.80681   0.50279   0.00000  Uiso   1.00
C945   C     0.83704   0.84368   0.96606   0.00000  Uiso   1.00
C946   C     0.86504   0.86708   0.51059   0.00000  Uiso   1.00
C947   C     0.84678   0.91481   0.53136   0.00000  Uiso   1.00
C948   C     0.86744   0.80803   0.93642   0.00000  Uiso   1.00
C949   C     0.79602   0.93326   0.51365   0.00000  Uiso   1.00
C950   C     0.91944   0.79190   0.95464   0.00000  Uiso   1.00
H951   H     0.78309   0.97013   0.52919   0.00000  Uiso   1.00
H952   H     0.94280   0.76591   0.93157   0.00000  Uiso   1.00
H953   H     0.89643   0.86722   0.60719   0.00000  Uiso   1.00
H954   H     0.75240   0.79174   0.90465   0.00000  Uiso   1.00
H955   H     0.69823   0.96124   0.97463   0.00000  Uiso   1.00
H956   H     0.67965   0.76027   0.99962   0.00000  Uiso   1.00
C957   C     0.68965   0.98619   0.74838   0.00000  Uiso   1.00
C958   C     0.97711   0.68052   0.75229   0.00000  Uiso   1.00
H959   H     0.73284   0.67006   0.74464   0.00000  Uiso   1.00
H960   H     0.93393   0.99666   0.75609   0.00000  Uiso   1.00
N961   N     0.81362   0.81883   0.73740   0.00000  Uiso   1.00
N962   N     0.85305   0.84784   0.76261   0.00000  Uiso   1.00
H963   H     0.82897   0.79099   0.71373   0.00000  Uiso   1.00
H964   H     0.83770   0.87575   0.78620   0.00000  Uiso   1.00
N965   N     0.72207   0.77252   0.59219   0.00000  Uiso   1.00
O966   O     0.76775   0.80283   0.60558   0.00000  Uiso   1.00
O967   O     0.72653   0.72251   0.58482   0.00000  Uiso   1.00
N968   N     0.96980   0.92825   0.89288   0.00000  Uiso   1.00
O969   O     0.97578   0.97874   0.88985   0.00000  Uiso   1.00
O970   O     0.91935   0.90422   0.88395   0.00000  Uiso   1.00
Br971  Br    0.89486   0.96393   0.57472   0.00000  Uiso   1.00
Br972  Br    0.85047   0.78663   0.86737   0.00000  Uiso   1.00
loop_
_geom_bond_atom_site_label_1
_geom_bond_atom_site_label_2
_geom_bond_distance
_geom_bond_site_symmetry_2
_ccdc_geom_bond_type
O1     Zn13    1.949   .     S
O1     C59     1.275   .     S
O2     Zn14    1.949   .     S
O2     C114    1.275   1_455 S
O3     Zn14    1.977   .     S
O3     C5      1.288   .     A
O4     C6      1.288   .     A
O4     Zn13    1.977   .     S
C5     C39     1.401   .     S
C5     O109    1.275   1_455 S
C6     C40     1.401   .     S
C6     O56     1.275   .     S
O7     Zn13    1.931   .     S
O7     C65     1.290   .     S
O8     Zn14    1.931   .     S
O8     C120    1.288   1_455 S
O9     Zn14    1.880   .     S
O9     C11     1.302   .     A
O10    C12     1.305   .     A
O10    Zn13    1.880   .     S
C11    C15     1.461   .     S
C11    O115    1.290   1_455 S
C12    C16     1.465   .     S
C12    O62     1.288   .     S
Zn13   N44     2.016   .     S
Zn14   N43     2.016   .     S
C15    C21     1.390   .     A
C15    C19     1.416   .     A
C16    C22     1.391   .     A
C16    C74     1.418   .     S
C17    C25     1.400   .     A
C17    H37     1.085   .     S
C17    C19     1.398   .     A
C18    C26     1.398   .     A
C18    C74     1.397   .     S
C18    H578    1.085   1_554 S
C19    N158    1.436   1_455 S
C20    N47     1.432   .     S
C20    C124    1.418   1_455 S
C20    C126    1.397   1_455 S
C21    H36     1.077   .     S
C21    C23     1.394   .     A
C22    H35     1.082   .     S
C22    C24     1.394   .     A
C23    C27     1.420   .     A
C23    C25     1.417   .     A
C24    C26     1.409   .     A
C24    C28     1.409   .     A
C25    C517    1.390   .     S
C26    C518    1.388   1_554 S
C27    C30     1.435   .     A
C27    C514    1.421   .     S
C28    C29     1.423   .     A
C28    C513    1.421   1_554 S
C29    Br53    1.931   .     S
C29    C31     1.387   .     A
C30    Br54    1.927   .     S
C30    C32     1.393   .     A
C31    H33     1.084   .     S
C31    C511    1.390   1_554 S
C32    H34     1.085   .     S
C32    C512    1.388   .     S
H38    C612    1.085   1_455 S
C39    C310    1.339   1_455 S
C39    H203    1.088   .     S
C40    C417    1.339   1_545 S
C40    H366    1.088   1_545 S
H41    C363    1.088   1_545 S
H42    C202    1.088   .     S
N43    N44     1.286   .     D
N43    H45     1.029   .     S
N44    H46     1.029   .     S
N47    O48     1.301   .     A
N47    O49     1.301   .     A
N50    O52     1.300   .     A
N50    O51     1.301   .     A
N50    C73     1.436   .     S
O55    Zn67    1.949   .     S
O55    C113    1.275   .     S
O56    Zn68    1.949   .     S
O57    Zn68    1.977   .     S
O57    C59     1.288   .     A
O58    C60     1.288   .     A
O58    Zn67    1.977   .     S
C59    C93     1.401   .     S
C60    C94     1.401   .     S
C60    O110    1.275   .     S
O61    Zn67    1.931   .     S
O61    C119    1.290   .     S
O62    Zn68    1.931   .     S
O63    Zn68    1.880   .     S
O63    C65     1.302   .     A
O64    C66     1.305   .     A
O64    Zn67    1.880   .     S
C65    C69     1.461   .     S
C66    C70     1.465   .     S
C66    O116    1.288   .     S
Zn67   N98     2.016   .     S
Zn68   N97     2.016   .     S
C69    C75     1.390   .     A
C69    C73     1.416   .     A
C70    C76     1.391   .     A
C70    C128    1.418   .     S
C71    C79     1.400   .     A
C71    H91     1.085   .     S
C71    C73     1.398   .     A
C72    C80     1.398   .     A
C72    C128    1.397   .     S
C72    H632    1.085   1_554 S
C74    N101    1.432   .     S
C75    H90     1.077   .     S
C75    C77     1.394   .     A
C76    H89     1.082   .     S
C76    C78     1.394   .     A
C77    C81     1.420   .     A
C77    C79     1.417   .     A
C78    C80     1.409   .     A
C78    C82     1.409   .     A
C79    C571    1.390   .     S
C80    C572    1.388   1_554 S
C81    C84     1.435   .     A
C81    C568    1.421   .     S
C82    C83     1.423   .     A
C82    C567    1.421   1_554 S
C83    Br107   1.931   .     S
C83    C85     1.387   .     A
C84    Br108   1.927   .     S
C84    C86     1.393   .     A
C85    H87     1.084   .     S
C85    C565    1.390   1_554 S
C86    H88     1.085   .     S
C86    C566    1.388   .     S
H92    C504    1.085   .     S
C93    C202    1.339   .     S
C93    H257    1.088   .     S
C94    C471    1.339   1_545 S
C94    H420    1.088   1_545 S
H95    C417    1.088   1_545 S
H96    C256    1.088   .     S
N97    N98     1.286   .     D
N97    H99     1.029   .     S
N98    H100    1.029   .     S
N101   O102    1.301   .     A
N101   O103    1.301   .     A
N104   O106    1.300   .     A
N104   O105    1.301   .     A
N104   C127    1.436   .     S
O109   Zn121   1.949   .     S
O109   C5      1.275   1_655 S
O110   Zn122   1.949   .     S
O111   Zn122   1.977   .     S
O111   C113    1.288   .     A
O112   C114    1.288   .     A
O112   Zn121   1.977   .     S
C113   C147    1.401   .     S
C114   C148    1.401   .     S
C114   O2      1.275   1_655 S
O115   Zn121   1.931   .     S
O115   C11     1.290   1_655 S
O116   Zn122   1.931   .     S
O117   Zn122   1.880   .     S
O117   C119    1.302   .     A
O118   C120    1.305   .     A
O118   Zn121   1.880   .     S
C119   C123    1.461   .     S
C120   C124    1.465   .     S
C120   O8      1.288   1_655 S
Zn121  N152    2.016   .     S
Zn122  N151    2.016   .     S
C123   C129    1.390   .     A
C123   C127    1.416   .     A
C124   C130    1.391   .     A
C124   C20     1.418   1_655 S
C125   C133    1.400   .     A
C125   H145    1.085   .     S
C125   C127    1.398   .     A
C126   C134    1.398   .     A
C126   C20     1.397   1_655 S
C126   H524    1.085   1_654 S
C128   N155    1.432   .     S
C129   H144    1.077   .     S
C129   C131    1.394   .     A
C130   H143    1.082   .     S
C130   C132    1.394   .     A
C131   C135    1.420   .     A
C131   C133    1.417   .     A
C132   C134    1.409   .     A
C132   C136    1.409   .     A
C133   C625    1.390   .     S
C134   C626    1.388   1_554 S
C135   C138    1.435   .     A
C135   C622    1.421   .     S
C136   C137    1.423   .     A
C136   C621    1.421   1_554 S
C137   Br161   1.931   .     S
C137   C139    1.387   .     A
C138   Br162   1.927   .     S
C138   C140    1.393   .     A
C139   H141    1.084   .     S
C139   C619    1.390   1_554 S
C140   H142    1.085   .     S
C140   C620    1.388   .     S
H146   C558    1.085   .     S
C147   C256    1.339   .     S
C147   H311    1.088   .     S
C148   C363    1.339   1_645 S
C148   H474    1.088   1_545 S
H149   C471    1.088   1_545 S
H150   C310    1.088   .     S
N151   N152    1.286   .     D
N151   H153    1.029   .     S
N152   H154    1.029   .     S
N155   O156    1.301   .     A
N155   O157    1.301   .     A
N158   O160    1.300   .     A
N158   O159    1.301   .     A
N158   C19     1.436   1_655 S
O163   Zn175   1.949   .     S
O163   C221    1.275   .     S
O164   Zn176   1.949   .     S
O164   C276    1.275   1_455 S
O165   Zn176   1.977   .     S
O165   C167    1.288   .     A
O166   C168    1.288   .     A
O166   Zn175   1.977   .     S
C167   C201    1.401   .     S
C167   O271    1.275   1_455 S
C168   C202    1.401   .     S
C168   O218    1.275   .     S
O169   Zn175   1.931   .     S
O169   C227    1.290   .     S
O170   Zn176   1.931   .     S
O170   C282    1.288   1_455 S
O171   Zn176   1.880   .     S
O171   C173    1.302   .     A
O172   C174    1.305   .     A
O172   Zn175   1.880   .     S
C173   C177    1.461   .     S
C173   O277    1.290   1_455 S
C174   C178    1.465   .     S
C174   O224    1.288   .     S
Zn175  N206    2.016   .     S
Zn176  N205    2.016   .     S
C177   C183    1.390   .     A
C177   C181    1.416   .     A
C178   C184    1.391   .     A
C178   C236    1.418   .     S
C179   C187    1.400   .     A
C179   H199    1.085   .     S
C179   C181    1.398   .     A
C180   C188    1.398   .     A
C180   C236    1.397   .     S
C180   H740    1.085   1_554 S
C181   N320    1.436   1_455 S
C182   N209    1.432   .     S
C182   C286    1.418   1_455 S
C182   C288    1.397   1_455 S
C183   H198    1.077   .     S
C183   C185    1.394   .     A
C184   H197    1.082   .     S
C184   C186    1.394   .     A
C185   C189    1.420   .     A
C185   C187    1.417   .     A
C186   C188    1.409   .     A
C186   C190    1.409   .     A
C187   C679    1.390   .     S
C188   C680    1.388   1_554 S
C189   C192    1.435   .     A
C189   C676    1.421   .     S
C190   C191    1.423   .     A
C190   C675    1.421   1_554 S
C191   Br215   1.931   .     S
C191   C193    1.387   .     A
C192   Br216   1.927   .     S
C192   C194    1.393   .     A
C193   H195    1.084   .     S
C193   C673    1.390   1_554 S
C194   H196    1.085   .     S
C194   C674    1.388   .     S
H200   C774    1.085   1_455 S
C201   C472    1.339   1_455 S
C201   H365    1.088   .     S
H204   C364    1.088   .     S
N205   N206    1.286   .     D
N205   H207    1.029   .     S
N206   H208    1.029   .     S
N209   O210    1.301   .     A
N209   O211    1.301   .     A
N212   O214    1.300   .     A
N212   O213    1.301   .     A
N212   C235    1.436   .     S
O217   Zn229   1.949   .     S
O217   C275    1.275   .     S
O218   Zn230   1.949   .     S
O219   Zn230   1.977   .     S
O219   C221    1.288   .     A
O220   C222    1.288   .     A
O220   Zn229   1.977   .     S
C221   C255    1.401   .     S
C222   C256    1.401   .     S
C222   O272    1.275   .     S
O223   Zn229   1.931   .     S
O223   C281    1.290   .     S
O224   Zn230   1.931   .     S
O225   Zn230   1.880   .     S
O225   C227    1.302   .     A
O226   C228    1.305   .     A
O226   Zn229   1.880   .     S
C227   C231    1.461   .     S
C228   C232    1.465   .     S
C228   O278    1.288   .     S
Zn229  N260    2.016   .     S
Zn230  N259    2.016   .     S
C231   C237    1.390   .     A
C231   C235    1.416   .     A
C232   C238    1.391   .     A
C232   C290    1.418   .     S
C233   C241    1.400   .     A
C233   H253    1.085   .     S
C233   C235    1.398   .     A
C234   C242    1.398   .     A
C234   C290    1.397   .     S
C234   H794    1.085   1_554 S
C236   N263    1.432   .     S
C237   H252    1.077   .     S
C237   C239    1.394   .     A
C238   H251    1.082   .     S
C238   C240    1.394   .     A
C239   C243    1.420   .     A
C239   C241    1.417   .     A
C240   C242    1.409   .     A
C240   C244    1.409   .     A
C241   C733    1.390   .     S
C242   C734    1.388   1_554 S
C243   C246    1.435   .     A
C243   C730    1.421   .     S
C244   C245    1.423   .     A
C244   C729    1.421   1_554 S
C245   Br269   1.931   .     S
C245   C247    1.387   .     A
C246   Br270   1.927   .     S
C246   C248    1.393   .     A
C247   H249    1.084   .     S
C247   C727    1.390   1_554 S
C248   H250    1.085   .     S
C248   C728    1.388   .     S
H254   C666    1.085   .     S
C255   C364    1.339   .     S
C255   H419    1.088   .     S
H258   C418    1.088   .     S
N259   N260    1.286   .     D
N259   H261    1.029   .     S
N260   H262    1.029   .     S
N263   O264    1.301   .     A
N263   O265    1.301   .     A
N266   O268    1.300   .     A
N266   O267    1.301   .     A
N266   C289    1.436   .     S
O271   Zn283   1.949   .     S
O271   C167    1.275   1_655 S
O272   Zn284   1.949   .     S
O273   Zn284   1.977   .     S
O273   C275    1.288   .     A
O274   C276    1.288   .     A
O274   Zn283   1.977   .     S
C275   C309    1.401   .     S
C276   C310    1.401   .     S
C276   O164    1.275   1_655 S
O277   Zn283   1.931   .     S
O277   C173    1.290   1_655 S
O278   Zn284   1.931   .     S
O279   Zn284   1.880   .     S
O279   C281    1.302   .     A
O280   C282    1.305   .     A
O280   Zn283   1.880   .     S
C281   C285    1.461   .     S
C282   C286    1.465   .     S
C282   O170    1.288   1_655 S
Zn283  N314    2.016   .     S
Zn284  N313    2.016   .     S
C285   C291    1.390   .     A
C285   C289    1.416   .     A
C286   C292    1.391   .     A
C286   C182    1.418   1_655 S
C287   C295    1.400   .     A
C287   H307    1.085   .     S
C287   C289    1.398   .     A
C288   C296    1.398   .     A
C288   C182    1.397   1_655 S
C288   H686    1.085   1_654 S
C290   N317    1.432   .     S
C291   H306    1.077   .     S
C291   C293    1.394   .     A
C292   H305    1.082   .     S
C292   C294    1.394   .     A
C293   C297    1.420   .     A
C293   C295    1.417   .     A
C294   C296    1.409   .     A
C294   C298    1.409   .     A
C295   C787    1.390   .     S
C296   C788    1.388   1_554 S
C297   C300    1.435   .     A
C297   C784    1.421   .     S
C298   C299    1.423   .     A
C298   C783    1.421   1_554 S
C299   Br323   1.931   .     S
C299   C301    1.387   .     A
C300   Br324   1.927   .     S
C300   C302    1.393   .     A
C301   H303    1.084   .     S
C301   C781    1.390   1_554 S
C302   H304    1.085   .     S
C302   C782    1.388   .     S
H308   C720    1.085   .     S
C309   C418    1.339   .     S
C309   H473    1.088   .     S
C310   C39     1.339   1_655 S
H312   C472    1.088   .     S
N313   N314    1.286   .     D
N313   H315    1.029   .     S
N314   H316    1.029   .     S
N317   O318    1.301   .     A
N317   O319    1.301   .     A
N320   O322    1.300   .     A
N320   O321    1.301   .     A
N320   C181    1.436   1_655 S
O325   Zn337   1.949   .     S
O325   C383    1.275   .     S
O326   Zn338   1.949   .     S
O326   C438    1.275   1_455 S
O327   Zn338   1.977   .     S
O327   C329    1.288   .     A
O328   C330    1.288   .     A
O328   Zn337   1.977   .     S
C329   C363    1.401   .     S
C329   O433    1.275   1_455 S
C330   C364    1.401   .     S
C330   O380    1.275   .     S
O331   Zn337   1.931   .     S
O331   C389    1.290   .     S
O332   Zn338   1.931   .     S
O332   C444    1.288   1_455 S
O333   Zn338   1.880   .     S
O333   C335    1.302   .     A
O334   C336    1.305   .     A
O334   Zn337   1.880   .     S
C335   C339    1.461   .     S
C335   O439    1.290   1_455 S
C336   C340    1.465   .     S
C336   O386    1.288   .     S
Zn337  N368    2.016   .     S
Zn338  N367    2.016   .     S
C339   C345    1.390   .     A
C339   C343    1.416   .     A
C340   C346    1.391   .     A
C340   C398    1.418   .     S
C341   C349    1.400   .     A
C341   H361    1.085   .     S
C341   C343    1.398   .     A
C342   C350    1.398   .     A
C342   C398    1.397   .     S
C342   H902    1.085   1_554 S
C343   N482    1.436   1_455 S
C344   N371    1.432   .     S
C344   C448    1.418   1_455 S
C344   C450    1.397   1_455 S
C345   H360    1.077   .     S
C345   C347    1.394   .     A
C346   H359    1.082   .     S
C346   C348    1.394   .     A
C347   C351    1.420   .     A
C347   C349    1.417   .     A
C348   C350    1.409   .     A
C348   C352    1.409   .     A
C349   C841    1.390   .     S
C350   C842    1.388   1_554 S
C351   C354    1.435   .     A
C351   C838    1.421   .     S
C352   C353    1.423   .     A
C352   C837    1.421   1_554 S
C353   Br377   1.931   .     S
C353   C355    1.387   .     A
C354   Br378   1.927   .     S
C354   C356    1.393   .     A
C355   H357    1.084   .     S
C355   C835    1.390   1_554 S
C356   H358    1.085   .     S
C356   C836    1.388   .     S
H362   C936    1.085   1_455 S
C363   C148    1.339   1_465 S
C363   H41     1.088   1_565 S
H366   C40     1.088   1_565 S
N367   N368    1.286   .     D
N367   H369    1.029   .     S
N368   H370    1.029   .     S
N371   O372    1.301   .     A
N371   O373    1.301   .     A
N374   O376    1.300   .     A
N374   O375    1.301   .     A
N374   C397    1.436   .     S
O379   Zn391   1.949   .     S
O379   C437    1.275   .     S
O380   Zn392   1.949   .     S
O381   Zn392   1.977   .     S
O381   C383    1.288   .     A
O382   C384    1.288   .     A
O382   Zn391   1.977   .     S
C383   C417    1.401   .     S
C384   C418    1.401   .     S
C384   O434    1.275   .     S
O385   Zn391   1.931   .     S
O385   C443    1.290   .     S
O386   Zn392   1.931   .     S
O387   Zn392   1.880   .     S
O387   C389    1.302   .     A
O388   C390    1.305   .     A
O388   Zn391   1.880   .     S
C389   C393    1.461   .     S
C390   C394    1.465   .     S
C390   O440    1.288   .     S
Zn391  N422    2.016   .     S
Zn392  N421    2.016   .     S
C393   C399    1.390   .     A
C393   C397    1.416   .     A
C394   C400    1.391   .     A
C394   C452    1.418   .     S
C395   C403    1.400   .     A
C395   H415    1.085   .     S
C395   C397    1.398   .     A
C396   C404    1.398   .     A
C396   C452    1.397   .     S
C396   H956    1.085   1_554 S
C398   N425    1.432   .     S
C399   H414    1.077   .     S
C399   C401    1.394   .     A
C400   H413    1.082   .     S
C400   C402    1.394   .     A
C401   C405    1.420   .     A
C401   C403    1.417   .     A
C402   C404    1.409   .     A
C402   C406    1.409   .     A
C403   C895    1.390   .     S
C404   C896    1.388   1_554 S
C405   C408    1.435   .     A
C405   C892    1.421   .     S
C406   C407    1.423   .     A
C406   C891    1.421   1_554 S
C407   Br431   1.931   .     S
C407   C409    1.387   .     A
C408   Br432   1.927   .     S
C408   C410    1.393   .     A
C409   H411    1.084   .     S
C409   C889    1.390   1_554 S
C410   H412    1.085   .     S
C410   C890    1.388   .     S
H416   C828    1.085   .     S
C417   C40     1.339   1_565 S
C417   H95     1.088   1_565 S
H420   C94     1.088   1_565 S
N421   N422    1.286   .     D
N421   H423    1.029   .     S
N422   H424    1.029   .     S
N425   O426    1.301   .     A
N425   O427    1.301   .     A
N428   O430    1.300   .     A
N428   O429    1.301   .     A
N428   C451    1.436   .     S
O433   Zn445   1.949   .     S
O433   C329    1.275   1_655 S
O434   Zn446   1.949   .     S
O435   Zn446   1.977   .     S
O435   C437    1.288   .     A
O436   C438    1.288   .     A
O436   Zn445   1.977   .     S
C437   C471    1.401   .     S
C438   C472    1.401   .     S
C438   O326    1.275   1_655 S
O439   Zn445   1.931   .     S
O439   C335    1.290   1_655 S
O440   Zn446   1.931   .     S
O441   Zn446   1.880   .     S
O441   C443    1.302   .     A
O442   C444    1.305   .     A
O442   Zn445   1.880   .     S
C443   C447    1.461   .     S
C444   C448    1.465   .     S
C444   O332    1.288   1_655 S
Zn445  N476    2.016   .     S
Zn446  N475    2.016   .     S
C447   C453    1.390   .     A
C447   C451    1.416   .     A
C448   C454    1.391   .     A
C448   C344    1.418   1_655 S
C449   C457    1.400   .     A
C449   H469    1.085   .     S
C449   C451    1.398   .     A
C450   C458    1.398   .     A
C450   C344    1.397   1_655 S
C450   H848    1.085   1_654 S
C452   N479    1.432   .     S
C453   H468    1.077   .     S
C453   C455    1.394   .     A
C454   H467    1.082   .     S
C454   C456    1.394   .     A
C455   C459    1.420   .     A
C455   C457    1.417   .     A
C456   C458    1.409   .     A
C456   C460    1.409   .     A
C457   C949    1.390   .     S
C458   C950    1.388   1_554 S
C459   C462    1.435   .     A
C459   C946    1.421   .     S
C460   C461    1.423   .     A
C460   C945    1.421   1_554 S
C461   Br485   1.931   .     S
C461   C463    1.387   .     A
C462   Br486   1.927   .     S
C462   C464    1.393   .     A
C463   H465    1.084   .     S
C463   C943    1.390   1_554 S
C464   H466    1.085   .     S
C464   C944    1.388   .     S
H470   C882    1.085   .     S
C471   C94     1.339   1_565 S
C471   H149    1.088   1_565 S
C472   C201    1.339   1_655 S
H474   C148    1.088   1_565 S
N475   N476    1.286   .     D
N475   H477    1.029   .     S
N476   H478    1.029   .     S
N479   O480    1.301   .     A
N479   O481    1.301   .     A
N482   O484    1.300   .     A
N482   O483    1.301   .     A
N482   C343    1.436   1_655 S
O487   Zn499   1.949   .     S
O487   C545    1.275   .     S
O488   Zn500   1.949   .     S
O488   C600    1.275   1_455 S
O489   Zn500   1.977   .     S
O489   C491    1.288   .     A
O490   C492    1.288   .     A
O490   Zn499   1.977   .     S
C491   C525    1.401   .     S
C491   O595    1.275   1_455 S
C492   C526    1.401   .     S
C492   O542    1.275   .     S
O493   Zn499   1.931   .     S
O493   C551    1.290   .     S
O494   Zn500   1.931   .     S
O494   C606    1.288   1_455 S
O495   Zn500   1.880   .     S
O495   C497    1.302   .     A
O496   C498    1.305   .     A
O496   Zn499   1.880   .     S
C497   C501    1.461   .     S
C497   O601    1.290   1_455 S
C498   C502    1.465   .     S
C498   O548    1.288   .     S
Zn499  N530    2.016   .     S
Zn500  N529    2.016   .     S
C501   C507    1.390   .     A
C501   C505    1.416   .     A
C502   C508    1.391   .     A
C502   C560    1.418   .     S
C503   C511    1.400   .     A
C503   H523    1.085   .     S
C503   C505    1.398   .     A
C504   C512    1.398   .     A
C504   C560    1.397   .     S
C505   N644    1.436   1_455 S
C506   N533    1.432   .     S
C506   C610    1.418   1_455 S
C506   C612    1.397   1_455 S
C507   H522    1.077   .     S
C507   C509    1.394   .     A
C508   H521    1.082   .     S
C508   C510    1.394   .     A
C509   C513    1.420   .     A
C509   C511    1.417   .     A
C510   C512    1.409   .     A
C510   C514    1.409   .     A
C511   C31     1.390   1_556 S
C513   C516    1.435   .     A
C513   C28     1.421   1_556 S
C514   C515    1.423   .     A
C515   Br539   1.931   .     S
C515   C517    1.387   .     A
C516   Br540   1.927   .     S
C516   C518    1.393   .     A
C517   H519    1.084   .     S
C518   H520    1.085   .     S
C518   C26     1.388   1_556 S
H524   C126    1.085   1_456 S
C525   C796    1.339   1_455 S
C525   H689    1.088   .     S
C526   C903    1.339   1_545 S
C526   H852    1.088   1_545 S
H527   C849    1.088   1_545 S
H528   C688    1.088   .     S
N529   N530    1.286   .     D
N529   H531    1.029   .     S
N530   H532    1.029   .     S
N533   O534    1.301   .     A
N533   O535    1.301   .     A
N536   O538    1.300   .     A
N536   O537    1.301   .     A
N536   C559    1.436   .     S
O541   Zn553   1.949   .     S
O541   C599    1.275   .     S
O542   Zn554   1.949   .     S
O543   Zn554   1.977   .     S
O543   C545    1.288   .     A
O544   C546    1.288   .     A
O544   Zn553   1.977   .     S
C545   C579    1.401   .     S
C546   C580    1.401   .     S
C546   O596    1.275   .     S
O547   Zn553   1.931   .     S
O547   C605    1.290   .     S
O548   Zn554   1.931   .     S
O549   Zn554   1.880   .     S
O549   C551    1.302   .     A
O550   C552    1.305   .     A
O550   Zn553   1.880   .     S
C551   C555    1.461   .     S
C552   C556    1.465   .     S
C552   O602    1.288   .     S
Zn553  N584    2.016   .     S
Zn554  N583    2.016   .     S
C555   C561    1.390   .     A
C555   C559    1.416   .     A
C556   C562    1.391   .     A
C556   C614    1.418   .     S
C557   C565    1.400   .     A
C557   H577    1.085   .     S
C557   C559    1.398   .     A
C558   C566    1.398   .     A
C558   C614    1.397   .     S
C560   N587    1.432   .     S
C561   H576    1.077   .     S
C561   C563    1.394   .     A
C562   H575    1.082   .     S
C562   C564    1.394   .     A
C563   C567    1.420   .     A
C563   C565    1.417   .     A
C564   C566    1.409   .     A
C564   C568    1.409   .     A
C565   C85     1.390   1_556 S
C567   C570    1.435   .     A
C567   C82     1.421   1_556 S
C568   C569    1.423   .     A
C569   Br593   1.931   .     S
C569   C571    1.387   .     A
C570   Br594   1.927   .     S
C570   C572    1.393   .     A
C571   H573    1.084   .     S
C572   H574    1.085   .     S
C572   C80     1.388   1_556 S
H578   C18     1.085   1_556 S
C579   C688    1.339   .     S
C579   H743    1.088   .     S
C580   C957    1.339   1_545 S
C580   H906    1.088   1_545 S
H581   C903    1.088   1_545 S
H582   C742    1.088   .     S
N583   N584    1.286   .     D
N583   H585    1.029   .     S
N584   H586    1.029   .     S
N587   O588    1.301   .     A
N587   O589    1.301   .     A
N590   O592    1.300   .     A
N590   O591    1.301   .     A
N590   C613    1.436   .     S
O595   Zn607   1.949   .     S
O595   C491    1.275   1_655 S
O596   Zn608   1.949   .     S
O597   Zn608   1.977   .     S
O597   C599    1.288   .     A
O598   C600    1.288   .     A
O598   Zn607   1.977   .     S
C599   C633    1.401   .     S
C600   C634    1.401   .     S
C600   O488    1.275   1_655 S
O601   Zn607   1.931   .     S
O601   C497    1.290   1_655 S
O602   Zn608   1.931   .     S
O603   Zn608   1.880   .     S
O603   C605    1.302   .     A
O604   C606    1.305   .     A
O604   Zn607   1.880   .     S
C605   C609    1.461   .     S
C606   C610    1.465   .     S
C606   O494    1.288   1_655 S
Zn607  N638    2.016   .     S
Zn608  N637    2.016   .     S
C609   C615    1.390   .     A
C609   C613    1.416   .     A
C610   C616    1.391   .     A
C610   C506    1.418   1_655 S
C611   C619    1.400   .     A
C611   H631    1.085   .     S
C611   C613    1.398   .     A
C612   C620    1.398   .     A
C612   C506    1.397   1_655 S
C612   H38     1.085   1_655 S
C614   N641    1.432   .     S
C615   H630    1.077   .     S
C615   C617    1.394   .     A
C616   H629    1.082   .     S
C616   C618    1.394   .     A
C617   C621    1.420   .     A
C617   C619    1.417   .     A
C618   C620    1.409   .     A
C618   C622    1.409   .     A
C619   C139    1.390   1_556 S
C621   C624    1.435   .     A
C621   C136    1.421   1_556 S
C622   C623    1.423   .     A
C623   Br647   1.931   .     S
C623   C625    1.387   .     A
C624   Br648   1.927   .     S
C624   C626    1.393   .     A
C625   H627    1.084   .     S
C626   H628    1.085   .     S
C626   C134    1.388   1_556 S
H632   C72     1.085   1_556 S
C633   C742    1.339   .     S
C633   H797    1.088   .     S
C634   C849    1.339   1_645 S
C634   H960    1.088   1_545 S
H635   C957    1.088   1_545 S
H636   C796    1.088   .     S
N637   N638    1.286   .     D
N637   H639    1.029   .     S
N638   H640    1.029   .     S
N641   O642    1.301   .     A
N641   O643    1.301   .     A
N644   O646    1.300   .     A
N644   O645    1.301   .     A
N644   C505    1.436   1_655 S
O649   Zn661   1.949   .     S
O649   C707    1.275   .     S
O650   Zn662   1.949   .     S
O650   C762    1.275   1_455 S
O651   Zn662   1.977   .     S
O651   C653    1.288   .     A
O652   C654    1.288   .     A
O652   Zn661   1.977   .     S
C653   C687    1.401   .     S
C653   O757    1.275   1_455 S
C654   C688    1.401   .     S
C654   O704    1.275   .     S
O655   Zn661   1.931   .     S
O655   C713    1.290   .     S
O656   Zn662   1.931   .     S
O656   C768    1.288   1_455 S
O657   Zn662   1.880   .     S
O657   C659    1.302   .     A
O658   C660    1.305   .     A
O658   Zn661   1.880   .     S
C659   C663    1.461   .     S
C659   O763    1.290   1_455 S
C660   C664    1.465   .     S
C660   O710    1.288   .     S
Zn661  N692    2.016   .     S
Zn662  N691    2.016   .     S
C663   C669    1.390   .     A
C663   C667    1.416   .     A
C664   C670    1.391   .     A
C664   C722    1.418   .     S
C665   C673    1.400   .     A
C665   H685    1.085   .     S
C665   C667    1.398   .     A
C666   C674    1.398   .     A
C666   C722    1.397   .     S
C667   N806    1.436   1_455 S
C668   N695    1.432   .     S
C668   C772    1.418   1_455 S
C668   C774    1.397   1_455 S
C669   H684    1.077   .     S
C669   C671    1.394   .     A
C670   H683    1.082   .     S
C670   C672    1.394   .     A
C671   C675    1.420   .     A
C671   C673    1.417   .     A
C672   C674    1.409   .     A
C672   C676    1.409   .     A
C673   C193    1.390   1_556 S
C675   C678    1.435   .     A
C675   C190    1.421   1_556 S
C676   C677    1.423   .     A
C677   Br701   1.931   .     S
C677   C679    1.387   .     A
C678   Br702   1.927   .     S
C678   C680    1.393   .     A
C679   H681    1.084   .     S
C680   H682    1.085   .     S
C680   C188    1.388   1_556 S
H686   C288    1.085   1_456 S
C687   C958    1.339   1_455 S
C687   H851    1.088   .     S
H690   C850    1.088   .     S
N691   N692    1.286   .     D
N691   H693    1.029   .     S
N692   H694    1.029   .     S
N695   O696    1.301   .     A
N695   O697    1.301   .     A
N698   O700    1.300   .     A
N698   O699    1.301   .     A
N698   C721    1.436   .     S
O703   Zn715   1.949   .     S
O703   C761    1.275   .     S
O704   Zn716   1.949   .     S
O705   Zn716   1.977   .     S
O705   C707    1.288   .     A
O706   C708    1.288   .     A
O706   Zn715   1.977   .     S
C707   C741    1.401   .     S
C708   C742    1.401   .     S
C708   O758    1.275   .     S
O709   Zn715   1.931   .     S
O709   C767    1.290   .     S
O710   Zn716   1.931   .     S
O711   Zn716   1.880   .     S
O711   C713    1.302   .     A
O712   C714    1.305   .     A
O712   Zn715   1.880   .     S
C713   C717    1.461   .     S
C714   C718    1.465   .     S
C714   O764    1.288   .     S
Zn715  N746    2.016   .     S
Zn716  N745    2.016   .     S
C717   C723    1.390   .     A
C717   C721    1.416   .     A
C718   C724    1.391   .     A
C718   C776    1.418   .     S
C719   C727    1.400   .     A
C719   H739    1.085   .     S
C719   C721    1.398   .     A
C720   C728    1.398   .     A
C720   C776    1.397   .     S
C722   N749    1.432   .     S
C723   H738    1.077   .     S
C723   C725    1.394   .     A
C724   H737    1.082   .     S
C724   C726    1.394   .     A
C725   C729    1.420   .     A
C725   C727    1.417   .     A
C726   C728    1.409   .     A
C726   C730    1.409   .     A
C727   C247    1.390   1_556 S
C729   C732    1.435   .     A
C729   C244    1.421   1_556 S
C730   C731    1.423   .     A
C731   Br755   1.931   .     S
C731   C733    1.387   .     A
C732   Br756   1.927   .     S
C732   C734    1.393   .     A
C733   H735    1.084   .     S
C734   H736    1.085   .     S
C734   C242    1.388   1_556 S
H740   C180    1.085   1_556 S
C741   C850    1.339   .     S
C741   H905    1.088   .     S
H744   C904    1.088   .     S
N745   N746    1.286   .     D
N745   H747    1.029   .     S
N746   H748    1.029   .     S
N749   O750    1.301   .     A
N749   O751    1.301   .     A
N752   O754    1.300   .     A
N752   O753    1.301   .     A
N752   C775    1.436   .     S
O757   Zn769   1.949   .     S
O757   C653    1.275   1_655 S
O758   Zn770   1.949   .     S
O759   Zn770   1.977   .     S
O759   C761    1.288   .     A
O760   C762    1.288   .     A
O760   Zn769   1.977   .     S
C761   C795    1.401   .     S
C762   C796    1.401   .     S
C762   O650    1.275   1_655 S
O763   Zn769   1.931   .     S
O763   C659    1.290   1_655 S
O764   Zn770   1.931   .     S
O765   Zn770   1.880   .     S
O765   C767    1.302   .     A
O766   C768    1.305   .     A
O766   Zn769   1.880   .     S
C767   C771    1.461   .     S
C768   C772    1.465   .     S
C768   O656    1.288   1_655 S
Zn769  N800    2.016   .     S
Zn770  N799    2.016   .     S
C771   C777    1.390   .     A
C771   C775    1.416   .     A
C772   C778    1.391   .     A
C772   C668    1.418   1_655 S
C773   C781    1.400   .     A
C773   H793    1.085   .     S
C773   C775    1.398   .     A
C774   C782    1.398   .     A
C774   C668    1.397   1_655 S
C774   H200    1.085   1_655 S
C776   N803    1.432   .     S
C777   H792    1.077   .     S
C777   C779    1.394   .     A
C778   H791    1.082   .     S
C778   C780    1.394   .     A
C779   C783    1.420   .     A
C779   C781    1.417   .     A
C780   C782    1.409   .     A
C780   C784    1.409   .     A
C781   C301    1.390   1_556 S
C783   C786    1.435   .     A
C783   C298    1.421   1_556 S
C784   C785    1.423   .     A
C785   Br809   1.931   .     S
C785   C787    1.387   .     A
C786   Br810   1.927   .     S
C786   C788    1.393   .     A
C787   H789    1.084   .     S
C788   H790    1.085   .     S
C788   C296    1.388   1_556 S
H794   C234    1.085   1_556 S
C795   C904    1.339   .     S
C795   H959    1.088   .     S
C796   C525    1.339   1_655 S
H798   C958    1.088   .     S
N799   N800    1.286   .     D
N799   H801    1.029   .     S
N800   H802    1.029   .     S
N803   O804    1.301   .     A
N803   O805    1.301   .     A
N806   O808    1.300   .     A
N806   O807    1.301   .     A
N806   C667    1.436   1_655 S
O811   Zn823   1.949   .     S
O811   C869    1.275   .     S
O812   Zn824   1.949   .     S
O812   C924    1.275   1_455 S
O813   Zn824   1.977   .     S
O813   C815    1.288   .     A
O814   C816    1.288   .     A
O814   Zn823   1.977   .     S
C815   C849    1.401   .     S
C815   O919    1.275   1_455 S
C816   C850    1.401   .     S
C816   O866    1.275   .     S
O817   Zn823   1.931   .     S
O817   C875    1.290   .     S
O818   Zn824   1.931   .     S
O818   C930    1.288   1_455 S
O819   Zn824   1.880   .     S
O819   C821    1.302   .     A
O820   C822    1.305   .     A
O820   Zn823   1.880   .     S
C821   C825    1.461   .     S
C821   O925    1.290   1_455 S
C822   C826    1.465   .     S
C822   O872    1.288   .     S
Zn823  N854    2.016   .     S
Zn824  N853    2.016   .     S
C825   C831    1.390   .     A
C825   C829    1.416   .     A
C826   C832    1.391   .     A
C826   C884    1.418   .     S
C827   C835    1.400   .     A
C827   H847    1.085   .     S
C827   C829    1.398   .     A
C828   C836    1.398   .     A
C828   C884    1.397   .     S
C829   N968    1.436   1_455 S
C830   N857    1.432   .     S
C830   C934    1.418   1_455 S
C830   C936    1.397   1_455 S
C831   H846    1.077   .     S
C831   C833    1.394   .     A
C832   H845    1.082   .     S
C832   C834    1.394   .     A
C833   C837    1.420   .     A
C833   C835    1.417   .     A
C834   C836    1.409   .     A
C834   C838    1.409   .     A
C835   C355    1.390   1_556 S
C837   C840    1.435   .     A
C837   C352    1.421   1_556 S
C838   C839    1.423   .     A
C839   Br863   1.931   .     S
C839   C841    1.387   .     A
C840   Br864   1.927   .     S
C840   C842    1.393   .     A
C841   H843    1.084   .     S
C842   H844    1.085   .     S
C842   C350    1.388   1_556 S
H848   C450    1.085   1_456 S
C849   C634    1.339   1_465 S
C849   H527    1.088   1_565 S
H852   C526    1.088   1_565 S
N853   N854    1.286   .     D
N853   H855    1.029   .     S
N854   H856    1.029   .     S
N857   O858    1.301   .     A
N857   O859    1.301   .     A
N860   O862    1.300   .     A
N860   O861    1.301   .     A
N860   C883    1.436   .     S
O865   Zn877   1.949   .     S
O865   C923    1.275   .     S
O866   Zn878   1.949   .     S
O867   Zn878   1.977   .     S
O867   C869    1.288   .     A
O868   C870    1.288   .     A
O868   Zn877   1.977   .     S
C869   C903    1.401   .     S
C870   C904    1.401   .     S
C870   O920    1.275   .     S
O871   Zn877   1.931   .     S
O871   C929    1.290   .     S
O872   Zn878   1.931   .     S
O873   Zn878   1.880   .     S
O873   C875    1.302   .     A
O874   C876    1.305   .     A
O874   Zn877   1.880   .     S
C875   C879    1.461   .     S
C876   C880    1.465   .     S
C876   O926    1.288   .     S
Zn877  N908    2.016   .     S
Zn878  N907    2.016   .     S
C879   C885    1.390   .     A
C879   C883    1.416   .     A
C880   C886    1.391   .     A
C880   C938    1.418   .     S
C881   C889    1.400   .     A
C881   H901    1.085   .     S
C881   C883    1.398   .     A
C882   C890    1.398   .     A
C882   C938    1.397   .     S
C884   N911    1.432   .     S
C885   H900    1.077   .     S
C885   C887    1.394   .     A
C886   H899    1.082   .     S
C886   C888    1.394   .     A
C887   C891    1.420   .     A
C887   C889    1.417   .     A
C888   C890    1.409   .     A
C888   C892    1.409   .     A
C889   C409    1.390   1_556 S
C891   C894    1.435   .     A
C891   C406    1.421   1_556 S
C892   C893    1.423   .     A
C893   Br917   1.931   .     S
C893   C895    1.387   .     A
C894   Br918   1.927   .     S
C894   C896    1.393   .     A
C895   H897    1.084   .     S
C896   H898    1.085   .     S
C896   C404    1.388   1_556 S
H902   C342    1.085   1_556 S
C903   C526    1.339   1_565 S
C903   H581    1.088   1_565 S
H906   C580    1.088   1_565 S
N907   N908    1.286   .     D
N907   H909    1.029   .     S
N908   H910    1.029   .     S
N911   O912    1.301   .     A
N911   O913    1.301   .     A
N914   O916    1.300   .     A
N914   O915    1.301   .     A
N914   C937    1.436   .     S
O919   Zn931   1.949   .     S
O919   C815    1.275   1_655 S
O920   Zn932   1.949   .     S
O921   Zn932   1.977   .     S
O921   C923    1.288   .     A
O922   C924    1.288   .     A
O922   Zn931   1.977   .     S
C923   C957    1.401   .     S
C924   C958    1.401   .     S
C924   O812    1.275   1_655 S
O925   Zn931   1.931   .     S
O925   C821    1.290   1_655 S
O926   Zn932   1.931   .     S
O927   Zn932   1.880   .     S
O927   C929    1.302   .     A
O928   C930    1.305   .     A
O928   Zn931   1.880   .     S
C929   C933    1.461   .     S
C930   C934    1.465   .     S
C930   O818    1.288   1_655 S
Zn931  N962    2.016   .     S
Zn932  N961    2.016   .     S
C933   C939    1.390   .     A
C933   C937    1.416   .     A
C934   C940    1.391   .     A
C934   C830    1.418   1_655 S
C935   C943    1.400   .     A
C935   H955    1.085   .     S
C935   C937    1.398   .     A
C936   C944    1.398   .     A
C936   C830    1.397   1_655 S
C936   H362    1.085   1_655 S
C938   N965    1.432   .     S
C939   H954    1.077   .     S
C939   C941    1.394   .     A
C940   H953    1.082   .     S
C940   C942    1.394   .     A
C941   C945    1.420   .     A
C941   C943    1.417   .     A
C942   C944    1.409   .     A
C942   C946    1.409   .     A
C943   C463    1.390   1_556 S
C945   C948    1.435   .     A
C945   C460    1.421   1_556 S
C946   C947    1.423   .     A
C947   Br971   1.931   .     S
C947   C949    1.387   .     A
C948   Br972   1.927   .     S
C948   C950    1.393   .     A
C949   H951    1.084   .     S
C950   H952    1.085   .     S
C950   C458    1.388   1_556 S
H956   C396    1.085   1_556 S
C957   C580    1.339   1_565 S
C957   H635    1.088   1_565 S
C958   C687    1.339   1_655 S
H960   C634    1.088   1_565 S
N961   N962    1.286   .     D
N961   H963    1.029   .     S
N962   H964    1.029   .     S
N965   O966    1.301   .     A
N965   O967    1.301   .     A
N968   O970    1.300   .     A
N968   O969    1.301   .     A
N968   C829    1.436   1_655 S
