data_str_m3_o1_o5_pcu_sym.67
_audit_creation_date              2020-01-03
_audit_creation_method            'Materials Studio'
_symmetry_space_group_name_H-M    'P1'
_symmetry_Int_Tables_number       1
_symmetry_cell_setting            triclinic
loop_
_symmetry_equiv_pos_as_xyz
  x,y,z
_cell_length_a                    32.1938
_cell_length_b                    29.8773
_cell_length_c                    26.5850
_cell_angle_alpha                 89.9750
_cell_angle_beta                  91.7633
_cell_angle_gamma                 88.1377
loop_
_atom_site_label
_atom_site_type_symbol
_atom_site_fract_x
_atom_site_fract_y
_atom_site_fract_z
_atom_site_U_iso_or_equiv
_atom_site_adp_type
_atom_site_occupancy
C1     C     0.08678   0.16752   0.16893   0.00000  Uiso   1.00
C2     C     0.01906   0.20698   0.15428   0.00000  Uiso   1.00
C3     C     0.29095   0.16476   0.16310   0.00000  Uiso   1.00
C4     C     0.04248   0.16948   0.17310   0.00000  Uiso   1.00
C5     C     0.17674   0.02344   0.20968   0.00000  Uiso   1.00
C6     C     0.15645   0.30990   0.12378   0.00000  Uiso   1.00
C7     C     0.15563   0.02432   0.12409   0.00000  Uiso   1.00
C8     C     0.17607   0.30903   0.20986   0.00000  Uiso   1.00
C9     C     0.05182   0.10640   0.26549   0.00000  Uiso   1.00
C10    C     0.28293   0.27347   0.12414   0.00000  Uiso   1.00
C11    C     0.29894   0.05803   0.15876   0.00000  Uiso   1.00
C12    C     0.24656   0.16593   0.16471   0.00000  Uiso   1.00
C13    C     0.04110   0.27325   0.18504   0.00000  Uiso   1.00
C14    C     0.22508   0.05276   0.26417   0.00000  Uiso   1.00
C15    C     0.10657   0.28209   0.07003   0.00000  Uiso   1.00
C16    C     0.10188   0.05890   0.07904   0.00000  Uiso   1.00
C17    C     0.22194   0.27774   0.26901   0.00000  Uiso   1.00
C18    C     0.16655   0.16668   0.07303   0.00000  Uiso   1.00
C19    C     0.16665   0.16666   0.26030   0.00000  Uiso   1.00
C20    C     0.16650   0.16667   0.02185   0.00000  Uiso   1.00
C21    C     0.16653   0.16664   0.31147   0.00000  Uiso   1.00
C22    C     0.02309   0.13162   0.19140   0.00000  Uiso   1.00
C23    C     0.31006   0.20267   0.14459   0.00000  Uiso   1.00
C24    C     0.31412   0.12822   0.18390   0.00000  Uiso   1.00
H25    H     0.07024   0.13703   0.27079   0.00000  Uiso   1.00
H26    H     0.05554   0.30510   0.17496   0.00000  Uiso   1.00
H27    H     0.06109   0.25694   0.21504   0.00000  Uiso   1.00
H28    H     0.01029   0.28190   0.20070   0.00000  Uiso   1.00
H29    H     0.23247   0.08695   0.25230   0.00000  Uiso   1.00
H30    H     0.24655   0.02838   0.24575   0.00000  Uiso   1.00
H31    H     0.23171   0.05075   0.30532   0.00000  Uiso   1.00
H32    H     0.08580   0.30340   0.09343   0.00000  Uiso   1.00
H33    H     0.09929   0.24660   0.07634   0.00000  Uiso   1.00
H34    H     0.09870   0.28982   0.02998   0.00000  Uiso   1.00
H35    H     0.08573   0.05337   0.11501   0.00000  Uiso   1.00
H36    H     0.02170   0.11020   0.28479   0.00000  Uiso   1.00
H37    H     0.08600   0.03992   0.04866   0.00000  Uiso   1.00
H38    H     0.09757   0.09481   0.06905   0.00000  Uiso   1.00
H39    H     0.24368   0.27991   0.23750   0.00000  Uiso   1.00
H40    H     0.22549   0.24337   0.28461   0.00000  Uiso   1.00
H41    H     0.23149   0.30054   0.29981   0.00000  Uiso   1.00
H42    H     0.06980   0.07818   0.28369   0.00000  Uiso   1.00
H43    H     0.27820   0.27638   0.16516   0.00000  Uiso   1.00
H44    H     0.25437   0.28764   0.10494   0.00000  Uiso   1.00
H45    H     0.30908   0.29402   0.11253   0.00000  Uiso   1.00
H46    H     0.33176   0.04634   0.15426   0.00000  Uiso   1.00
H47    H     0.28575   0.07177   0.12249   0.00000  Uiso   1.00
H48    H     0.28080   0.02846   0.16809   0.00000  Uiso   1.00
N49    N     0.16667   0.28573   0.16667   0.00000  Uiso   1.00
N50    N     0.16667   0.04760   0.16667   0.00000  Uiso   1.00
O51    O     0.10559   0.20487   0.16666   0.00000  Uiso   1.00
O52    O     0.28893   0.22884   0.10812   0.00000  Uiso   1.00
O53    O     0.29554   0.08939   0.19827   0.00000  Uiso   1.00
O54    O     0.03764   0.24626   0.14138   0.00000  Uiso   1.00
O55    O     0.18241   0.04515   0.25507   0.00000  Uiso   1.00
O56    O     0.14958   0.28814   0.07864   0.00000  Uiso   1.00
O57    O     0.14489   0.04708   0.08013   0.00000  Uiso   1.00
O58    O     0.17966   0.28662   0.25537   0.00000  Uiso   1.00
O59    O     0.22774   0.12846   0.16667   0.00000  Uiso   1.00
O60    O     0.22774   0.20487   0.16667   0.00000  Uiso   1.00
O61    O     0.10559   0.12846   0.16666   0.00000  Uiso   1.00
O62    O     0.16667   0.20488   0.09511   0.00000  Uiso   1.00
O63    O     0.16666   0.12845   0.23822   0.00000  Uiso   1.00
O64    O     0.16666   0.20488   0.23822   0.00000  Uiso   1.00
O65    O     0.16667   0.12845   0.09511   0.00000  Uiso   1.00
O66    O     0.04549   0.09631   0.21407   0.00000  Uiso   1.00
Zn67   Zn    0.16667   0.21771   0.16667   0.00000  Uiso   1.00
Zn68   Zn    0.16667   0.11563   0.16667   0.00000  Uiso   1.00
C69    C     0.42011   0.16752   0.16893   0.00000  Uiso   1.00
C70    C     0.35239   0.20698   0.15428   0.00000  Uiso   1.00
C71    C     0.62429   0.16476   0.16310   0.00000  Uiso   1.00
C72    C     0.37581   0.16948   0.17310   0.00000  Uiso   1.00
C73    C     0.51007   0.02344   0.20968   0.00000  Uiso   1.00
C74    C     0.48978   0.30990   0.12378   0.00000  Uiso   1.00
C75    C     0.48896   0.02432   0.12409   0.00000  Uiso   1.00
C76    C     0.50940   0.30903   0.20986   0.00000  Uiso   1.00
C77    C     0.38515   0.10640   0.26549   0.00000  Uiso   1.00
C78    C     0.61627   0.27347   0.12414   0.00000  Uiso   1.00
C79    C     0.63227   0.05803   0.15876   0.00000  Uiso   1.00
C80    C     0.57990   0.16593   0.16471   0.00000  Uiso   1.00
C81    C     0.37443   0.27325   0.18504   0.00000  Uiso   1.00
C82    C     0.55841   0.05276   0.26417   0.00000  Uiso   1.00
C83    C     0.43990   0.28209   0.07003   0.00000  Uiso   1.00
C84    C     0.43522   0.05890   0.07904   0.00000  Uiso   1.00
C85    C     0.55527   0.27774   0.26901   0.00000  Uiso   1.00
C86    C     0.49988   0.16668   0.07303   0.00000  Uiso   1.00
C87    C     0.49998   0.16666   0.26030   0.00000  Uiso   1.00
C88    C     0.49983   0.16667   0.02185   0.00000  Uiso   1.00
C89    C     0.49986   0.16664   0.31147   0.00000  Uiso   1.00
C90    C     0.35642   0.13162   0.19140   0.00000  Uiso   1.00
C91    C     0.64340   0.20267   0.14459   0.00000  Uiso   1.00
C92    C     0.64745   0.12822   0.18390   0.00000  Uiso   1.00
H93    H     0.40357   0.13703   0.27079   0.00000  Uiso   1.00
H94    H     0.38887   0.30510   0.17496   0.00000  Uiso   1.00
H95    H     0.39443   0.25694   0.21504   0.00000  Uiso   1.00
H96    H     0.34363   0.28190   0.20070   0.00000  Uiso   1.00
H97    H     0.56580   0.08695   0.25230   0.00000  Uiso   1.00
H98    H     0.57989   0.02838   0.24575   0.00000  Uiso   1.00
H99    H     0.56504   0.05075   0.30532   0.00000  Uiso   1.00
H100   H     0.41913   0.30340   0.09343   0.00000  Uiso   1.00
H101   H     0.43262   0.24660   0.07634   0.00000  Uiso   1.00
H102   H     0.43203   0.28982   0.02998   0.00000  Uiso   1.00
H103   H     0.41907   0.05337   0.11501   0.00000  Uiso   1.00
H104   H     0.35504   0.11020   0.28479   0.00000  Uiso   1.00
H105   H     0.41933   0.03992   0.04866   0.00000  Uiso   1.00
H106   H     0.43090   0.09481   0.06905   0.00000  Uiso   1.00
H107   H     0.57701   0.27991   0.23750   0.00000  Uiso   1.00
H108   H     0.55882   0.24337   0.28461   0.00000  Uiso   1.00
H109   H     0.56482   0.30054   0.29981   0.00000  Uiso   1.00
H110   H     0.40313   0.07818   0.28369   0.00000  Uiso   1.00
H111   H     0.61153   0.27638   0.16516   0.00000  Uiso   1.00
H112   H     0.58770   0.28764   0.10494   0.00000  Uiso   1.00
H113   H     0.64241   0.29402   0.11253   0.00000  Uiso   1.00
H114   H     0.66510   0.04634   0.15426   0.00000  Uiso   1.00
H115   H     0.61908   0.07177   0.12249   0.00000  Uiso   1.00
H116   H     0.61413   0.02846   0.16809   0.00000  Uiso   1.00
N117   N     0.50000   0.28573   0.16667   0.00000  Uiso   1.00
N118   N     0.50000   0.04760   0.16667   0.00000  Uiso   1.00
O119   O     0.43892   0.20487   0.16666   0.00000  Uiso   1.00
O120   O     0.62227   0.22884   0.10812   0.00000  Uiso   1.00
O121   O     0.62887   0.08939   0.19827   0.00000  Uiso   1.00
O122   O     0.37097   0.24626   0.14138   0.00000  Uiso   1.00
O123   O     0.51574   0.04515   0.25507   0.00000  Uiso   1.00
O124   O     0.48291   0.28814   0.07864   0.00000  Uiso   1.00
O125   O     0.47822   0.04708   0.08013   0.00000  Uiso   1.00
O126   O     0.51300   0.28662   0.25537   0.00000  Uiso   1.00
O127   O     0.56108   0.12846   0.16667   0.00000  Uiso   1.00
O128   O     0.56108   0.20487   0.16667   0.00000  Uiso   1.00
O129   O     0.43892   0.12846   0.16666   0.00000  Uiso   1.00
O130   O     0.50000   0.20488   0.09511   0.00000  Uiso   1.00
O131   O     0.50000   0.12845   0.23822   0.00000  Uiso   1.00
O132   O     0.50000   0.20488   0.23822   0.00000  Uiso   1.00
O133   O     0.50000   0.12845   0.09511   0.00000  Uiso   1.00
O134   O     0.37882   0.09631   0.21407   0.00000  Uiso   1.00
Zn135  Zn    0.50000   0.21771   0.16667   0.00000  Uiso   1.00
Zn136  Zn    0.50000   0.11563   0.16667   0.00000  Uiso   1.00
C137   C     0.75344   0.16752   0.16893   0.00000  Uiso   1.00
C138   C     0.68572   0.20698   0.15428   0.00000  Uiso   1.00
C139   C     0.95762   0.16476   0.16310   0.00000  Uiso   1.00
C140   C     0.70914   0.16948   0.17310   0.00000  Uiso   1.00
C141   C     0.84340   0.02344   0.20968   0.00000  Uiso   1.00
C142   C     0.82311   0.30990   0.12378   0.00000  Uiso   1.00
C143   C     0.82229   0.02432   0.12409   0.00000  Uiso   1.00
C144   C     0.84274   0.30903   0.20986   0.00000  Uiso   1.00
C145   C     0.71848   0.10640   0.26549   0.00000  Uiso   1.00
C146   C     0.94960   0.27347   0.12414   0.00000  Uiso   1.00
C147   C     0.96560   0.05803   0.15876   0.00000  Uiso   1.00
C148   C     0.91323   0.16593   0.16471   0.00000  Uiso   1.00
C149   C     0.70776   0.27325   0.18504   0.00000  Uiso   1.00
C150   C     0.89175   0.05276   0.26417   0.00000  Uiso   1.00
C151   C     0.77324   0.28209   0.07003   0.00000  Uiso   1.00
C152   C     0.76855   0.05890   0.07904   0.00000  Uiso   1.00
C153   C     0.88860   0.27774   0.26901   0.00000  Uiso   1.00
C154   C     0.83321   0.16668   0.07303   0.00000  Uiso   1.00
C155   C     0.83331   0.16666   0.26030   0.00000  Uiso   1.00
C156   C     0.83317   0.16667   0.02185   0.00000  Uiso   1.00
C157   C     0.83320   0.16664   0.31147   0.00000  Uiso   1.00
C158   C     0.68975   0.13162   0.19140   0.00000  Uiso   1.00
C159   C     0.97673   0.20267   0.14459   0.00000  Uiso   1.00
C160   C     0.98078   0.12822   0.18390   0.00000  Uiso   1.00
H161   H     0.73691   0.13703   0.27079   0.00000  Uiso   1.00
H162   H     0.72221   0.30510   0.17496   0.00000  Uiso   1.00
H163   H     0.72776   0.25694   0.21504   0.00000  Uiso   1.00
H164   H     0.67696   0.28190   0.20070   0.00000  Uiso   1.00
H165   H     0.89914   0.08695   0.25230   0.00000  Uiso   1.00
H166   H     0.91322   0.02838   0.24575   0.00000  Uiso   1.00
H167   H     0.89837   0.05075   0.30532   0.00000  Uiso   1.00
H168   H     0.75246   0.30340   0.09343   0.00000  Uiso   1.00
H169   H     0.76596   0.24660   0.07634   0.00000  Uiso   1.00
H170   H     0.76536   0.28982   0.02998   0.00000  Uiso   1.00
H171   H     0.75240   0.05337   0.11501   0.00000  Uiso   1.00
H172   H     0.68837   0.11020   0.28479   0.00000  Uiso   1.00
H173   H     0.75267   0.03992   0.04866   0.00000  Uiso   1.00
H174   H     0.76423   0.09481   0.06905   0.00000  Uiso   1.00
H175   H     0.91034   0.27991   0.23750   0.00000  Uiso   1.00
H176   H     0.89216   0.24337   0.28461   0.00000  Uiso   1.00
H177   H     0.89816   0.30054   0.29981   0.00000  Uiso   1.00
H178   H     0.73647   0.07818   0.28369   0.00000  Uiso   1.00
H179   H     0.94486   0.27638   0.16516   0.00000  Uiso   1.00
H180   H     0.92103   0.28764   0.10494   0.00000  Uiso   1.00
H181   H     0.97574   0.29402   0.11253   0.00000  Uiso   1.00
H182   H     0.99843   0.04634   0.15426   0.00000  Uiso   1.00
H183   H     0.95242   0.07177   0.12249   0.00000  Uiso   1.00
H184   H     0.94746   0.02846   0.16809   0.00000  Uiso   1.00
N185   N     0.83333   0.28573   0.16667   0.00000  Uiso   1.00
N186   N     0.83333   0.04760   0.16667   0.00000  Uiso   1.00
O187   O     0.77226   0.20487   0.16666   0.00000  Uiso   1.00
O188   O     0.95560   0.22884   0.10812   0.00000  Uiso   1.00
O189   O     0.96221   0.08939   0.19827   0.00000  Uiso   1.00
O190   O     0.70431   0.24626   0.14138   0.00000  Uiso   1.00
O191   O     0.84908   0.04515   0.25507   0.00000  Uiso   1.00
O192   O     0.81625   0.28814   0.07864   0.00000  Uiso   1.00
O193   O     0.81155   0.04708   0.08013   0.00000  Uiso   1.00
O194   O     0.84633   0.28662   0.25537   0.00000  Uiso   1.00
O195   O     0.89441   0.12846   0.16667   0.00000  Uiso   1.00
O196   O     0.89441   0.20487   0.16667   0.00000  Uiso   1.00
O197   O     0.77226   0.12846   0.16666   0.00000  Uiso   1.00
O198   O     0.83334   0.20488   0.09511   0.00000  Uiso   1.00
O199   O     0.83333   0.12845   0.23822   0.00000  Uiso   1.00
O200   O     0.83333   0.20488   0.23822   0.00000  Uiso   1.00
O201   O     0.83334   0.12845   0.09511   0.00000  Uiso   1.00
O202   O     0.71215   0.09631   0.21407   0.00000  Uiso   1.00
Zn203  Zn    0.83333   0.21771   0.16667   0.00000  Uiso   1.00
Zn204  Zn    0.83333   0.11563   0.16667   0.00000  Uiso   1.00
C205   C     0.08678   0.50085   0.16893   0.00000  Uiso   1.00
C206   C     0.01906   0.54031   0.15428   0.00000  Uiso   1.00
C207   C     0.29095   0.49809   0.16310   0.00000  Uiso   1.00
C208   C     0.04248   0.50281   0.17310   0.00000  Uiso   1.00
C209   C     0.17674   0.35677   0.20968   0.00000  Uiso   1.00
C210   C     0.15645   0.64324   0.12378   0.00000  Uiso   1.00
C211   C     0.15563   0.35765   0.12409   0.00000  Uiso   1.00
C212   C     0.17607   0.64236   0.20986   0.00000  Uiso   1.00
C213   C     0.05182   0.43973   0.26549   0.00000  Uiso   1.00
C214   C     0.28293   0.60681   0.12414   0.00000  Uiso   1.00
C215   C     0.29894   0.39137   0.15876   0.00000  Uiso   1.00
C216   C     0.24656   0.49926   0.16471   0.00000  Uiso   1.00
C217   C     0.04110   0.60659   0.18504   0.00000  Uiso   1.00
C218   C     0.22508   0.38609   0.26417   0.00000  Uiso   1.00
C219   C     0.10657   0.61543   0.07003   0.00000  Uiso   1.00
C220   C     0.10188   0.39223   0.07904   0.00000  Uiso   1.00
C221   C     0.22194   0.61107   0.26901   0.00000  Uiso   1.00
C222   C     0.16655   0.50001   0.07303   0.00000  Uiso   1.00
C223   C     0.16665   0.49999   0.26030   0.00000  Uiso   1.00
C224   C     0.16650   0.50000   0.02185   0.00000  Uiso   1.00
C225   C     0.16653   0.49997   0.31147   0.00000  Uiso   1.00
C226   C     0.02309   0.46495   0.19140   0.00000  Uiso   1.00
C227   C     0.31006   0.53600   0.14459   0.00000  Uiso   1.00
C228   C     0.31412   0.46155   0.18390   0.00000  Uiso   1.00
H229   H     0.07024   0.47036   0.27079   0.00000  Uiso   1.00
H230   H     0.05554   0.63844   0.17496   0.00000  Uiso   1.00
H231   H     0.06109   0.59027   0.21504   0.00000  Uiso   1.00
H232   H     0.01029   0.61524   0.20070   0.00000  Uiso   1.00
H233   H     0.23247   0.42029   0.25230   0.00000  Uiso   1.00
H234   H     0.24655   0.36171   0.24575   0.00000  Uiso   1.00
H235   H     0.23171   0.38408   0.30532   0.00000  Uiso   1.00
H236   H     0.08580   0.63673   0.09343   0.00000  Uiso   1.00
H237   H     0.09929   0.57993   0.07634   0.00000  Uiso   1.00
H238   H     0.09870   0.62315   0.02998   0.00000  Uiso   1.00
H239   H     0.08573   0.38670   0.11501   0.00000  Uiso   1.00
H240   H     0.02170   0.44353   0.28479   0.00000  Uiso   1.00
H241   H     0.08600   0.37326   0.04866   0.00000  Uiso   1.00
H242   H     0.09757   0.42815   0.06905   0.00000  Uiso   1.00
H243   H     0.24368   0.61324   0.23750   0.00000  Uiso   1.00
H244   H     0.22549   0.57671   0.28461   0.00000  Uiso   1.00
H245   H     0.23149   0.63387   0.29981   0.00000  Uiso   1.00
H246   H     0.06980   0.41152   0.28369   0.00000  Uiso   1.00
H247   H     0.27820   0.60971   0.16516   0.00000  Uiso   1.00
H248   H     0.25437   0.62098   0.10494   0.00000  Uiso   1.00
H249   H     0.30908   0.62736   0.11253   0.00000  Uiso   1.00
H250   H     0.33176   0.37967   0.15426   0.00000  Uiso   1.00
H251   H     0.28575   0.40510   0.12249   0.00000  Uiso   1.00
H252   H     0.28080   0.36180   0.16809   0.00000  Uiso   1.00
N253   N     0.16667   0.61907   0.16667   0.00000  Uiso   1.00
N254   N     0.16667   0.38093   0.16667   0.00000  Uiso   1.00
O255   O     0.10559   0.53821   0.16666   0.00000  Uiso   1.00
O256   O     0.28893   0.56218   0.10812   0.00000  Uiso   1.00
O257   O     0.29554   0.42273   0.19827   0.00000  Uiso   1.00
O258   O     0.03764   0.57959   0.14138   0.00000  Uiso   1.00
O259   O     0.18241   0.37849   0.25507   0.00000  Uiso   1.00
O260   O     0.14958   0.62147   0.07864   0.00000  Uiso   1.00
O261   O     0.14489   0.38041   0.08013   0.00000  Uiso   1.00
O262   O     0.17966   0.61995   0.25537   0.00000  Uiso   1.00
O263   O     0.22774   0.46179   0.16667   0.00000  Uiso   1.00
O264   O     0.22774   0.53821   0.16667   0.00000  Uiso   1.00
O265   O     0.10559   0.46179   0.16666   0.00000  Uiso   1.00
O266   O     0.16667   0.53821   0.09511   0.00000  Uiso   1.00
O267   O     0.16666   0.46179   0.23822   0.00000  Uiso   1.00
O268   O     0.16666   0.53821   0.23822   0.00000  Uiso   1.00
O269   O     0.16667   0.46179   0.09511   0.00000  Uiso   1.00
O270   O     0.04549   0.42965   0.21407   0.00000  Uiso   1.00
Zn271  Zn    0.16667   0.55104   0.16667   0.00000  Uiso   1.00
Zn272  Zn    0.16667   0.44896   0.16667   0.00000  Uiso   1.00
C273   C     0.42011   0.50085   0.16893   0.00000  Uiso   1.00
C274   C     0.35239   0.54031   0.15428   0.00000  Uiso   1.00
C275   C     0.62429   0.49809   0.16310   0.00000  Uiso   1.00
C276   C     0.37581   0.50281   0.17310   0.00000  Uiso   1.00
C277   C     0.51007   0.35677   0.20968   0.00000  Uiso   1.00
C278   C     0.48978   0.64324   0.12378   0.00000  Uiso   1.00
C279   C     0.48896   0.35765   0.12409   0.00000  Uiso   1.00
C280   C     0.50940   0.64236   0.20986   0.00000  Uiso   1.00
C281   C     0.38515   0.43973   0.26549   0.00000  Uiso   1.00
C282   C     0.61627   0.60681   0.12414   0.00000  Uiso   1.00
C283   C     0.63227   0.39137   0.15876   0.00000  Uiso   1.00
C284   C     0.57990   0.49926   0.16471   0.00000  Uiso   1.00
C285   C     0.37443   0.60659   0.18504   0.00000  Uiso   1.00
C286   C     0.55841   0.38609   0.26417   0.00000  Uiso   1.00
C287   C     0.43990   0.61543   0.07003   0.00000  Uiso   1.00
C288   C     0.43522   0.39223   0.07904   0.00000  Uiso   1.00
C289   C     0.55527   0.61107   0.26901   0.00000  Uiso   1.00
C290   C     0.49988   0.50001   0.07303   0.00000  Uiso   1.00
C291   C     0.49998   0.49999   0.26030   0.00000  Uiso   1.00
C292   C     0.49983   0.50000   0.02185   0.00000  Uiso   1.00
C293   C     0.49986   0.49997   0.31147   0.00000  Uiso   1.00
C294   C     0.35642   0.46495   0.19140   0.00000  Uiso   1.00
C295   C     0.64340   0.53600   0.14459   0.00000  Uiso   1.00
C296   C     0.64745   0.46155   0.18390   0.00000  Uiso   1.00
H297   H     0.40357   0.47036   0.27079   0.00000  Uiso   1.00
H298   H     0.38887   0.63844   0.17496   0.00000  Uiso   1.00
H299   H     0.39443   0.59027   0.21504   0.00000  Uiso   1.00
H300   H     0.34363   0.61524   0.20070   0.00000  Uiso   1.00
H301   H     0.56580   0.42029   0.25230   0.00000  Uiso   1.00
H302   H     0.57989   0.36171   0.24575   0.00000  Uiso   1.00
H303   H     0.56504   0.38408   0.30532   0.00000  Uiso   1.00
H304   H     0.41913   0.63673   0.09343   0.00000  Uiso   1.00
H305   H     0.43262   0.57993   0.07634   0.00000  Uiso   1.00
H306   H     0.43203   0.62315   0.02998   0.00000  Uiso   1.00
H307   H     0.41907   0.38670   0.11501   0.00000  Uiso   1.00
H308   H     0.35504   0.44353   0.28479   0.00000  Uiso   1.00
H309   H     0.41933   0.37326   0.04866   0.00000  Uiso   1.00
H310   H     0.43090   0.42815   0.06905   0.00000  Uiso   1.00
H311   H     0.57701   0.61324   0.23750   0.00000  Uiso   1.00
H312   H     0.55882   0.57671   0.28461   0.00000  Uiso   1.00
H313   H     0.56482   0.63387   0.29981   0.00000  Uiso   1.00
H314   H     0.40313   0.41152   0.28369   0.00000  Uiso   1.00
H315   H     0.61153   0.60971   0.16516   0.00000  Uiso   1.00
H316   H     0.58770   0.62098   0.10494   0.00000  Uiso   1.00
H317   H     0.64241   0.62736   0.11253   0.00000  Uiso   1.00
H318   H     0.66510   0.37967   0.15426   0.00000  Uiso   1.00
H319   H     0.61908   0.40510   0.12249   0.00000  Uiso   1.00
H320   H     0.61413   0.36180   0.16809   0.00000  Uiso   1.00
N321   N     0.50000   0.61907   0.16667   0.00000  Uiso   1.00
N322   N     0.50000   0.38093   0.16667   0.00000  Uiso   1.00
O323   O     0.43892   0.53821   0.16666   0.00000  Uiso   1.00
O324   O     0.62227   0.56218   0.10812   0.00000  Uiso   1.00
O325   O     0.62887   0.42273   0.19827   0.00000  Uiso   1.00
O326   O     0.37097   0.57959   0.14138   0.00000  Uiso   1.00
O327   O     0.51574   0.37849   0.25507   0.00000  Uiso   1.00
O328   O     0.48291   0.62147   0.07864   0.00000  Uiso   1.00
O329   O     0.47822   0.38041   0.08013   0.00000  Uiso   1.00
O330   O     0.51300   0.61995   0.25537   0.00000  Uiso   1.00
O331   O     0.56108   0.46179   0.16667   0.00000  Uiso   1.00
O332   O     0.56108   0.53821   0.16667   0.00000  Uiso   1.00
O333   O     0.43892   0.46179   0.16666   0.00000  Uiso   1.00
O334   O     0.50000   0.53821   0.09511   0.00000  Uiso   1.00
O335   O     0.50000   0.46179   0.23822   0.00000  Uiso   1.00
O336   O     0.50000   0.53821   0.23822   0.00000  Uiso   1.00
O337   O     0.50000   0.46179   0.09511   0.00000  Uiso   1.00
O338   O     0.37882   0.42965   0.21407   0.00000  Uiso   1.00
Zn339  Zn    0.50000   0.55104   0.16667   0.00000  Uiso   1.00
Zn340  Zn    0.50000   0.44896   0.16667   0.00000  Uiso   1.00
C341   C     0.75344   0.50085   0.16893   0.00000  Uiso   1.00
C342   C     0.68572   0.54031   0.15428   0.00000  Uiso   1.00
C343   C     0.95762   0.49809   0.16310   0.00000  Uiso   1.00
C344   C     0.70914   0.50281   0.17310   0.00000  Uiso   1.00
C345   C     0.84340   0.35677   0.20968   0.00000  Uiso   1.00
C346   C     0.82311   0.64324   0.12378   0.00000  Uiso   1.00
C347   C     0.82229   0.35765   0.12409   0.00000  Uiso   1.00
C348   C     0.84274   0.64236   0.20986   0.00000  Uiso   1.00
C349   C     0.71848   0.43973   0.26549   0.00000  Uiso   1.00
C350   C     0.94960   0.60681   0.12414   0.00000  Uiso   1.00
C351   C     0.96560   0.39137   0.15876   0.00000  Uiso   1.00
C352   C     0.91323   0.49926   0.16471   0.00000  Uiso   1.00
C353   C     0.70776   0.60659   0.18504   0.00000  Uiso   1.00
C354   C     0.89175   0.38609   0.26417   0.00000  Uiso   1.00
C355   C     0.77324   0.61543   0.07003   0.00000  Uiso   1.00
C356   C     0.76855   0.39223   0.07904   0.00000  Uiso   1.00
C357   C     0.88860   0.61107   0.26901   0.00000  Uiso   1.00
C358   C     0.83321   0.50001   0.07303   0.00000  Uiso   1.00
C359   C     0.83331   0.49999   0.26030   0.00000  Uiso   1.00
C360   C     0.83317   0.50000   0.02185   0.00000  Uiso   1.00
C361   C     0.83320   0.49997   0.31147   0.00000  Uiso   1.00
C362   C     0.68975   0.46495   0.19140   0.00000  Uiso   1.00
C363   C     0.97673   0.53600   0.14459   0.00000  Uiso   1.00
C364   C     0.98078   0.46155   0.18390   0.00000  Uiso   1.00
H365   H     0.73691   0.47036   0.27079   0.00000  Uiso   1.00
H366   H     0.72221   0.63844   0.17496   0.00000  Uiso   1.00
H367   H     0.72776   0.59027   0.21504   0.00000  Uiso   1.00
H368   H     0.67696   0.61524   0.20070   0.00000  Uiso   1.00
H369   H     0.89914   0.42029   0.25230   0.00000  Uiso   1.00
H370   H     0.91322   0.36171   0.24575   0.00000  Uiso   1.00
H371   H     0.89837   0.38408   0.30532   0.00000  Uiso   1.00
H372   H     0.75246   0.63673   0.09343   0.00000  Uiso   1.00
H373   H     0.76596   0.57993   0.07634   0.00000  Uiso   1.00
H374   H     0.76536   0.62315   0.02998   0.00000  Uiso   1.00
H375   H     0.75240   0.38670   0.11501   0.00000  Uiso   1.00
H376   H     0.68837   0.44353   0.28479   0.00000  Uiso   1.00
H377   H     0.75267   0.37326   0.04866   0.00000  Uiso   1.00
H378   H     0.76423   0.42815   0.06905   0.00000  Uiso   1.00
H379   H     0.91034   0.61324   0.23750   0.00000  Uiso   1.00
H380   H     0.89216   0.57671   0.28461   0.00000  Uiso   1.00
H381   H     0.89816   0.63387   0.29981   0.00000  Uiso   1.00
H382   H     0.73647   0.41152   0.28369   0.00000  Uiso   1.00
H383   H     0.94486   0.60971   0.16516   0.00000  Uiso   1.00
H384   H     0.92103   0.62098   0.10494   0.00000  Uiso   1.00
H385   H     0.97574   0.62736   0.11253   0.00000  Uiso   1.00
H386   H     0.99843   0.37967   0.15426   0.00000  Uiso   1.00
H387   H     0.95242   0.40510   0.12249   0.00000  Uiso   1.00
H388   H     0.94746   0.36180   0.16809   0.00000  Uiso   1.00
N389   N     0.83333   0.61907   0.16667   0.00000  Uiso   1.00
N390   N     0.83333   0.38093   0.16667   0.00000  Uiso   1.00
O391   O     0.77226   0.53821   0.16666   0.00000  Uiso   1.00
O392   O     0.95560   0.56218   0.10812   0.00000  Uiso   1.00
O393   O     0.96221   0.42273   0.19827   0.00000  Uiso   1.00
O394   O     0.70431   0.57959   0.14138   0.00000  Uiso   1.00
O395   O     0.84908   0.37849   0.25507   0.00000  Uiso   1.00
O396   O     0.81625   0.62147   0.07864   0.00000  Uiso   1.00
O397   O     0.81155   0.38041   0.08013   0.00000  Uiso   1.00
O398   O     0.84633   0.61995   0.25537   0.00000  Uiso   1.00
O399   O     0.89441   0.46179   0.16667   0.00000  Uiso   1.00
O400   O     0.89441   0.53821   0.16667   0.00000  Uiso   1.00
O401   O     0.77226   0.46179   0.16666   0.00000  Uiso   1.00
O402   O     0.83334   0.53821   0.09511   0.00000  Uiso   1.00
O403   O     0.83333   0.46179   0.23822   0.00000  Uiso   1.00
O404   O     0.83333   0.53821   0.23822   0.00000  Uiso   1.00
O405   O     0.83334   0.46179   0.09511   0.00000  Uiso   1.00
O406   O     0.71215   0.42965   0.21407   0.00000  Uiso   1.00
Zn407  Zn    0.83333   0.55104   0.16667   0.00000  Uiso   1.00
Zn408  Zn    0.83333   0.44896   0.16667   0.00000  Uiso   1.00
C409   C     0.08678   0.83419   0.16893   0.00000  Uiso   1.00
C410   C     0.01906   0.87365   0.15428   0.00000  Uiso   1.00
C411   C     0.29095   0.83143   0.16310   0.00000  Uiso   1.00
C412   C     0.04248   0.83614   0.17310   0.00000  Uiso   1.00
C413   C     0.17674   0.69011   0.20968   0.00000  Uiso   1.00
C414   C     0.15645   0.97657   0.12378   0.00000  Uiso   1.00
C415   C     0.15563   0.69098   0.12409   0.00000  Uiso   1.00
C416   C     0.17607   0.97569   0.20986   0.00000  Uiso   1.00
C417   C     0.05182   0.77307   0.26549   0.00000  Uiso   1.00
C418   C     0.28293   0.94014   0.12414   0.00000  Uiso   1.00
C419   C     0.29894   0.72470   0.15876   0.00000  Uiso   1.00
C420   C     0.24656   0.83259   0.16471   0.00000  Uiso   1.00
C421   C     0.04110   0.93992   0.18504   0.00000  Uiso   1.00
C422   C     0.22508   0.71943   0.26417   0.00000  Uiso   1.00
C423   C     0.10657   0.94876   0.07003   0.00000  Uiso   1.00
C424   C     0.10188   0.72557   0.07904   0.00000  Uiso   1.00
C425   C     0.22194   0.94440   0.26901   0.00000  Uiso   1.00
C426   C     0.16655   0.83334   0.07303   0.00000  Uiso   1.00
C427   C     0.16665   0.83332   0.26030   0.00000  Uiso   1.00
C428   C     0.16650   0.83334   0.02185   0.00000  Uiso   1.00
C429   C     0.16653   0.83331   0.31147   0.00000  Uiso   1.00
C430   C     0.02309   0.79828   0.19140   0.00000  Uiso   1.00
C431   C     0.31006   0.86933   0.14459   0.00000  Uiso   1.00
C432   C     0.31412   0.79489   0.18390   0.00000  Uiso   1.00
H433   H     0.07024   0.80369   0.27079   0.00000  Uiso   1.00
H434   H     0.05554   0.97177   0.17496   0.00000  Uiso   1.00
H435   H     0.06109   0.92361   0.21504   0.00000  Uiso   1.00
H436   H     0.01029   0.94857   0.20070   0.00000  Uiso   1.00
H437   H     0.23247   0.75362   0.25230   0.00000  Uiso   1.00
H438   H     0.24655   0.69504   0.24575   0.00000  Uiso   1.00
H439   H     0.23171   0.71741   0.30532   0.00000  Uiso   1.00
H440   H     0.08580   0.97007   0.09343   0.00000  Uiso   1.00
H441   H     0.09929   0.91326   0.07634   0.00000  Uiso   1.00
H442   H     0.09870   0.95648   0.02998   0.00000  Uiso   1.00
H443   H     0.08573   0.72003   0.11501   0.00000  Uiso   1.00
H444   H     0.02170   0.77687   0.28479   0.00000  Uiso   1.00
H445   H     0.08600   0.70659   0.04866   0.00000  Uiso   1.00
H446   H     0.09757   0.76148   0.06905   0.00000  Uiso   1.00
H447   H     0.24368   0.94658   0.23750   0.00000  Uiso   1.00
H448   H     0.22549   0.91004   0.28461   0.00000  Uiso   1.00
H449   H     0.23149   0.96721   0.29981   0.00000  Uiso   1.00
H450   H     0.06980   0.74485   0.28369   0.00000  Uiso   1.00
H451   H     0.27820   0.94305   0.16516   0.00000  Uiso   1.00
H452   H     0.25437   0.95431   0.10494   0.00000  Uiso   1.00
H453   H     0.30908   0.96069   0.11253   0.00000  Uiso   1.00
H454   H     0.33176   0.71301   0.15426   0.00000  Uiso   1.00
H455   H     0.28575   0.73844   0.12249   0.00000  Uiso   1.00
H456   H     0.28080   0.69513   0.16809   0.00000  Uiso   1.00
N457   N     0.16667   0.95240   0.16667   0.00000  Uiso   1.00
N458   N     0.16667   0.71427   0.16667   0.00000  Uiso   1.00
O459   O     0.10559   0.87154   0.16666   0.00000  Uiso   1.00
O460   O     0.28893   0.89551   0.10812   0.00000  Uiso   1.00
O461   O     0.29554   0.75606   0.19827   0.00000  Uiso   1.00
O462   O     0.03764   0.91292   0.14138   0.00000  Uiso   1.00
O463   O     0.18241   0.71182   0.25507   0.00000  Uiso   1.00
O464   O     0.14958   0.95481   0.07864   0.00000  Uiso   1.00
O465   O     0.14489   0.71375   0.08013   0.00000  Uiso   1.00
O466   O     0.17966   0.95328   0.25537   0.00000  Uiso   1.00
O467   O     0.22774   0.79513   0.16667   0.00000  Uiso   1.00
O468   O     0.22774   0.87154   0.16667   0.00000  Uiso   1.00
O469   O     0.10559   0.79513   0.16666   0.00000  Uiso   1.00
O470   O     0.16667   0.87155   0.09511   0.00000  Uiso   1.00
O471   O     0.16666   0.79512   0.23822   0.00000  Uiso   1.00
O472   O     0.16666   0.87155   0.23822   0.00000  Uiso   1.00
O473   O     0.16667   0.79512   0.09511   0.00000  Uiso   1.00
O474   O     0.04549   0.76298   0.21407   0.00000  Uiso   1.00
Zn475  Zn    0.16667   0.88437   0.16667   0.00000  Uiso   1.00
Zn476  Zn    0.16667   0.78229   0.16667   0.00000  Uiso   1.00
C477   C     0.42011   0.83419   0.16893   0.00000  Uiso   1.00
C478   C     0.35239   0.87365   0.15428   0.00000  Uiso   1.00
C479   C     0.62429   0.83143   0.16310   0.00000  Uiso   1.00
C480   C     0.37581   0.83614   0.17310   0.00000  Uiso   1.00
C481   C     0.51007   0.69011   0.20968   0.00000  Uiso   1.00
C482   C     0.48978   0.97657   0.12378   0.00000  Uiso   1.00
C483   C     0.48896   0.69098   0.12409   0.00000  Uiso   1.00
C484   C     0.50940   0.97569   0.20986   0.00000  Uiso   1.00
C485   C     0.38515   0.77307   0.26549   0.00000  Uiso   1.00
C486   C     0.61627   0.94014   0.12414   0.00000  Uiso   1.00
C487   C     0.63227   0.72470   0.15876   0.00000  Uiso   1.00
C488   C     0.57990   0.83259   0.16471   0.00000  Uiso   1.00
C489   C     0.37443   0.93992   0.18504   0.00000  Uiso   1.00
C490   C     0.55841   0.71943   0.26417   0.00000  Uiso   1.00
C491   C     0.43990   0.94876   0.07003   0.00000  Uiso   1.00
C492   C     0.43522   0.72557   0.07904   0.00000  Uiso   1.00
C493   C     0.55527   0.94440   0.26901   0.00000  Uiso   1.00
C494   C     0.49988   0.83334   0.07303   0.00000  Uiso   1.00
C495   C     0.49998   0.83332   0.26030   0.00000  Uiso   1.00
C496   C     0.49983   0.83334   0.02185   0.00000  Uiso   1.00
C497   C     0.49986   0.83331   0.31147   0.00000  Uiso   1.00
C498   C     0.35642   0.79828   0.19140   0.00000  Uiso   1.00
C499   C     0.64340   0.86933   0.14459   0.00000  Uiso   1.00
C500   C     0.64745   0.79489   0.18390   0.00000  Uiso   1.00
H501   H     0.40357   0.80369   0.27079   0.00000  Uiso   1.00
H502   H     0.38887   0.97177   0.17496   0.00000  Uiso   1.00
H503   H     0.39443   0.92361   0.21504   0.00000  Uiso   1.00
H504   H     0.34363   0.94857   0.20070   0.00000  Uiso   1.00
H505   H     0.56580   0.75362   0.25230   0.00000  Uiso   1.00
H506   H     0.57989   0.69504   0.24575   0.00000  Uiso   1.00
H507   H     0.56504   0.71741   0.30532   0.00000  Uiso   1.00
H508   H     0.41913   0.97007   0.09343   0.00000  Uiso   1.00
H509   H     0.43262   0.91326   0.07634   0.00000  Uiso   1.00
H510   H     0.43203   0.95648   0.02998   0.00000  Uiso   1.00
H511   H     0.41907   0.72003   0.11501   0.00000  Uiso   1.00
H512   H     0.35504   0.77687   0.28479   0.00000  Uiso   1.00
H513   H     0.41933   0.70659   0.04866   0.00000  Uiso   1.00
H514   H     0.43090   0.76148   0.06905   0.00000  Uiso   1.00
H515   H     0.57701   0.94658   0.23750   0.00000  Uiso   1.00
H516   H     0.55882   0.91004   0.28461   0.00000  Uiso   1.00
H517   H     0.56482   0.96721   0.29981   0.00000  Uiso   1.00
H518   H     0.40313   0.74485   0.28369   0.00000  Uiso   1.00
H519   H     0.61153   0.94305   0.16516   0.00000  Uiso   1.00
H520   H     0.58770   0.95431   0.10494   0.00000  Uiso   1.00
H521   H     0.64241   0.96069   0.11253   0.00000  Uiso   1.00
H522   H     0.66510   0.71301   0.15426   0.00000  Uiso   1.00
H523   H     0.61908   0.73844   0.12249   0.00000  Uiso   1.00
H524   H     0.61413   0.69513   0.16809   0.00000  Uiso   1.00
N525   N     0.50000   0.95240   0.16667   0.00000  Uiso   1.00
N526   N     0.50000   0.71427   0.16667   0.00000  Uiso   1.00
O527   O     0.43892   0.87154   0.16666   0.00000  Uiso   1.00
O528   O     0.62227   0.89551   0.10812   0.00000  Uiso   1.00
O529   O     0.62887   0.75606   0.19827   0.00000  Uiso   1.00
O530   O     0.37097   0.91292   0.14138   0.00000  Uiso   1.00
O531   O     0.51574   0.71182   0.25507   0.00000  Uiso   1.00
O532   O     0.48291   0.95481   0.07864   0.00000  Uiso   1.00
O533   O     0.47822   0.71375   0.08013   0.00000  Uiso   1.00
O534   O     0.51300   0.95328   0.25537   0.00000  Uiso   1.00
O535   O     0.56108   0.79513   0.16667   0.00000  Uiso   1.00
O536   O     0.56108   0.87154   0.16667   0.00000  Uiso   1.00
O537   O     0.43892   0.79513   0.16666   0.00000  Uiso   1.00
O538   O     0.50000   0.87155   0.09511   0.00000  Uiso   1.00
O539   O     0.50000   0.79512   0.23822   0.00000  Uiso   1.00
O540   O     0.50000   0.87155   0.23822   0.00000  Uiso   1.00
O541   O     0.50000   0.79512   0.09511   0.00000  Uiso   1.00
O542   O     0.37882   0.76298   0.21407   0.00000  Uiso   1.00
Zn543  Zn    0.50000   0.88437   0.16667   0.00000  Uiso   1.00
Zn544  Zn    0.50000   0.78229   0.16667   0.00000  Uiso   1.00
C545   C     0.75344   0.83419   0.16893   0.00000  Uiso   1.00
C546   C     0.68572   0.87365   0.15428   0.00000  Uiso   1.00
C547   C     0.95762   0.83143   0.16310   0.00000  Uiso   1.00
C548   C     0.70914   0.83614   0.17310   0.00000  Uiso   1.00
C549   C     0.84340   0.69011   0.20968   0.00000  Uiso   1.00
C550   C     0.82311   0.97657   0.12378   0.00000  Uiso   1.00
C551   C     0.82229   0.69098   0.12409   0.00000  Uiso   1.00
C552   C     0.84274   0.97569   0.20986   0.00000  Uiso   1.00
C553   C     0.71848   0.77307   0.26549   0.00000  Uiso   1.00
C554   C     0.94960   0.94014   0.12414   0.00000  Uiso   1.00
C555   C     0.96560   0.72470   0.15876   0.00000  Uiso   1.00
C556   C     0.91323   0.83259   0.16471   0.00000  Uiso   1.00
C557   C     0.70776   0.93992   0.18504   0.00000  Uiso   1.00
C558   C     0.89175   0.71943   0.26417   0.00000  Uiso   1.00
C559   C     0.77324   0.94876   0.07003   0.00000  Uiso   1.00
C560   C     0.76855   0.72557   0.07904   0.00000  Uiso   1.00
C561   C     0.88860   0.94440   0.26901   0.00000  Uiso   1.00
C562   C     0.83321   0.83334   0.07303   0.00000  Uiso   1.00
C563   C     0.83331   0.83332   0.26030   0.00000  Uiso   1.00
C564   C     0.83317   0.83334   0.02185   0.00000  Uiso   1.00
C565   C     0.83320   0.83331   0.31147   0.00000  Uiso   1.00
C566   C     0.68975   0.79828   0.19140   0.00000  Uiso   1.00
C567   C     0.97673   0.86933   0.14459   0.00000  Uiso   1.00
C568   C     0.98078   0.79489   0.18390   0.00000  Uiso   1.00
H569   H     0.73691   0.80369   0.27079   0.00000  Uiso   1.00
H570   H     0.72221   0.97177   0.17496   0.00000  Uiso   1.00
H571   H     0.72776   0.92361   0.21504   0.00000  Uiso   1.00
H572   H     0.67696   0.94857   0.20070   0.00000  Uiso   1.00
H573   H     0.89914   0.75362   0.25230   0.00000  Uiso   1.00
H574   H     0.91322   0.69504   0.24575   0.00000  Uiso   1.00
H575   H     0.89837   0.71741   0.30532   0.00000  Uiso   1.00
H576   H     0.75246   0.97007   0.09343   0.00000  Uiso   1.00
H577   H     0.76596   0.91326   0.07634   0.00000  Uiso   1.00
H578   H     0.76536   0.95648   0.02998   0.00000  Uiso   1.00
H579   H     0.75240   0.72003   0.11501   0.00000  Uiso   1.00
H580   H     0.68837   0.77687   0.28479   0.00000  Uiso   1.00
H581   H     0.75267   0.70659   0.04866   0.00000  Uiso   1.00
H582   H     0.76423   0.76148   0.06905   0.00000  Uiso   1.00
H583   H     0.91034   0.94658   0.23750   0.00000  Uiso   1.00
H584   H     0.89216   0.91004   0.28461   0.00000  Uiso   1.00
H585   H     0.89816   0.96721   0.29981   0.00000  Uiso   1.00
H586   H     0.73647   0.74485   0.28369   0.00000  Uiso   1.00
H587   H     0.94486   0.94305   0.16516   0.00000  Uiso   1.00
H588   H     0.92103   0.95431   0.10494   0.00000  Uiso   1.00
H589   H     0.97574   0.96069   0.11253   0.00000  Uiso   1.00
H590   H     0.99843   0.71301   0.15426   0.00000  Uiso   1.00
H591   H     0.95242   0.73844   0.12249   0.00000  Uiso   1.00
H592   H     0.94746   0.69513   0.16809   0.00000  Uiso   1.00
N593   N     0.83333   0.95240   0.16667   0.00000  Uiso   1.00
N594   N     0.83333   0.71427   0.16667   0.00000  Uiso   1.00
O595   O     0.77226   0.87154   0.16666   0.00000  Uiso   1.00
O596   O     0.95560   0.89551   0.10812   0.00000  Uiso   1.00
O597   O     0.96221   0.75606   0.19827   0.00000  Uiso   1.00
O598   O     0.70431   0.91292   0.14138   0.00000  Uiso   1.00
O599   O     0.84908   0.71182   0.25507   0.00000  Uiso   1.00
O600   O     0.81625   0.95481   0.07864   0.00000  Uiso   1.00
O601   O     0.81155   0.71375   0.08013   0.00000  Uiso   1.00
O602   O     0.84633   0.95328   0.25537   0.00000  Uiso   1.00
O603   O     0.89441   0.79513   0.16667   0.00000  Uiso   1.00
O604   O     0.89441   0.87154   0.16667   0.00000  Uiso   1.00
O605   O     0.77226   0.79513   0.16666   0.00000  Uiso   1.00
O606   O     0.83334   0.87155   0.09511   0.00000  Uiso   1.00
O607   O     0.83333   0.79512   0.23822   0.00000  Uiso   1.00
O608   O     0.83333   0.87155   0.23822   0.00000  Uiso   1.00
O609   O     0.83334   0.79512   0.09511   0.00000  Uiso   1.00
O610   O     0.71215   0.76298   0.21407   0.00000  Uiso   1.00
Zn611  Zn    0.83333   0.88437   0.16667   0.00000  Uiso   1.00
Zn612  Zn    0.83333   0.78229   0.16667   0.00000  Uiso   1.00
C613   C     0.08678   0.16752   0.50227   0.00000  Uiso   1.00
C614   C     0.01906   0.20698   0.48762   0.00000  Uiso   1.00
C615   C     0.29095   0.16476   0.49643   0.00000  Uiso   1.00
C616   C     0.04248   0.16948   0.50643   0.00000  Uiso   1.00
C617   C     0.17674   0.02344   0.54301   0.00000  Uiso   1.00
C618   C     0.15645   0.30990   0.45711   0.00000  Uiso   1.00
C619   C     0.15563   0.02432   0.45742   0.00000  Uiso   1.00
C620   C     0.17607   0.30903   0.54319   0.00000  Uiso   1.00
C621   C     0.05182   0.10640   0.59882   0.00000  Uiso   1.00
C622   C     0.28293   0.27347   0.45747   0.00000  Uiso   1.00
C623   C     0.29894   0.05803   0.49209   0.00000  Uiso   1.00
C624   C     0.24656   0.16593   0.49804   0.00000  Uiso   1.00
C625   C     0.04110   0.27325   0.51837   0.00000  Uiso   1.00
C626   C     0.22508   0.05276   0.59750   0.00000  Uiso   1.00
C627   C     0.10657   0.28209   0.40336   0.00000  Uiso   1.00
C628   C     0.10188   0.05890   0.41237   0.00000  Uiso   1.00
C629   C     0.22194   0.27774   0.60235   0.00000  Uiso   1.00
C630   C     0.16655   0.16668   0.40636   0.00000  Uiso   1.00
C631   C     0.16665   0.16666   0.59363   0.00000  Uiso   1.00
C632   C     0.16650   0.16667   0.35518   0.00000  Uiso   1.00
C633   C     0.16653   0.16664   0.64480   0.00000  Uiso   1.00
C634   C     0.02309   0.13162   0.52474   0.00000  Uiso   1.00
C635   C     0.31006   0.20267   0.47793   0.00000  Uiso   1.00
C636   C     0.31412   0.12822   0.51723   0.00000  Uiso   1.00
H637   H     0.07024   0.13703   0.60412   0.00000  Uiso   1.00
H638   H     0.05554   0.30510   0.50830   0.00000  Uiso   1.00
H639   H     0.06109   0.25694   0.54838   0.00000  Uiso   1.00
H640   H     0.01029   0.28190   0.53403   0.00000  Uiso   1.00
H641   H     0.23247   0.08695   0.58564   0.00000  Uiso   1.00
H642   H     0.24655   0.02838   0.57908   0.00000  Uiso   1.00
H643   H     0.23171   0.05075   0.63865   0.00000  Uiso   1.00
H644   H     0.08580   0.30340   0.42676   0.00000  Uiso   1.00
H645   H     0.09929   0.24660   0.40968   0.00000  Uiso   1.00
H646   H     0.09870   0.28982   0.36331   0.00000  Uiso   1.00
H647   H     0.08573   0.05337   0.44834   0.00000  Uiso   1.00
H648   H     0.02170   0.11020   0.61812   0.00000  Uiso   1.00
H649   H     0.08600   0.03992   0.38199   0.00000  Uiso   1.00
H650   H     0.09757   0.09481   0.40239   0.00000  Uiso   1.00
H651   H     0.24368   0.27991   0.57083   0.00000  Uiso   1.00
H652   H     0.22549   0.24337   0.61794   0.00000  Uiso   1.00
H653   H     0.23149   0.30054   0.63314   0.00000  Uiso   1.00
H654   H     0.06980   0.07818   0.61703   0.00000  Uiso   1.00
H655   H     0.27820   0.27638   0.49850   0.00000  Uiso   1.00
H656   H     0.25437   0.28764   0.43828   0.00000  Uiso   1.00
H657   H     0.30908   0.29402   0.44587   0.00000  Uiso   1.00
H658   H     0.33176   0.04634   0.48759   0.00000  Uiso   1.00
H659   H     0.28575   0.07177   0.45582   0.00000  Uiso   1.00
H660   H     0.28080   0.02846   0.50142   0.00000  Uiso   1.00
N661   N     0.16667   0.28573   0.50000   0.00000  Uiso   1.00
N662   N     0.16667   0.04760   0.50000   0.00000  Uiso   1.00
O663   O     0.10559   0.20487   0.50000   0.00000  Uiso   1.00
O664   O     0.28893   0.22884   0.44145   0.00000  Uiso   1.00
O665   O     0.29554   0.08939   0.53161   0.00000  Uiso   1.00
O666   O     0.03764   0.24626   0.47472   0.00000  Uiso   1.00
O667   O     0.18241   0.04515   0.58840   0.00000  Uiso   1.00
O668   O     0.14958   0.28814   0.41198   0.00000  Uiso   1.00
O669   O     0.14489   0.04708   0.41347   0.00000  Uiso   1.00
O670   O     0.17966   0.28662   0.58870   0.00000  Uiso   1.00
O671   O     0.22774   0.12846   0.50000   0.00000  Uiso   1.00
O672   O     0.22774   0.20487   0.50000   0.00000  Uiso   1.00
O673   O     0.10559   0.12846   0.50000   0.00000  Uiso   1.00
O674   O     0.16667   0.20488   0.42845   0.00000  Uiso   1.00
O675   O     0.16666   0.12845   0.57155   0.00000  Uiso   1.00
O676   O     0.16666   0.20488   0.57155   0.00000  Uiso   1.00
O677   O     0.16667   0.12845   0.42845   0.00000  Uiso   1.00
O678   O     0.04549   0.09631   0.54740   0.00000  Uiso   1.00
Zn679  Zn    0.16667   0.21771   0.50000   0.00000  Uiso   1.00
Zn680  Zn    0.16667   0.11563   0.50000   0.00000  Uiso   1.00
C681   C     0.42011   0.16752   0.50227   0.00000  Uiso   1.00
C682   C     0.35239   0.20698   0.48762   0.00000  Uiso   1.00
C683   C     0.62429   0.16476   0.49643   0.00000  Uiso   1.00
C684   C     0.37581   0.16948   0.50643   0.00000  Uiso   1.00
C685   C     0.51007   0.02344   0.54301   0.00000  Uiso   1.00
C686   C     0.48978   0.30990   0.45711   0.00000  Uiso   1.00
C687   C     0.48896   0.02432   0.45742   0.00000  Uiso   1.00
C688   C     0.50940   0.30903   0.54319   0.00000  Uiso   1.00
C689   C     0.38515   0.10640   0.59882   0.00000  Uiso   1.00
C690   C     0.61627   0.27347   0.45747   0.00000  Uiso   1.00
C691   C     0.63227   0.05803   0.49209   0.00000  Uiso   1.00
C692   C     0.57990   0.16593   0.49804   0.00000  Uiso   1.00
C693   C     0.37443   0.27325   0.51837   0.00000  Uiso   1.00
C694   C     0.55841   0.05276   0.59750   0.00000  Uiso   1.00
C695   C     0.43990   0.28209   0.40336   0.00000  Uiso   1.00
C696   C     0.43522   0.05890   0.41237   0.00000  Uiso   1.00
C697   C     0.55527   0.27774   0.60235   0.00000  Uiso   1.00
C698   C     0.49988   0.16668   0.40636   0.00000  Uiso   1.00
C699   C     0.49998   0.16666   0.59363   0.00000  Uiso   1.00
C700   C     0.49983   0.16667   0.35518   0.00000  Uiso   1.00
C701   C     0.49986   0.16664   0.64480   0.00000  Uiso   1.00
C702   C     0.35642   0.13162   0.52474   0.00000  Uiso   1.00
C703   C     0.64340   0.20267   0.47793   0.00000  Uiso   1.00
C704   C     0.64745   0.12822   0.51723   0.00000  Uiso   1.00
H705   H     0.40357   0.13703   0.60412   0.00000  Uiso   1.00
H706   H     0.38887   0.30510   0.50830   0.00000  Uiso   1.00
H707   H     0.39443   0.25694   0.54838   0.00000  Uiso   1.00
H708   H     0.34363   0.28190   0.53403   0.00000  Uiso   1.00
H709   H     0.56580   0.08695   0.58564   0.00000  Uiso   1.00
H710   H     0.57989   0.02838   0.57908   0.00000  Uiso   1.00
H711   H     0.56504   0.05075   0.63865   0.00000  Uiso   1.00
H712   H     0.41913   0.30340   0.42676   0.00000  Uiso   1.00
H713   H     0.43262   0.24660   0.40968   0.00000  Uiso   1.00
H714   H     0.43203   0.28982   0.36331   0.00000  Uiso   1.00
H715   H     0.41907   0.05337   0.44834   0.00000  Uiso   1.00
H716   H     0.35504   0.11020   0.61812   0.00000  Uiso   1.00
H717   H     0.41933   0.03992   0.38199   0.00000  Uiso   1.00
H718   H     0.43090   0.09481   0.40239   0.00000  Uiso   1.00
H719   H     0.57701   0.27991   0.57083   0.00000  Uiso   1.00
H720   H     0.55882   0.24337   0.61794   0.00000  Uiso   1.00
H721   H     0.56482   0.30054   0.63314   0.00000  Uiso   1.00
H722   H     0.40313   0.07818   0.61703   0.00000  Uiso   1.00
H723   H     0.61153   0.27638   0.49850   0.00000  Uiso   1.00
H724   H     0.58770   0.28764   0.43828   0.00000  Uiso   1.00
H725   H     0.64241   0.29402   0.44587   0.00000  Uiso   1.00
H726   H     0.66510   0.04634   0.48759   0.00000  Uiso   1.00
H727   H     0.61908   0.07177   0.45582   0.00000  Uiso   1.00
H728   H     0.61413   0.02846   0.50142   0.00000  Uiso   1.00
N729   N     0.50000   0.28573   0.50000   0.00000  Uiso   1.00
N730   N     0.50000   0.04760   0.50000   0.00000  Uiso   1.00
O731   O     0.43892   0.20487   0.50000   0.00000  Uiso   1.00
O732   O     0.62227   0.22884   0.44145   0.00000  Uiso   1.00
O733   O     0.62887   0.08939   0.53161   0.00000  Uiso   1.00
O734   O     0.37097   0.24626   0.47472   0.00000  Uiso   1.00
O735   O     0.51574   0.04515   0.58840   0.00000  Uiso   1.00
O736   O     0.48291   0.28814   0.41198   0.00000  Uiso   1.00
O737   O     0.47822   0.04708   0.41347   0.00000  Uiso   1.00
O738   O     0.51300   0.28662   0.58870   0.00000  Uiso   1.00
O739   O     0.56108   0.12846   0.50000   0.00000  Uiso   1.00
O740   O     0.56108   0.20487   0.50000   0.00000  Uiso   1.00
O741   O     0.43892   0.12846   0.50000   0.00000  Uiso   1.00
O742   O     0.50000   0.20488   0.42845   0.00000  Uiso   1.00
O743   O     0.50000   0.12845   0.57155   0.00000  Uiso   1.00
O744   O     0.50000   0.20488   0.57155   0.00000  Uiso   1.00
O745   O     0.50000   0.12845   0.42845   0.00000  Uiso   1.00
O746   O     0.37882   0.09631   0.54740   0.00000  Uiso   1.00
Zn747  Zn    0.50000   0.21771   0.50000   0.00000  Uiso   1.00
Zn748  Zn    0.50000   0.11563   0.50000   0.00000  Uiso   1.00
C749   C     0.75344   0.16752   0.50227   0.00000  Uiso   1.00
C750   C     0.68572   0.20698   0.48762   0.00000  Uiso   1.00
C751   C     0.95762   0.16476   0.49643   0.00000  Uiso   1.00
C752   C     0.70914   0.16948   0.50643   0.00000  Uiso   1.00
C753   C     0.84340   0.02344   0.54301   0.00000  Uiso   1.00
C754   C     0.82311   0.30990   0.45711   0.00000  Uiso   1.00
C755   C     0.82229   0.02432   0.45742   0.00000  Uiso   1.00
C756   C     0.84274   0.30903   0.54319   0.00000  Uiso   1.00
C757   C     0.71848   0.10640   0.59882   0.00000  Uiso   1.00
C758   C     0.94960   0.27347   0.45747   0.00000  Uiso   1.00
C759   C     0.96560   0.05803   0.49209   0.00000  Uiso   1.00
C760   C     0.91323   0.16593   0.49804   0.00000  Uiso   1.00
C761   C     0.70776   0.27325   0.51837   0.00000  Uiso   1.00
C762   C     0.89175   0.05276   0.59750   0.00000  Uiso   1.00
C763   C     0.77324   0.28209   0.40336   0.00000  Uiso   1.00
C764   C     0.76855   0.05890   0.41237   0.00000  Uiso   1.00
C765   C     0.88860   0.27774   0.60235   0.00000  Uiso   1.00
C766   C     0.83321   0.16668   0.40636   0.00000  Uiso   1.00
C767   C     0.83331   0.16666   0.59363   0.00000  Uiso   1.00
C768   C     0.83317   0.16667   0.35518   0.00000  Uiso   1.00
C769   C     0.83320   0.16664   0.64480   0.00000  Uiso   1.00
C770   C     0.68975   0.13162   0.52474   0.00000  Uiso   1.00
C771   C     0.97673   0.20267   0.47793   0.00000  Uiso   1.00
C772   C     0.98078   0.12822   0.51723   0.00000  Uiso   1.00
H773   H     0.73691   0.13703   0.60412   0.00000  Uiso   1.00
H774   H     0.72221   0.30510   0.50830   0.00000  Uiso   1.00
H775   H     0.72776   0.25694   0.54838   0.00000  Uiso   1.00
H776   H     0.67696   0.28190   0.53403   0.00000  Uiso   1.00
H777   H     0.89914   0.08695   0.58564   0.00000  Uiso   1.00
H778   H     0.91322   0.02838   0.57908   0.00000  Uiso   1.00
H779   H     0.89837   0.05075   0.63865   0.00000  Uiso   1.00
H780   H     0.75246   0.30340   0.42676   0.00000  Uiso   1.00
H781   H     0.76596   0.24660   0.40968   0.00000  Uiso   1.00
H782   H     0.76536   0.28982   0.36331   0.00000  Uiso   1.00
H783   H     0.75240   0.05337   0.44834   0.00000  Uiso   1.00
H784   H     0.68837   0.11020   0.61812   0.00000  Uiso   1.00
H785   H     0.75267   0.03992   0.38199   0.00000  Uiso   1.00
H786   H     0.76423   0.09481   0.40239   0.00000  Uiso   1.00
H787   H     0.91034   0.27991   0.57083   0.00000  Uiso   1.00
H788   H     0.89216   0.24337   0.61794   0.00000  Uiso   1.00
H789   H     0.89816   0.30054   0.63314   0.00000  Uiso   1.00
H790   H     0.73647   0.07818   0.61703   0.00000  Uiso   1.00
H791   H     0.94486   0.27638   0.49850   0.00000  Uiso   1.00
H792   H     0.92103   0.28764   0.43828   0.00000  Uiso   1.00
H793   H     0.97574   0.29402   0.44587   0.00000  Uiso   1.00
H794   H     0.99843   0.04634   0.48759   0.00000  Uiso   1.00
H795   H     0.95242   0.07177   0.45582   0.00000  Uiso   1.00
H796   H     0.94746   0.02846   0.50142   0.00000  Uiso   1.00
N797   N     0.83333   0.28573   0.50000   0.00000  Uiso   1.00
N798   N     0.83333   0.04760   0.50000   0.00000  Uiso   1.00
O799   O     0.77226   0.20487   0.50000   0.00000  Uiso   1.00
O800   O     0.95560   0.22884   0.44145   0.00000  Uiso   1.00
O801   O     0.96221   0.08939   0.53161   0.00000  Uiso   1.00
O802   O     0.70431   0.24626   0.47472   0.00000  Uiso   1.00
O803   O     0.84908   0.04515   0.58840   0.00000  Uiso   1.00
O804   O     0.81625   0.28814   0.41198   0.00000  Uiso   1.00
O805   O     0.81155   0.04708   0.41347   0.00000  Uiso   1.00
O806   O     0.84633   0.28662   0.58870   0.00000  Uiso   1.00
O807   O     0.89441   0.12846   0.50000   0.00000  Uiso   1.00
O808   O     0.89441   0.20487   0.50000   0.00000  Uiso   1.00
O809   O     0.77226   0.12846   0.50000   0.00000  Uiso   1.00
O810   O     0.83334   0.20488   0.42845   0.00000  Uiso   1.00
O811   O     0.83333   0.12845   0.57155   0.00000  Uiso   1.00
O812   O     0.83333   0.20488   0.57155   0.00000  Uiso   1.00
O813   O     0.83334   0.12845   0.42845   0.00000  Uiso   1.00
O814   O     0.71215   0.09631   0.54740   0.00000  Uiso   1.00
Zn815  Zn    0.83333   0.21771   0.50000   0.00000  Uiso   1.00
Zn816  Zn    0.83333   0.11563   0.50000   0.00000  Uiso   1.00
C817   C     0.08678   0.50085   0.50227   0.00000  Uiso   1.00
C818   C     0.01906   0.54031   0.48762   0.00000  Uiso   1.00
C819   C     0.29095   0.49809   0.49643   0.00000  Uiso   1.00
C820   C     0.04248   0.50281   0.50643   0.00000  Uiso   1.00
C821   C     0.17674   0.35677   0.54301   0.00000  Uiso   1.00
C822   C     0.15645   0.64324   0.45711   0.00000  Uiso   1.00
C823   C     0.15563   0.35765   0.45742   0.00000  Uiso   1.00
C824   C     0.17607   0.64236   0.54319   0.00000  Uiso   1.00
C825   C     0.05182   0.43973   0.59882   0.00000  Uiso   1.00
C826   C     0.28293   0.60681   0.45747   0.00000  Uiso   1.00
C827   C     0.29894   0.39137   0.49209   0.00000  Uiso   1.00
C828   C     0.24656   0.49926   0.49804   0.00000  Uiso   1.00
C829   C     0.04110   0.60659   0.51837   0.00000  Uiso   1.00
C830   C     0.22508   0.38609   0.59750   0.00000  Uiso   1.00
C831   C     0.10657   0.61543   0.40336   0.00000  Uiso   1.00
C832   C     0.10188   0.39223   0.41237   0.00000  Uiso   1.00
C833   C     0.22194   0.61107   0.60235   0.00000  Uiso   1.00
C834   C     0.16655   0.50001   0.40636   0.00000  Uiso   1.00
C835   C     0.16665   0.49999   0.59363   0.00000  Uiso   1.00
C836   C     0.16650   0.50000   0.35518   0.00000  Uiso   1.00
C837   C     0.16653   0.49997   0.64480   0.00000  Uiso   1.00
C838   C     0.02309   0.46495   0.52474   0.00000  Uiso   1.00
C839   C     0.31006   0.53600   0.47793   0.00000  Uiso   1.00
C840   C     0.31412   0.46155   0.51723   0.00000  Uiso   1.00
H841   H     0.07024   0.47036   0.60412   0.00000  Uiso   1.00
H842   H     0.05554   0.63844   0.50830   0.00000  Uiso   1.00
H843   H     0.06109   0.59027   0.54838   0.00000  Uiso   1.00
H844   H     0.01029   0.61524   0.53403   0.00000  Uiso   1.00
H845   H     0.23247   0.42029   0.58564   0.00000  Uiso   1.00
H846   H     0.24655   0.36171   0.57908   0.00000  Uiso   1.00
H847   H     0.23171   0.38408   0.63865   0.00000  Uiso   1.00
H848   H     0.08580   0.63673   0.42676   0.00000  Uiso   1.00
H849   H     0.09929   0.57993   0.40968   0.00000  Uiso   1.00
H850   H     0.09870   0.62315   0.36331   0.00000  Uiso   1.00
H851   H     0.08573   0.38670   0.44834   0.00000  Uiso   1.00
H852   H     0.02170   0.44353   0.61812   0.00000  Uiso   1.00
H853   H     0.08600   0.37326   0.38199   0.00000  Uiso   1.00
H854   H     0.09757   0.42815   0.40239   0.00000  Uiso   1.00
H855   H     0.24368   0.61324   0.57083   0.00000  Uiso   1.00
H856   H     0.22549   0.57671   0.61794   0.00000  Uiso   1.00
H857   H     0.23149   0.63387   0.63314   0.00000  Uiso   1.00
H858   H     0.06980   0.41152   0.61703   0.00000  Uiso   1.00
H859   H     0.27820   0.60971   0.49850   0.00000  Uiso   1.00
H860   H     0.25437   0.62098   0.43828   0.00000  Uiso   1.00
H861   H     0.30908   0.62736   0.44587   0.00000  Uiso   1.00
H862   H     0.33176   0.37967   0.48759   0.00000  Uiso   1.00
H863   H     0.28575   0.40510   0.45582   0.00000  Uiso   1.00
H864   H     0.28080   0.36180   0.50142   0.00000  Uiso   1.00
N865   N     0.16667   0.61907   0.50000   0.00000  Uiso   1.00
N866   N     0.16667   0.38093   0.50000   0.00000  Uiso   1.00
O867   O     0.10559   0.53821   0.50000   0.00000  Uiso   1.00
O868   O     0.28893   0.56218   0.44145   0.00000  Uiso   1.00
O869   O     0.29554   0.42273   0.53161   0.00000  Uiso   1.00
O870   O     0.03764   0.57959   0.47472   0.00000  Uiso   1.00
O871   O     0.18241   0.37849   0.58840   0.00000  Uiso   1.00
O872   O     0.14958   0.62147   0.41198   0.00000  Uiso   1.00
O873   O     0.14489   0.38041   0.41347   0.00000  Uiso   1.00
O874   O     0.17966   0.61995   0.58870   0.00000  Uiso   1.00
O875   O     0.22774   0.46179   0.50000   0.00000  Uiso   1.00
O876   O     0.22774   0.53821   0.50000   0.00000  Uiso   1.00
O877   O     0.10559   0.46179   0.50000   0.00000  Uiso   1.00
O878   O     0.16667   0.53821   0.42845   0.00000  Uiso   1.00
O879   O     0.16666   0.46179   0.57155   0.00000  Uiso   1.00
O880   O     0.16666   0.53821   0.57155   0.00000  Uiso   1.00
O881   O     0.16667   0.46179   0.42845   0.00000  Uiso   1.00
O882   O     0.04549   0.42965   0.54740   0.00000  Uiso   1.00
Zn883  Zn    0.16667   0.55104   0.50000   0.00000  Uiso   1.00
Zn884  Zn    0.16667   0.44896   0.50000   0.00000  Uiso   1.00
C885   C     0.42011   0.50085   0.50227   0.00000  Uiso   1.00
C886   C     0.35239   0.54031   0.48762   0.00000  Uiso   1.00
C887   C     0.62429   0.49809   0.49643   0.00000  Uiso   1.00
C888   C     0.37581   0.50281   0.50643   0.00000  Uiso   1.00
C889   C     0.51007   0.35677   0.54301   0.00000  Uiso   1.00
C890   C     0.48978   0.64324   0.45711   0.00000  Uiso   1.00
C891   C     0.48896   0.35765   0.45742   0.00000  Uiso   1.00
C892   C     0.50940   0.64236   0.54319   0.00000  Uiso   1.00
C893   C     0.38515   0.43973   0.59882   0.00000  Uiso   1.00
C894   C     0.61627   0.60681   0.45747   0.00000  Uiso   1.00
C895   C     0.63227   0.39137   0.49209   0.00000  Uiso   1.00
C896   C     0.57990   0.49926   0.49804   0.00000  Uiso   1.00
C897   C     0.37443   0.60659   0.51837   0.00000  Uiso   1.00
C898   C     0.55841   0.38609   0.59750   0.00000  Uiso   1.00
C899   C     0.43990   0.61543   0.40336   0.00000  Uiso   1.00
C900   C     0.43522   0.39223   0.41237   0.00000  Uiso   1.00
C901   C     0.55527   0.61107   0.60235   0.00000  Uiso   1.00
C902   C     0.49988   0.50001   0.40636   0.00000  Uiso   1.00
C903   C     0.49998   0.49999   0.59363   0.00000  Uiso   1.00
C904   C     0.49983   0.50000   0.35518   0.00000  Uiso   1.00
C905   C     0.49986   0.49997   0.64480   0.00000  Uiso   1.00
C906   C     0.35642   0.46495   0.52474   0.00000  Uiso   1.00
C907   C     0.64340   0.53600   0.47793   0.00000  Uiso   1.00
C908   C     0.64745   0.46155   0.51723   0.00000  Uiso   1.00
H909   H     0.40357   0.47036   0.60412   0.00000  Uiso   1.00
H910   H     0.38887   0.63844   0.50830   0.00000  Uiso   1.00
H911   H     0.39443   0.59027   0.54838   0.00000  Uiso   1.00
H912   H     0.34363   0.61524   0.53403   0.00000  Uiso   1.00
H913   H     0.56580   0.42029   0.58564   0.00000  Uiso   1.00
H914   H     0.57989   0.36171   0.57908   0.00000  Uiso   1.00
H915   H     0.56504   0.38408   0.63865   0.00000  Uiso   1.00
H916   H     0.41913   0.63673   0.42676   0.00000  Uiso   1.00
H917   H     0.43262   0.57993   0.40968   0.00000  Uiso   1.00
H918   H     0.43203   0.62315   0.36331   0.00000  Uiso   1.00
H919   H     0.41907   0.38670   0.44834   0.00000  Uiso   1.00
H920   H     0.35504   0.44353   0.61812   0.00000  Uiso   1.00
H921   H     0.41933   0.37326   0.38199   0.00000  Uiso   1.00
H922   H     0.43090   0.42815   0.40239   0.00000  Uiso   1.00
H923   H     0.57701   0.61324   0.57083   0.00000  Uiso   1.00
H924   H     0.55882   0.57671   0.61794   0.00000  Uiso   1.00
H925   H     0.56482   0.63387   0.63314   0.00000  Uiso   1.00
H926   H     0.40313   0.41152   0.61703   0.00000  Uiso   1.00
H927   H     0.61153   0.60971   0.49850   0.00000  Uiso   1.00
H928   H     0.58770   0.62098   0.43828   0.00000  Uiso   1.00
H929   H     0.64241   0.62736   0.44587   0.00000  Uiso   1.00
H930   H     0.66510   0.37967   0.48759   0.00000  Uiso   1.00
H931   H     0.61908   0.40510   0.45582   0.00000  Uiso   1.00
H932   H     0.61413   0.36180   0.50142   0.00000  Uiso   1.00
N933   N     0.50000   0.61907   0.50000   0.00000  Uiso   1.00
N934   N     0.50000   0.38093   0.50000   0.00000  Uiso   1.00
O935   O     0.43892   0.53821   0.50000   0.00000  Uiso   1.00
O936   O     0.62227   0.56218   0.44145   0.00000  Uiso   1.00
O937   O     0.62887   0.42273   0.53161   0.00000  Uiso   1.00
O938   O     0.37097   0.57959   0.47472   0.00000  Uiso   1.00
O939   O     0.51574   0.37849   0.58840   0.00000  Uiso   1.00
O940   O     0.48291   0.62147   0.41198   0.00000  Uiso   1.00
O941   O     0.47822   0.38041   0.41347   0.00000  Uiso   1.00
O942   O     0.51300   0.61995   0.58870   0.00000  Uiso   1.00
O943   O     0.56108   0.46179   0.50000   0.00000  Uiso   1.00
O944   O     0.56108   0.53821   0.50000   0.00000  Uiso   1.00
O945   O     0.43892   0.46179   0.50000   0.00000  Uiso   1.00
O946   O     0.50000   0.53821   0.42845   0.00000  Uiso   1.00
O947   O     0.50000   0.46179   0.57155   0.00000  Uiso   1.00
O948   O     0.50000   0.53821   0.57155   0.00000  Uiso   1.00
O949   O     0.50000   0.46179   0.42845   0.00000  Uiso   1.00
O950   O     0.37882   0.42965   0.54740   0.00000  Uiso   1.00
Zn951  Zn    0.50000   0.55104   0.50000   0.00000  Uiso   1.00
Zn952  Zn    0.50000   0.44896   0.50000   0.00000  Uiso   1.00
C953   C     0.75344   0.50085   0.50227   0.00000  Uiso   1.00
C954   C     0.68572   0.54031   0.48762   0.00000  Uiso   1.00
C955   C     0.95762   0.49809   0.49643   0.00000  Uiso   1.00
C956   C     0.70914   0.50281   0.50643   0.00000  Uiso   1.00
C957   C     0.84340   0.35677   0.54301   0.00000  Uiso   1.00
C958   C     0.82311   0.64324   0.45711   0.00000  Uiso   1.00
C959   C     0.82229   0.35765   0.45742   0.00000  Uiso   1.00
C960   C     0.84274   0.64236   0.54319   0.00000  Uiso   1.00
C961   C     0.71848   0.43973   0.59882   0.00000  Uiso   1.00
C962   C     0.94960   0.60681   0.45747   0.00000  Uiso   1.00
C963   C     0.96560   0.39137   0.49209   0.00000  Uiso   1.00
C964   C     0.91323   0.49926   0.49804   0.00000  Uiso   1.00
C965   C     0.70776   0.60659   0.51837   0.00000  Uiso   1.00
C966   C     0.89175   0.38609   0.59750   0.00000  Uiso   1.00
C967   C     0.77324   0.61543   0.40336   0.00000  Uiso   1.00
C968   C     0.76855   0.39223   0.41237   0.00000  Uiso   1.00
C969   C     0.88860   0.61107   0.60235   0.00000  Uiso   1.00
C970   C     0.83321   0.50001   0.40636   0.00000  Uiso   1.00
C971   C     0.83331   0.49999   0.59363   0.00000  Uiso   1.00
C972   C     0.83317   0.50000   0.35518   0.00000  Uiso   1.00
C973   C     0.83320   0.49997   0.64480   0.00000  Uiso   1.00
C974   C     0.68975   0.46495   0.52474   0.00000  Uiso   1.00
C975   C     0.97673   0.53600   0.47793   0.00000  Uiso   1.00
C976   C     0.98078   0.46155   0.51723   0.00000  Uiso   1.00
H977   H     0.73691   0.47036   0.60412   0.00000  Uiso   1.00
H978   H     0.72221   0.63844   0.50830   0.00000  Uiso   1.00
H979   H     0.72776   0.59027   0.54838   0.00000  Uiso   1.00
H980   H     0.67696   0.61524   0.53403   0.00000  Uiso   1.00
H981   H     0.89914   0.42029   0.58564   0.00000  Uiso   1.00
H982   H     0.91322   0.36171   0.57908   0.00000  Uiso   1.00
H983   H     0.89837   0.38408   0.63865   0.00000  Uiso   1.00
H984   H     0.75246   0.63673   0.42676   0.00000  Uiso   1.00
H985   H     0.76596   0.57993   0.40968   0.00000  Uiso   1.00
H986   H     0.76536   0.62315   0.36331   0.00000  Uiso   1.00
H987   H     0.75240   0.38670   0.44834   0.00000  Uiso   1.00
H988   H     0.68837   0.44353   0.61812   0.00000  Uiso   1.00
H989   H     0.75267   0.37326   0.38199   0.00000  Uiso   1.00
H990   H     0.76423   0.42815   0.40239   0.00000  Uiso   1.00
H991   H     0.91034   0.61324   0.57083   0.00000  Uiso   1.00
H992   H     0.89216   0.57671   0.61794   0.00000  Uiso   1.00
H993   H     0.89816   0.63387   0.63314   0.00000  Uiso   1.00
H994   H     0.73647   0.41152   0.61703   0.00000  Uiso   1.00
H995   H     0.94486   0.60971   0.49850   0.00000  Uiso   1.00
H996   H     0.92103   0.62098   0.43828   0.00000  Uiso   1.00
H997   H     0.97574   0.62736   0.44587   0.00000  Uiso   1.00
H998   H     0.99843   0.37967   0.48759   0.00000  Uiso   1.00
H999   H     0.95242   0.40510   0.45582   0.00000  Uiso   1.00
H1000  H     0.94746   0.36180   0.50142   0.00000  Uiso   1.00
N1001  N     0.83333   0.61907   0.50000   0.00000  Uiso   1.00
N1002  N     0.83333   0.38093   0.50000   0.00000  Uiso   1.00
O1003  O     0.77226   0.53821   0.50000   0.00000  Uiso   1.00
O1004  O     0.95560   0.56218   0.44145   0.00000  Uiso   1.00
O1005  O     0.96221   0.42273   0.53161   0.00000  Uiso   1.00
O1006  O     0.70431   0.57959   0.47472   0.00000  Uiso   1.00
O1007  O     0.84908   0.37849   0.58840   0.00000  Uiso   1.00
O1008  O     0.81625   0.62147   0.41198   0.00000  Uiso   1.00
O1009  O     0.81155   0.38041   0.41347   0.00000  Uiso   1.00
O1010  O     0.84633   0.61995   0.58870   0.00000  Uiso   1.00
O1011  O     0.89441   0.46179   0.50000   0.00000  Uiso   1.00
O1012  O     0.89441   0.53821   0.50000   0.00000  Uiso   1.00
O1013  O     0.77226   0.46179   0.50000   0.00000  Uiso   1.00
O1014  O     0.83334   0.53821   0.42845   0.00000  Uiso   1.00
O1015  O     0.83333   0.46179   0.57155   0.00000  Uiso   1.00
O1016  O     0.83333   0.53821   0.57155   0.00000  Uiso   1.00
O1017  O     0.83334   0.46179   0.42845   0.00000  Uiso   1.00
O1018  O     0.71215   0.42965   0.54740   0.00000  Uiso   1.00
Zn1019 Zn    0.83333   0.55104   0.50000   0.00000  Uiso   1.00
Zn1020 Zn    0.83333   0.44896   0.50000   0.00000  Uiso   1.00
C1021  C     0.08678   0.83419   0.50227   0.00000  Uiso   1.00
C1022  C     0.01906   0.87365   0.48762   0.00000  Uiso   1.00
C1023  C     0.29095   0.83143   0.49643   0.00000  Uiso   1.00
C1024  C     0.04248   0.83614   0.50643   0.00000  Uiso   1.00
C1025  C     0.17674   0.69011   0.54301   0.00000  Uiso   1.00
C1026  C     0.15645   0.97657   0.45711   0.00000  Uiso   1.00
C1027  C     0.15563   0.69098   0.45742   0.00000  Uiso   1.00
C1028  C     0.17607   0.97569   0.54319   0.00000  Uiso   1.00
C1029  C     0.05182   0.77307   0.59882   0.00000  Uiso   1.00
C1030  C     0.28293   0.94014   0.45747   0.00000  Uiso   1.00
C1031  C     0.29894   0.72470   0.49209   0.00000  Uiso   1.00
C1032  C     0.24656   0.83259   0.49804   0.00000  Uiso   1.00
C1033  C     0.04110   0.93992   0.51837   0.00000  Uiso   1.00
C1034  C     0.22508   0.71943   0.59750   0.00000  Uiso   1.00
C1035  C     0.10657   0.94876   0.40336   0.00000  Uiso   1.00
C1036  C     0.10188   0.72557   0.41237   0.00000  Uiso   1.00
C1037  C     0.22194   0.94440   0.60235   0.00000  Uiso   1.00
C1038  C     0.16655   0.83334   0.40636   0.00000  Uiso   1.00
C1039  C     0.16665   0.83332   0.59363   0.00000  Uiso   1.00
C1040  C     0.16650   0.83334   0.35518   0.00000  Uiso   1.00
C1041  C     0.16653   0.83331   0.64480   0.00000  Uiso   1.00
C1042  C     0.02309   0.79828   0.52474   0.00000  Uiso   1.00
C1043  C     0.31006   0.86933   0.47793   0.00000  Uiso   1.00
C1044  C     0.31412   0.79489   0.51723   0.00000  Uiso   1.00
H1045  H     0.07024   0.80369   0.60412   0.00000  Uiso   1.00
H1046  H     0.05554   0.97177   0.50830   0.00000  Uiso   1.00
H1047  H     0.06109   0.92361   0.54838   0.00000  Uiso   1.00
H1048  H     0.01029   0.94857   0.53403   0.00000  Uiso   1.00
H1049  H     0.23247   0.75362   0.58564   0.00000  Uiso   1.00
H1050  H     0.24655   0.69504   0.57908   0.00000  Uiso   1.00
H1051  H     0.23171   0.71741   0.63865   0.00000  Uiso   1.00
H1052  H     0.08580   0.97007   0.42676   0.00000  Uiso   1.00
H1053  H     0.09929   0.91326   0.40968   0.00000  Uiso   1.00
H1054  H     0.09870   0.95648   0.36331   0.00000  Uiso   1.00
H1055  H     0.08573   0.72003   0.44834   0.00000  Uiso   1.00
H1056  H     0.02170   0.77687   0.61812   0.00000  Uiso   1.00
H1057  H     0.08600   0.70659   0.38199   0.00000  Uiso   1.00
H1058  H     0.09757   0.76148   0.40239   0.00000  Uiso   1.00
H1059  H     0.24368   0.94658   0.57083   0.00000  Uiso   1.00
H1060  H     0.22549   0.91004   0.61794   0.00000  Uiso   1.00
H1061  H     0.23149   0.96721   0.63314   0.00000  Uiso   1.00
H1062  H     0.06980   0.74485   0.61703   0.00000  Uiso   1.00
H1063  H     0.27820   0.94305   0.49850   0.00000  Uiso   1.00
H1064  H     0.25437   0.95431   0.43828   0.00000  Uiso   1.00
H1065  H     0.30908   0.96069   0.44587   0.00000  Uiso   1.00
H1066  H     0.33176   0.71301   0.48759   0.00000  Uiso   1.00
H1067  H     0.28575   0.73844   0.45582   0.00000  Uiso   1.00
H1068  H     0.28080   0.69513   0.50142   0.00000  Uiso   1.00
N1069  N     0.16667   0.95240   0.50000   0.00000  Uiso   1.00
N1070  N     0.16667   0.71427   0.50000   0.00000  Uiso   1.00
O1071  O     0.10559   0.87154   0.50000   0.00000  Uiso   1.00
O1072  O     0.28893   0.89551   0.44145   0.00000  Uiso   1.00
O1073  O     0.29554   0.75606   0.53161   0.00000  Uiso   1.00
O1074  O     0.03764   0.91292   0.47472   0.00000  Uiso   1.00
O1075  O     0.18241   0.71182   0.58840   0.00000  Uiso   1.00
O1076  O     0.14958   0.95481   0.41198   0.00000  Uiso   1.00
O1077  O     0.14489   0.71375   0.41347   0.00000  Uiso   1.00
O1078  O     0.17966   0.95328   0.58870   0.00000  Uiso   1.00
O1079  O     0.22774   0.79513   0.50000   0.00000  Uiso   1.00
O1080  O     0.22774   0.87154   0.50000   0.00000  Uiso   1.00
O1081  O     0.10559   0.79513   0.50000   0.00000  Uiso   1.00
O1082  O     0.16667   0.87155   0.42845   0.00000  Uiso   1.00
O1083  O     0.16666   0.79512   0.57155   0.00000  Uiso   1.00
O1084  O     0.16666   0.87155   0.57155   0.00000  Uiso   1.00
O1085  O     0.16667   0.79512   0.42845   0.00000  Uiso   1.00
O1086  O     0.04549   0.76298   0.54740   0.00000  Uiso   1.00
Zn1087 Zn    0.16667   0.88437   0.50000   0.00000  Uiso   1.00
Zn1088 Zn    0.16667   0.78229   0.50000   0.00000  Uiso   1.00
C1089  C     0.42011   0.83419   0.50227   0.00000  Uiso   1.00
C1090  C     0.35239   0.87365   0.48762   0.00000  Uiso   1.00
C1091  C     0.62429   0.83143   0.49643   0.00000  Uiso   1.00
C1092  C     0.37581   0.83614   0.50643   0.00000  Uiso   1.00
C1093  C     0.51007   0.69011   0.54301   0.00000  Uiso   1.00
C1094  C     0.48978   0.97657   0.45711   0.00000  Uiso   1.00
C1095  C     0.48896   0.69098   0.45742   0.00000  Uiso   1.00
C1096  C     0.50940   0.97569   0.54319   0.00000  Uiso   1.00
C1097  C     0.38515   0.77307   0.59882   0.00000  Uiso   1.00
C1098  C     0.61627   0.94014   0.45747   0.00000  Uiso   1.00
C1099  C     0.63227   0.72470   0.49209   0.00000  Uiso   1.00
C1100  C     0.57990   0.83259   0.49804   0.00000  Uiso   1.00
C1101  C     0.37443   0.93992   0.51837   0.00000  Uiso   1.00
C1102  C     0.55841   0.71943   0.59750   0.00000  Uiso   1.00
C1103  C     0.43990   0.94876   0.40336   0.00000  Uiso   1.00
C1104  C     0.43522   0.72557   0.41237   0.00000  Uiso   1.00
C1105  C     0.55527   0.94440   0.60235   0.00000  Uiso   1.00
C1106  C     0.49988   0.83334   0.40636   0.00000  Uiso   1.00
C1107  C     0.49998   0.83332   0.59363   0.00000  Uiso   1.00
C1108  C     0.49983   0.83334   0.35518   0.00000  Uiso   1.00
C1109  C     0.49986   0.83331   0.64480   0.00000  Uiso   1.00
C1110  C     0.35642   0.79828   0.52474   0.00000  Uiso   1.00
C1111  C     0.64340   0.86933   0.47793   0.00000  Uiso   1.00
C1112  C     0.64745   0.79489   0.51723   0.00000  Uiso   1.00
H1113  H     0.40357   0.80369   0.60412   0.00000  Uiso   1.00
H1114  H     0.38887   0.97177   0.50830   0.00000  Uiso   1.00
H1115  H     0.39443   0.92361   0.54838   0.00000  Uiso   1.00
H1116  H     0.34363   0.94857   0.53403   0.00000  Uiso   1.00
H1117  H     0.56580   0.75362   0.58564   0.00000  Uiso   1.00
H1118  H     0.57989   0.69504   0.57908   0.00000  Uiso   1.00
H1119  H     0.56504   0.71741   0.63865   0.00000  Uiso   1.00
H1120  H     0.41913   0.97007   0.42676   0.00000  Uiso   1.00
H1121  H     0.43262   0.91326   0.40968   0.00000  Uiso   1.00
H1122  H     0.43203   0.95648   0.36331   0.00000  Uiso   1.00
H1123  H     0.41907   0.72003   0.44834   0.00000  Uiso   1.00
H1124  H     0.35504   0.77687   0.61812   0.00000  Uiso   1.00
H1125  H     0.41933   0.70659   0.38199   0.00000  Uiso   1.00
H1126  H     0.43090   0.76148   0.40239   0.00000  Uiso   1.00
H1127  H     0.57701   0.94658   0.57083   0.00000  Uiso   1.00
H1128  H     0.55882   0.91004   0.61794   0.00000  Uiso   1.00
H1129  H     0.56482   0.96721   0.63314   0.00000  Uiso   1.00
H1130  H     0.40313   0.74485   0.61703   0.00000  Uiso   1.00
H1131  H     0.61153   0.94305   0.49850   0.00000  Uiso   1.00
H1132  H     0.58770   0.95431   0.43828   0.00000  Uiso   1.00
H1133  H     0.64241   0.96069   0.44587   0.00000  Uiso   1.00
H1134  H     0.66510   0.71301   0.48759   0.00000  Uiso   1.00
H1135  H     0.61908   0.73844   0.45582   0.00000  Uiso   1.00
H1136  H     0.61413   0.69513   0.50142   0.00000  Uiso   1.00
N1137  N     0.50000   0.95240   0.50000   0.00000  Uiso   1.00
N1138  N     0.50000   0.71427   0.50000   0.00000  Uiso   1.00
O1139  O     0.43892   0.87154   0.50000   0.00000  Uiso   1.00
O1140  O     0.62227   0.89551   0.44145   0.00000  Uiso   1.00
O1141  O     0.62887   0.75606   0.53161   0.00000  Uiso   1.00
O1142  O     0.37097   0.91292   0.47472   0.00000  Uiso   1.00
O1143  O     0.51574   0.71182   0.58840   0.00000  Uiso   1.00
O1144  O     0.48291   0.95481   0.41198   0.00000  Uiso   1.00
O1145  O     0.47822   0.71375   0.41347   0.00000  Uiso   1.00
O1146  O     0.51300   0.95328   0.58870   0.00000  Uiso   1.00
O1147  O     0.56108   0.79513   0.50000   0.00000  Uiso   1.00
O1148  O     0.56108   0.87154   0.50000   0.00000  Uiso   1.00
O1149  O     0.43892   0.79513   0.50000   0.00000  Uiso   1.00
O1150  O     0.50000   0.87155   0.42845   0.00000  Uiso   1.00
O1151  O     0.50000   0.79512   0.57155   0.00000  Uiso   1.00
O1152  O     0.50000   0.87155   0.57155   0.00000  Uiso   1.00
O1153  O     0.50000   0.79512   0.42845   0.00000  Uiso   1.00
O1154  O     0.37882   0.76298   0.54740   0.00000  Uiso   1.00
Zn1155 Zn    0.50000   0.88437   0.50000   0.00000  Uiso   1.00
Zn1156 Zn    0.50000   0.78229   0.50000   0.00000  Uiso   1.00
C1157  C     0.75344   0.83419   0.50227   0.00000  Uiso   1.00
C1158  C     0.68572   0.87365   0.48762   0.00000  Uiso   1.00
C1159  C     0.95762   0.83143   0.49643   0.00000  Uiso   1.00
C1160  C     0.70914   0.83614   0.50643   0.00000  Uiso   1.00
C1161  C     0.84340   0.69011   0.54301   0.00000  Uiso   1.00
C1162  C     0.82311   0.97657   0.45711   0.00000  Uiso   1.00
C1163  C     0.82229   0.69098   0.45742   0.00000  Uiso   1.00
C1164  C     0.84274   0.97569   0.54319   0.00000  Uiso   1.00
C1165  C     0.71848   0.77307   0.59882   0.00000  Uiso   1.00
C1166  C     0.94960   0.94014   0.45747   0.00000  Uiso   1.00
C1167  C     0.96560   0.72470   0.49209   0.00000  Uiso   1.00
C1168  C     0.91323   0.83259   0.49804   0.00000  Uiso   1.00
C1169  C     0.70776   0.93992   0.51837   0.00000  Uiso   1.00
C1170  C     0.89175   0.71943   0.59750   0.00000  Uiso   1.00
C1171  C     0.77324   0.94876   0.40336   0.00000  Uiso   1.00
C1172  C     0.76855   0.72557   0.41237   0.00000  Uiso   1.00
C1173  C     0.88860   0.94440   0.60235   0.00000  Uiso   1.00
C1174  C     0.83321   0.83334   0.40636   0.00000  Uiso   1.00
C1175  C     0.83331   0.83332   0.59363   0.00000  Uiso   1.00
C1176  C     0.83317   0.83334   0.35518   0.00000  Uiso   1.00
C1177  C     0.83320   0.83331   0.64480   0.00000  Uiso   1.00
C1178  C     0.68975   0.79828   0.52474   0.00000  Uiso   1.00
C1179  C     0.97673   0.86933   0.47793   0.00000  Uiso   1.00
C1180  C     0.98078   0.79489   0.51723   0.00000  Uiso   1.00
H1181  H     0.73691   0.80369   0.60412   0.00000  Uiso   1.00
H1182  H     0.72221   0.97177   0.50830   0.00000  Uiso   1.00
H1183  H     0.72776   0.92361   0.54838   0.00000  Uiso   1.00
H1184  H     0.67696   0.94857   0.53403   0.00000  Uiso   1.00
H1185  H     0.89914   0.75362   0.58564   0.00000  Uiso   1.00
H1186  H     0.91322   0.69504   0.57908   0.00000  Uiso   1.00
H1187  H     0.89837   0.71741   0.63865   0.00000  Uiso   1.00
H1188  H     0.75246   0.97007   0.42676   0.00000  Uiso   1.00
H1189  H     0.76596   0.91326   0.40968   0.00000  Uiso   1.00
H1190  H     0.76536   0.95648   0.36331   0.00000  Uiso   1.00
H1191  H     0.75240   0.72003   0.44834   0.00000  Uiso   1.00
H1192  H     0.68837   0.77687   0.61812   0.00000  Uiso   1.00
H1193  H     0.75267   0.70659   0.38199   0.00000  Uiso   1.00
H1194  H     0.76423   0.76148   0.40239   0.00000  Uiso   1.00
H1195  H     0.91034   0.94658   0.57083   0.00000  Uiso   1.00
H1196  H     0.89216   0.91004   0.61794   0.00000  Uiso   1.00
H1197  H     0.89816   0.96721   0.63314   0.00000  Uiso   1.00
H1198  H     0.73647   0.74485   0.61703   0.00000  Uiso   1.00
H1199  H     0.94486   0.94305   0.49850   0.00000  Uiso   1.00
H1200  H     0.92103   0.95431   0.43828   0.00000  Uiso   1.00
H1201  H     0.97574   0.96069   0.44587   0.00000  Uiso   1.00
H1202  H     0.99843   0.71301   0.48759   0.00000  Uiso   1.00
H1203  H     0.95242   0.73844   0.45582   0.00000  Uiso   1.00
H1204  H     0.94746   0.69513   0.50142   0.00000  Uiso   1.00
N1205  N     0.83333   0.95240   0.50000   0.00000  Uiso   1.00
N1206  N     0.83333   0.71427   0.50000   0.00000  Uiso   1.00
O1207  O     0.77226   0.87154   0.50000   0.00000  Uiso   1.00
O1208  O     0.95560   0.89551   0.44145   0.00000  Uiso   1.00
O1209  O     0.96221   0.75606   0.53161   0.00000  Uiso   1.00
O1210  O     0.70431   0.91292   0.47472   0.00000  Uiso   1.00
O1211  O     0.84908   0.71182   0.58840   0.00000  Uiso   1.00
O1212  O     0.81625   0.95481   0.41198   0.00000  Uiso   1.00
O1213  O     0.81155   0.71375   0.41347   0.00000  Uiso   1.00
O1214  O     0.84633   0.95328   0.58870   0.00000  Uiso   1.00
O1215  O     0.89441   0.79513   0.50000   0.00000  Uiso   1.00
O1216  O     0.89441   0.87154   0.50000   0.00000  Uiso   1.00
O1217  O     0.77226   0.79513   0.50000   0.00000  Uiso   1.00
O1218  O     0.83334   0.87155   0.42845   0.00000  Uiso   1.00
O1219  O     0.83333   0.79512   0.57155   0.00000  Uiso   1.00
O1220  O     0.83333   0.87155   0.57155   0.00000  Uiso   1.00
O1221  O     0.83334   0.79512   0.42845   0.00000  Uiso   1.00
O1222  O     0.71215   0.76298   0.54740   0.00000  Uiso   1.00
Zn1223 Zn    0.83333   0.88437   0.50000   0.00000  Uiso   1.00
Zn1224 Zn    0.83333   0.78229   0.50000   0.00000  Uiso   1.00
C1225  C     0.08678   0.16752   0.83560   0.00000  Uiso   1.00
C1226  C     0.01906   0.20698   0.82095   0.00000  Uiso   1.00
C1227  C     0.29095   0.16476   0.82976   0.00000  Uiso   1.00
C1228  C     0.04248   0.16948   0.83976   0.00000  Uiso   1.00
C1229  C     0.17674   0.02344   0.87635   0.00000  Uiso   1.00
C1230  C     0.15645   0.30990   0.79045   0.00000  Uiso   1.00
C1231  C     0.15563   0.02432   0.79075   0.00000  Uiso   1.00
C1232  C     0.17607   0.30903   0.87653   0.00000  Uiso   1.00
C1233  C     0.05182   0.10640   0.93215   0.00000  Uiso   1.00
C1234  C     0.28293   0.27347   0.79081   0.00000  Uiso   1.00
C1235  C     0.29894   0.05803   0.82542   0.00000  Uiso   1.00
C1236  C     0.24656   0.16593   0.83138   0.00000  Uiso   1.00
C1237  C     0.04110   0.27325   0.85170   0.00000  Uiso   1.00
C1238  C     0.22508   0.05276   0.93084   0.00000  Uiso   1.00
C1239  C     0.10657   0.28209   0.73670   0.00000  Uiso   1.00
C1240  C     0.10188   0.05890   0.74570   0.00000  Uiso   1.00
C1241  C     0.22194   0.27774   0.93568   0.00000  Uiso   1.00
C1242  C     0.16655   0.16668   0.73969   0.00000  Uiso   1.00
C1243  C     0.16665   0.16666   0.92697   0.00000  Uiso   1.00
C1244  C     0.16650   0.16667   0.68851   0.00000  Uiso   1.00
C1245  C     0.16653   0.16664   0.97814   0.00000  Uiso   1.00
C1246  C     0.02309   0.13162   0.85807   0.00000  Uiso   1.00
C1247  C     0.31006   0.20267   0.81126   0.00000  Uiso   1.00
C1248  C     0.31412   0.12822   0.85057   0.00000  Uiso   1.00
H1249  H     0.07024   0.13703   0.93746   0.00000  Uiso   1.00
H1250  H     0.05554   0.30510   0.84163   0.00000  Uiso   1.00
H1251  H     0.06109   0.25694   0.88171   0.00000  Uiso   1.00
H1252  H     0.01029   0.28190   0.86736   0.00000  Uiso   1.00
H1253  H     0.23247   0.08695   0.91897   0.00000  Uiso   1.00
H1254  H     0.24655   0.02838   0.91241   0.00000  Uiso   1.00
H1255  H     0.23171   0.05075   0.97198   0.00000  Uiso   1.00
H1256  H     0.08580   0.30340   0.76010   0.00000  Uiso   1.00
H1257  H     0.09929   0.24660   0.74301   0.00000  Uiso   1.00
H1258  H     0.09870   0.28982   0.69664   0.00000  Uiso   1.00
H1259  H     0.08573   0.05337   0.78167   0.00000  Uiso   1.00
H1260  H     0.02170   0.11020   0.95146   0.00000  Uiso   1.00
H1261  H     0.08600   0.03992   0.71532   0.00000  Uiso   1.00
H1262  H     0.09757   0.09481   0.73572   0.00000  Uiso   1.00
H1263  H     0.24368   0.27991   0.90417   0.00000  Uiso   1.00
H1264  H     0.22549   0.24337   0.95128   0.00000  Uiso   1.00
H1265  H     0.23149   0.30054   0.96648   0.00000  Uiso   1.00
H1266  H     0.06980   0.07818   0.95036   0.00000  Uiso   1.00
H1267  H     0.27820   0.27638   0.83183   0.00000  Uiso   1.00
H1268  H     0.25437   0.28764   0.77161   0.00000  Uiso   1.00
H1269  H     0.30908   0.29402   0.77920   0.00000  Uiso   1.00
H1270  H     0.33176   0.04634   0.82092   0.00000  Uiso   1.00
H1271  H     0.28575   0.07177   0.78915   0.00000  Uiso   1.00
H1272  H     0.28080   0.02846   0.83476   0.00000  Uiso   1.00
N1273  N     0.16667   0.28573   0.83333   0.00000  Uiso   1.00
N1274  N     0.16667   0.04760   0.83333   0.00000  Uiso   1.00
O1275  O     0.10559   0.20487   0.83333   0.00000  Uiso   1.00
O1276  O     0.28893   0.22884   0.77478   0.00000  Uiso   1.00
O1277  O     0.29554   0.08939   0.86494   0.00000  Uiso   1.00
O1278  O     0.03764   0.24626   0.80805   0.00000  Uiso   1.00
O1279  O     0.18241   0.04515   0.92174   0.00000  Uiso   1.00
O1280  O     0.14958   0.28814   0.74531   0.00000  Uiso   1.00
O1281  O     0.14489   0.04708   0.74680   0.00000  Uiso   1.00
O1282  O     0.17966   0.28662   0.92204   0.00000  Uiso   1.00
O1283  O     0.22774   0.12846   0.83334   0.00000  Uiso   1.00
O1284  O     0.22774   0.20487   0.83334   0.00000  Uiso   1.00
O1285  O     0.10559   0.12846   0.83333   0.00000  Uiso   1.00
O1286  O     0.16667   0.20488   0.76178   0.00000  Uiso   1.00
O1287  O     0.16666   0.12845   0.90489   0.00000  Uiso   1.00
O1288  O     0.16666   0.20488   0.90489   0.00000  Uiso   1.00
O1289  O     0.16667   0.12845   0.76178   0.00000  Uiso   1.00
O1290  O     0.04549   0.09631   0.88073   0.00000  Uiso   1.00
Zn1291 Zn    0.16667   0.21771   0.83333   0.00000  Uiso   1.00
Zn1292 Zn    0.16667   0.11563   0.83333   0.00000  Uiso   1.00
C1293  C     0.42011   0.16752   0.83560   0.00000  Uiso   1.00
C1294  C     0.35239   0.20698   0.82095   0.00000  Uiso   1.00
C1295  C     0.62429   0.16476   0.82976   0.00000  Uiso   1.00
C1296  C     0.37581   0.16948   0.83976   0.00000  Uiso   1.00
C1297  C     0.51007   0.02344   0.87635   0.00000  Uiso   1.00
C1298  C     0.48978   0.30990   0.79045   0.00000  Uiso   1.00
C1299  C     0.48896   0.02432   0.79075   0.00000  Uiso   1.00
C1300  C     0.50940   0.30903   0.87653   0.00000  Uiso   1.00
C1301  C     0.38515   0.10640   0.93215   0.00000  Uiso   1.00
C1302  C     0.61627   0.27347   0.79081   0.00000  Uiso   1.00
C1303  C     0.63227   0.05803   0.82542   0.00000  Uiso   1.00
C1304  C     0.57990   0.16593   0.83138   0.00000  Uiso   1.00
C1305  C     0.37443   0.27325   0.85170   0.00000  Uiso   1.00
C1306  C     0.55841   0.05276   0.93084   0.00000  Uiso   1.00
C1307  C     0.43990   0.28209   0.73670   0.00000  Uiso   1.00
C1308  C     0.43522   0.05890   0.74570   0.00000  Uiso   1.00
C1309  C     0.55527   0.27774   0.93568   0.00000  Uiso   1.00
C1310  C     0.49988   0.16668   0.73969   0.00000  Uiso   1.00
C1311  C     0.49998   0.16666   0.92697   0.00000  Uiso   1.00
C1312  C     0.49983   0.16667   0.68851   0.00000  Uiso   1.00
C1313  C     0.49986   0.16664   0.97814   0.00000  Uiso   1.00
C1314  C     0.35642   0.13162   0.85807   0.00000  Uiso   1.00
C1315  C     0.64340   0.20267   0.81126   0.00000  Uiso   1.00
C1316  C     0.64745   0.12822   0.85057   0.00000  Uiso   1.00
H1317  H     0.40357   0.13703   0.93746   0.00000  Uiso   1.00
H1318  H     0.38887   0.30510   0.84163   0.00000  Uiso   1.00
H1319  H     0.39443   0.25694   0.88171   0.00000  Uiso   1.00
H1320  H     0.34363   0.28190   0.86736   0.00000  Uiso   1.00
H1321  H     0.56580   0.08695   0.91897   0.00000  Uiso   1.00
H1322  H     0.57989   0.02838   0.91241   0.00000  Uiso   1.00
H1323  H     0.56504   0.05075   0.97198   0.00000  Uiso   1.00
H1324  H     0.41913   0.30340   0.76010   0.00000  Uiso   1.00
H1325  H     0.43262   0.24660   0.74301   0.00000  Uiso   1.00
H1326  H     0.43203   0.28982   0.69664   0.00000  Uiso   1.00
H1327  H     0.41907   0.05337   0.78167   0.00000  Uiso   1.00
H1328  H     0.35504   0.11020   0.95146   0.00000  Uiso   1.00
H1329  H     0.41933   0.03992   0.71532   0.00000  Uiso   1.00
H1330  H     0.43090   0.09481   0.73572   0.00000  Uiso   1.00
H1331  H     0.57701   0.27991   0.90417   0.00000  Uiso   1.00
H1332  H     0.55882   0.24337   0.95128   0.00000  Uiso   1.00
H1333  H     0.56482   0.30054   0.96648   0.00000  Uiso   1.00
H1334  H     0.40313   0.07818   0.95036   0.00000  Uiso   1.00
H1335  H     0.61153   0.27638   0.83183   0.00000  Uiso   1.00
H1336  H     0.58770   0.28764   0.77161   0.00000  Uiso   1.00
H1337  H     0.64241   0.29402   0.77920   0.00000  Uiso   1.00
H1338  H     0.66510   0.04634   0.82092   0.00000  Uiso   1.00
H1339  H     0.61908   0.07177   0.78915   0.00000  Uiso   1.00
H1340  H     0.61413   0.02846   0.83476   0.00000  Uiso   1.00
N1341  N     0.50000   0.28573   0.83333   0.00000  Uiso   1.00
N1342  N     0.50000   0.04760   0.83333   0.00000  Uiso   1.00
O1343  O     0.43892   0.20487   0.83333   0.00000  Uiso   1.00
O1344  O     0.62227   0.22884   0.77478   0.00000  Uiso   1.00
O1345  O     0.62887   0.08939   0.86494   0.00000  Uiso   1.00
O1346  O     0.37097   0.24626   0.80805   0.00000  Uiso   1.00
O1347  O     0.51574   0.04515   0.92174   0.00000  Uiso   1.00
O1348  O     0.48291   0.28814   0.74531   0.00000  Uiso   1.00
O1349  O     0.47822   0.04708   0.74680   0.00000  Uiso   1.00
O1350  O     0.51300   0.28662   0.92204   0.00000  Uiso   1.00
O1351  O     0.56108   0.12846   0.83334   0.00000  Uiso   1.00
O1352  O     0.56108   0.20487   0.83334   0.00000  Uiso   1.00
O1353  O     0.43892   0.12846   0.83333   0.00000  Uiso   1.00
O1354  O     0.50000   0.20488   0.76178   0.00000  Uiso   1.00
O1355  O     0.50000   0.12845   0.90489   0.00000  Uiso   1.00
O1356  O     0.50000   0.20488   0.90489   0.00000  Uiso   1.00
O1357  O     0.50000   0.12845   0.76178   0.00000  Uiso   1.00
O1358  O     0.37882   0.09631   0.88073   0.00000  Uiso   1.00
Zn1359 Zn    0.50000   0.21771   0.83333   0.00000  Uiso   1.00
Zn1360 Zn    0.50000   0.11563   0.83333   0.00000  Uiso   1.00
C1361  C     0.75344   0.16752   0.83560   0.00000  Uiso   1.00
C1362  C     0.68572   0.20698   0.82095   0.00000  Uiso   1.00
C1363  C     0.95762   0.16476   0.82976   0.00000  Uiso   1.00
C1364  C     0.70914   0.16948   0.83976   0.00000  Uiso   1.00
C1365  C     0.84340   0.02344   0.87635   0.00000  Uiso   1.00
C1366  C     0.82311   0.30990   0.79045   0.00000  Uiso   1.00
C1367  C     0.82229   0.02432   0.79075   0.00000  Uiso   1.00
C1368  C     0.84274   0.30903   0.87653   0.00000  Uiso   1.00
C1369  C     0.71848   0.10640   0.93215   0.00000  Uiso   1.00
C1370  C     0.94960   0.27347   0.79081   0.00000  Uiso   1.00
C1371  C     0.96560   0.05803   0.82542   0.00000  Uiso   1.00
C1372  C     0.91323   0.16593   0.83138   0.00000  Uiso   1.00
C1373  C     0.70776   0.27325   0.85170   0.00000  Uiso   1.00
C1374  C     0.89175   0.05276   0.93084   0.00000  Uiso   1.00
C1375  C     0.77324   0.28209   0.73670   0.00000  Uiso   1.00
C1376  C     0.76855   0.05890   0.74570   0.00000  Uiso   1.00
C1377  C     0.88860   0.27774   0.93568   0.00000  Uiso   1.00
C1378  C     0.83321   0.16668   0.73969   0.00000  Uiso   1.00
C1379  C     0.83331   0.16666   0.92697   0.00000  Uiso   1.00
C1380  C     0.83317   0.16667   0.68851   0.00000  Uiso   1.00
C1381  C     0.83320   0.16664   0.97814   0.00000  Uiso   1.00
C1382  C     0.68975   0.13162   0.85807   0.00000  Uiso   1.00
C1383  C     0.97673   0.20267   0.81126   0.00000  Uiso   1.00
C1384  C     0.98078   0.12822   0.85057   0.00000  Uiso   1.00
H1385  H     0.73691   0.13703   0.93746   0.00000  Uiso   1.00
H1386  H     0.72221   0.30510   0.84163   0.00000  Uiso   1.00
H1387  H     0.72776   0.25694   0.88171   0.00000  Uiso   1.00
H1388  H     0.67696   0.28190   0.86736   0.00000  Uiso   1.00
H1389  H     0.89914   0.08695   0.91897   0.00000  Uiso   1.00
H1390  H     0.91322   0.02838   0.91241   0.00000  Uiso   1.00
H1391  H     0.89837   0.05075   0.97198   0.00000  Uiso   1.00
H1392  H     0.75246   0.30340   0.76010   0.00000  Uiso   1.00
H1393  H     0.76596   0.24660   0.74301   0.00000  Uiso   1.00
H1394  H     0.76536   0.28982   0.69664   0.00000  Uiso   1.00
H1395  H     0.75240   0.05337   0.78167   0.00000  Uiso   1.00
H1396  H     0.68837   0.11020   0.95146   0.00000  Uiso   1.00
H1397  H     0.75267   0.03992   0.71532   0.00000  Uiso   1.00
H1398  H     0.76423   0.09481   0.73572   0.00000  Uiso   1.00
H1399  H     0.91034   0.27991   0.90417   0.00000  Uiso   1.00
H1400  H     0.89216   0.24337   0.95128   0.00000  Uiso   1.00
H1401  H     0.89816   0.30054   0.96648   0.00000  Uiso   1.00
H1402  H     0.73647   0.07818   0.95036   0.00000  Uiso   1.00
H1403  H     0.94486   0.27638   0.83183   0.00000  Uiso   1.00
H1404  H     0.92103   0.28764   0.77161   0.00000  Uiso   1.00
H1405  H     0.97574   0.29402   0.77920   0.00000  Uiso   1.00
H1406  H     0.99843   0.04634   0.82092   0.00000  Uiso   1.00
H1407  H     0.95242   0.07177   0.78915   0.00000  Uiso   1.00
H1408  H     0.94746   0.02846   0.83476   0.00000  Uiso   1.00
N1409  N     0.83333   0.28573   0.83333   0.00000  Uiso   1.00
N1410  N     0.83333   0.04760   0.83333   0.00000  Uiso   1.00
O1411  O     0.77226   0.20487   0.83333   0.00000  Uiso   1.00
O1412  O     0.95560   0.22884   0.77478   0.00000  Uiso   1.00
O1413  O     0.96221   0.08939   0.86494   0.00000  Uiso   1.00
O1414  O     0.70431   0.24626   0.80805   0.00000  Uiso   1.00
O1415  O     0.84908   0.04515   0.92174   0.00000  Uiso   1.00
O1416  O     0.81625   0.28814   0.74531   0.00000  Uiso   1.00
O1417  O     0.81155   0.04708   0.74680   0.00000  Uiso   1.00
O1418  O     0.84633   0.28662   0.92204   0.00000  Uiso   1.00
O1419  O     0.89441   0.12846   0.83334   0.00000  Uiso   1.00
O1420  O     0.89441   0.20487   0.83334   0.00000  Uiso   1.00
O1421  O     0.77226   0.12846   0.83333   0.00000  Uiso   1.00
O1422  O     0.83334   0.20488   0.76178   0.00000  Uiso   1.00
O1423  O     0.83333   0.12845   0.90489   0.00000  Uiso   1.00
O1424  O     0.83333   0.20488   0.90489   0.00000  Uiso   1.00
O1425  O     0.83334   0.12845   0.76178   0.00000  Uiso   1.00
O1426  O     0.71215   0.09631   0.88073   0.00000  Uiso   1.00
Zn1427 Zn    0.83333   0.21771   0.83333   0.00000  Uiso   1.00
Zn1428 Zn    0.83333   0.11563   0.83333   0.00000  Uiso   1.00
C1429  C     0.08678   0.50085   0.83560   0.00000  Uiso   1.00
C1430  C     0.01906   0.54031   0.82095   0.00000  Uiso   1.00
C1431  C     0.29095   0.49809   0.82976   0.00000  Uiso   1.00
C1432  C     0.04248   0.50281   0.83976   0.00000  Uiso   1.00
C1433  C     0.17674   0.35677   0.87635   0.00000  Uiso   1.00
C1434  C     0.15645   0.64324   0.79045   0.00000  Uiso   1.00
C1435  C     0.15563   0.35765   0.79075   0.00000  Uiso   1.00
C1436  C     0.17607   0.64236   0.87653   0.00000  Uiso   1.00
C1437  C     0.05182   0.43973   0.93215   0.00000  Uiso   1.00
C1438  C     0.28293   0.60681   0.79081   0.00000  Uiso   1.00
C1439  C     0.29894   0.39137   0.82542   0.00000  Uiso   1.00
C1440  C     0.24656   0.49926   0.83138   0.00000  Uiso   1.00
C1441  C     0.04110   0.60659   0.85170   0.00000  Uiso   1.00
C1442  C     0.22508   0.38609   0.93084   0.00000  Uiso   1.00
C1443  C     0.10657   0.61543   0.73670   0.00000  Uiso   1.00
C1444  C     0.10188   0.39223   0.74570   0.00000  Uiso   1.00
C1445  C     0.22194   0.61107   0.93568   0.00000  Uiso   1.00
C1446  C     0.16655   0.50001   0.73969   0.00000  Uiso   1.00
C1447  C     0.16665   0.49999   0.92697   0.00000  Uiso   1.00
C1448  C     0.16650   0.50000   0.68851   0.00000  Uiso   1.00
C1449  C     0.16653   0.49997   0.97814   0.00000  Uiso   1.00
C1450  C     0.02309   0.46495   0.85807   0.00000  Uiso   1.00
C1451  C     0.31006   0.53600   0.81126   0.00000  Uiso   1.00
C1452  C     0.31412   0.46155   0.85057   0.00000  Uiso   1.00
H1453  H     0.07024   0.47036   0.93746   0.00000  Uiso   1.00
H1454  H     0.05554   0.63844   0.84163   0.00000  Uiso   1.00
H1455  H     0.06109   0.59027   0.88171   0.00000  Uiso   1.00
H1456  H     0.01029   0.61524   0.86736   0.00000  Uiso   1.00
H1457  H     0.23247   0.42029   0.91897   0.00000  Uiso   1.00
H1458  H     0.24655   0.36171   0.91241   0.00000  Uiso   1.00
H1459  H     0.23171   0.38408   0.97198   0.00000  Uiso   1.00
H1460  H     0.08580   0.63673   0.76010   0.00000  Uiso   1.00
H1461  H     0.09929   0.57993   0.74301   0.00000  Uiso   1.00
H1462  H     0.09870   0.62315   0.69664   0.00000  Uiso   1.00
H1463  H     0.08573   0.38670   0.78167   0.00000  Uiso   1.00
H1464  H     0.02170   0.44353   0.95146   0.00000  Uiso   1.00
H1465  H     0.08600   0.37326   0.71532   0.00000  Uiso   1.00
H1466  H     0.09757   0.42815   0.73572   0.00000  Uiso   1.00
H1467  H     0.24368   0.61324   0.90417   0.00000  Uiso   1.00
H1468  H     0.22549   0.57671   0.95128   0.00000  Uiso   1.00
H1469  H     0.23149   0.63387   0.96648   0.00000  Uiso   1.00
H1470  H     0.06980   0.41152   0.95036   0.00000  Uiso   1.00
H1471  H     0.27820   0.60971   0.83183   0.00000  Uiso   1.00
H1472  H     0.25437   0.62098   0.77161   0.00000  Uiso   1.00
H1473  H     0.30908   0.62736   0.77920   0.00000  Uiso   1.00
H1474  H     0.33176   0.37967   0.82092   0.00000  Uiso   1.00
H1475  H     0.28575   0.40510   0.78915   0.00000  Uiso   1.00
H1476  H     0.28080   0.36180   0.83476   0.00000  Uiso   1.00
N1477  N     0.16667   0.61907   0.83333   0.00000  Uiso   1.00
N1478  N     0.16667   0.38093   0.83333   0.00000  Uiso   1.00
O1479  O     0.10559   0.53821   0.83333   0.00000  Uiso   1.00
O1480  O     0.28893   0.56218   0.77478   0.00000  Uiso   1.00
O1481  O     0.29554   0.42273   0.86494   0.00000  Uiso   1.00
O1482  O     0.03764   0.57959   0.80805   0.00000  Uiso   1.00
O1483  O     0.18241   0.37849   0.92174   0.00000  Uiso   1.00
O1484  O     0.14958   0.62147   0.74531   0.00000  Uiso   1.00
O1485  O     0.14489   0.38041   0.74680   0.00000  Uiso   1.00
O1486  O     0.17966   0.61995   0.92204   0.00000  Uiso   1.00
O1487  O     0.22774   0.46179   0.83334   0.00000  Uiso   1.00
O1488  O     0.22774   0.53821   0.83334   0.00000  Uiso   1.00
O1489  O     0.10559   0.46179   0.83333   0.00000  Uiso   1.00
O1490  O     0.16667   0.53821   0.76178   0.00000  Uiso   1.00
O1491  O     0.16666   0.46179   0.90489   0.00000  Uiso   1.00
O1492  O     0.16666   0.53821   0.90489   0.00000  Uiso   1.00
O1493  O     0.16667   0.46179   0.76178   0.00000  Uiso   1.00
O1494  O     0.04549   0.42965   0.88073   0.00000  Uiso   1.00
Zn1495 Zn    0.16667   0.55104   0.83333   0.00000  Uiso   1.00
Zn1496 Zn    0.16667   0.44896   0.83333   0.00000  Uiso   1.00
C1497  C     0.42011   0.50085   0.83560   0.00000  Uiso   1.00
C1498  C     0.35239   0.54031   0.82095   0.00000  Uiso   1.00
C1499  C     0.62429   0.49809   0.82976   0.00000  Uiso   1.00
C1500  C     0.37581   0.50281   0.83976   0.00000  Uiso   1.00
C1501  C     0.51007   0.35677   0.87635   0.00000  Uiso   1.00
C1502  C     0.48978   0.64324   0.79045   0.00000  Uiso   1.00
C1503  C     0.48896   0.35765   0.79075   0.00000  Uiso   1.00
C1504  C     0.50940   0.64236   0.87653   0.00000  Uiso   1.00
C1505  C     0.38515   0.43973   0.93215   0.00000  Uiso   1.00
C1506  C     0.61627   0.60681   0.79081   0.00000  Uiso   1.00
C1507  C     0.63227   0.39137   0.82542   0.00000  Uiso   1.00
C1508  C     0.57990   0.49926   0.83138   0.00000  Uiso   1.00
C1509  C     0.37443   0.60659   0.85170   0.00000  Uiso   1.00
C1510  C     0.55841   0.38609   0.93084   0.00000  Uiso   1.00
C1511  C     0.43990   0.61543   0.73670   0.00000  Uiso   1.00
C1512  C     0.43522   0.39223   0.74570   0.00000  Uiso   1.00
C1513  C     0.55527   0.61107   0.93568   0.00000  Uiso   1.00
C1514  C     0.49988   0.50001   0.73969   0.00000  Uiso   1.00
C1515  C     0.49998   0.49999   0.92697   0.00000  Uiso   1.00
C1516  C     0.49983   0.50000   0.68851   0.00000  Uiso   1.00
C1517  C     0.49986   0.49997   0.97814   0.00000  Uiso   1.00
C1518  C     0.35642   0.46495   0.85807   0.00000  Uiso   1.00
C1519  C     0.64340   0.53600   0.81126   0.00000  Uiso   1.00
C1520  C     0.64745   0.46155   0.85057   0.00000  Uiso   1.00
H1521  H     0.40357   0.47036   0.93746   0.00000  Uiso   1.00
H1522  H     0.38887   0.63844   0.84163   0.00000  Uiso   1.00
H1523  H     0.39443   0.59027   0.88171   0.00000  Uiso   1.00
H1524  H     0.34363   0.61524   0.86736   0.00000  Uiso   1.00
H1525  H     0.56580   0.42029   0.91897   0.00000  Uiso   1.00
H1526  H     0.57989   0.36171   0.91241   0.00000  Uiso   1.00
H1527  H     0.56504   0.38408   0.97198   0.00000  Uiso   1.00
H1528  H     0.41913   0.63673   0.76010   0.00000  Uiso   1.00
H1529  H     0.43262   0.57993   0.74301   0.00000  Uiso   1.00
H1530  H     0.43203   0.62315   0.69664   0.00000  Uiso   1.00
H1531  H     0.41907   0.38670   0.78167   0.00000  Uiso   1.00
H1532  H     0.35504   0.44353   0.95146   0.00000  Uiso   1.00
H1533  H     0.41933   0.37326   0.71532   0.00000  Uiso   1.00
H1534  H     0.43090   0.42815   0.73572   0.00000  Uiso   1.00
H1535  H     0.57701   0.61324   0.90417   0.00000  Uiso   1.00
H1536  H     0.55882   0.57671   0.95128   0.00000  Uiso   1.00
H1537  H     0.56482   0.63387   0.96648   0.00000  Uiso   1.00
H1538  H     0.40313   0.41152   0.95036   0.00000  Uiso   1.00
H1539  H     0.61153   0.60971   0.83183   0.00000  Uiso   1.00
H1540  H     0.58770   0.62098   0.77161   0.00000  Uiso   1.00
H1541  H     0.64241   0.62736   0.77920   0.00000  Uiso   1.00
H1542  H     0.66510   0.37967   0.82092   0.00000  Uiso   1.00
H1543  H     0.61908   0.40510   0.78915   0.00000  Uiso   1.00
H1544  H     0.61413   0.36180   0.83476   0.00000  Uiso   1.00
N1545  N     0.50000   0.61907   0.83333   0.00000  Uiso   1.00
N1546  N     0.50000   0.38093   0.83333   0.00000  Uiso   1.00
O1547  O     0.43892   0.53821   0.83333   0.00000  Uiso   1.00
O1548  O     0.62227   0.56218   0.77478   0.00000  Uiso   1.00
O1549  O     0.62887   0.42273   0.86494   0.00000  Uiso   1.00
O1550  O     0.37097   0.57959   0.80805   0.00000  Uiso   1.00
O1551  O     0.51574   0.37849   0.92174   0.00000  Uiso   1.00
O1552  O     0.48291   0.62147   0.74531   0.00000  Uiso   1.00
O1553  O     0.47822   0.38041   0.74680   0.00000  Uiso   1.00
O1554  O     0.51300   0.61995   0.92204   0.00000  Uiso   1.00
O1555  O     0.56108   0.46179   0.83334   0.00000  Uiso   1.00
O1556  O     0.56108   0.53821   0.83334   0.00000  Uiso   1.00
O1557  O     0.43892   0.46179   0.83333   0.00000  Uiso   1.00
O1558  O     0.50000   0.53821   0.76178   0.00000  Uiso   1.00
O1559  O     0.50000   0.46179   0.90489   0.00000  Uiso   1.00
O1560  O     0.50000   0.53821   0.90489   0.00000  Uiso   1.00
O1561  O     0.50000   0.46179   0.76178   0.00000  Uiso   1.00
O1562  O     0.37882   0.42965   0.88073   0.00000  Uiso   1.00
Zn1563 Zn    0.50000   0.55104   0.83333   0.00000  Uiso   1.00
Zn1564 Zn    0.50000   0.44896   0.83333   0.00000  Uiso   1.00
C1565  C     0.75344   0.50085   0.83560   0.00000  Uiso   1.00
C1566  C     0.68572   0.54031   0.82095   0.00000  Uiso   1.00
C1567  C     0.95762   0.49809   0.82976   0.00000  Uiso   1.00
C1568  C     0.70914   0.50281   0.83976   0.00000  Uiso   1.00
C1569  C     0.84340   0.35677   0.87635   0.00000  Uiso   1.00
C1570  C     0.82311   0.64324   0.79045   0.00000  Uiso   1.00
C1571  C     0.82229   0.35765   0.79075   0.00000  Uiso   1.00
C1572  C     0.84274   0.64236   0.87653   0.00000  Uiso   1.00
C1573  C     0.71848   0.43973   0.93215   0.00000  Uiso   1.00
C1574  C     0.94960   0.60681   0.79081   0.00000  Uiso   1.00
C1575  C     0.96560   0.39137   0.82542   0.00000  Uiso   1.00
C1576  C     0.91323   0.49926   0.83138   0.00000  Uiso   1.00
C1577  C     0.70776   0.60659   0.85170   0.00000  Uiso   1.00
C1578  C     0.89175   0.38609   0.93084   0.00000  Uiso   1.00
C1579  C     0.77324   0.61543   0.73670   0.00000  Uiso   1.00
C1580  C     0.76855   0.39223   0.74570   0.00000  Uiso   1.00
C1581  C     0.88860   0.61107   0.93568   0.00000  Uiso   1.00
C1582  C     0.83321   0.50001   0.73969   0.00000  Uiso   1.00
C1583  C     0.83331   0.49999   0.92697   0.00000  Uiso   1.00
C1584  C     0.83317   0.50000   0.68851   0.00000  Uiso   1.00
C1585  C     0.83320   0.49997   0.97814   0.00000  Uiso   1.00
C1586  C     0.68975   0.46495   0.85807   0.00000  Uiso   1.00
C1587  C     0.97673   0.53600   0.81126   0.00000  Uiso   1.00
C1588  C     0.98078   0.46155   0.85057   0.00000  Uiso   1.00
H1589  H     0.73691   0.47036   0.93746   0.00000  Uiso   1.00
H1590  H     0.72221   0.63844   0.84163   0.00000  Uiso   1.00
H1591  H     0.72776   0.59027   0.88171   0.00000  Uiso   1.00
H1592  H     0.67696   0.61524   0.86736   0.00000  Uiso   1.00
H1593  H     0.89914   0.42029   0.91897   0.00000  Uiso   1.00
H1594  H     0.91322   0.36171   0.91241   0.00000  Uiso   1.00
H1595  H     0.89837   0.38408   0.97198   0.00000  Uiso   1.00
H1596  H     0.75246   0.63673   0.76010   0.00000  Uiso   1.00
H1597  H     0.76596   0.57993   0.74301   0.00000  Uiso   1.00
H1598  H     0.76536   0.62315   0.69664   0.00000  Uiso   1.00
H1599  H     0.75240   0.38670   0.78167   0.00000  Uiso   1.00
H1600  H     0.68837   0.44353   0.95146   0.00000  Uiso   1.00
H1601  H     0.75267   0.37326   0.71532   0.00000  Uiso   1.00
H1602  H     0.76423   0.42815   0.73572   0.00000  Uiso   1.00
H1603  H     0.91034   0.61324   0.90417   0.00000  Uiso   1.00
H1604  H     0.89216   0.57671   0.95128   0.00000  Uiso   1.00
H1605  H     0.89816   0.63387   0.96648   0.00000  Uiso   1.00
H1606  H     0.73647   0.41152   0.95036   0.00000  Uiso   1.00
H1607  H     0.94486   0.60971   0.83183   0.00000  Uiso   1.00
H1608  H     0.92103   0.62098   0.77161   0.00000  Uiso   1.00
H1609  H     0.97574   0.62736   0.77920   0.00000  Uiso   1.00
H1610  H     0.99843   0.37967   0.82092   0.00000  Uiso   1.00
H1611  H     0.95242   0.40510   0.78915   0.00000  Uiso   1.00
H1612  H     0.94746   0.36180   0.83476   0.00000  Uiso   1.00
N1613  N     0.83333   0.61907   0.83333   0.00000  Uiso   1.00
N1614  N     0.83333   0.38093   0.83333   0.00000  Uiso   1.00
O1615  O     0.77226   0.53821   0.83333   0.00000  Uiso   1.00
O1616  O     0.95560   0.56218   0.77478   0.00000  Uiso   1.00
O1617  O     0.96221   0.42273   0.86494   0.00000  Uiso   1.00
O1618  O     0.70431   0.57959   0.80805   0.00000  Uiso   1.00
O1619  O     0.84908   0.37849   0.92174   0.00000  Uiso   1.00
O1620  O     0.81625   0.62147   0.74531   0.00000  Uiso   1.00
O1621  O     0.81155   0.38041   0.74680   0.00000  Uiso   1.00
O1622  O     0.84633   0.61995   0.92204   0.00000  Uiso   1.00
O1623  O     0.89441   0.46179   0.83334   0.00000  Uiso   1.00
O1624  O     0.89441   0.53821   0.83334   0.00000  Uiso   1.00
O1625  O     0.77226   0.46179   0.83333   0.00000  Uiso   1.00
O1626  O     0.83334   0.53821   0.76178   0.00000  Uiso   1.00
O1627  O     0.83333   0.46179   0.90489   0.00000  Uiso   1.00
O1628  O     0.83333   0.53821   0.90489   0.00000  Uiso   1.00
O1629  O     0.83334   0.46179   0.76178   0.00000  Uiso   1.00
O1630  O     0.71215   0.42965   0.88073   0.00000  Uiso   1.00
Zn1631 Zn    0.83333   0.55104   0.83333   0.00000  Uiso   1.00
Zn1632 Zn    0.83333   0.44896   0.83333   0.00000  Uiso   1.00
C1633  C     0.08678   0.83419   0.83560   0.00000  Uiso   1.00
C1634  C     0.01906   0.87365   0.82095   0.00000  Uiso   1.00
C1635  C     0.29095   0.83143   0.82976   0.00000  Uiso   1.00
C1636  C     0.04248   0.83614   0.83976   0.00000  Uiso   1.00
C1637  C     0.17674   0.69011   0.87635   0.00000  Uiso   1.00
C1638  C     0.15645   0.97657   0.79045   0.00000  Uiso   1.00
C1639  C     0.15563   0.69098   0.79075   0.00000  Uiso   1.00
C1640  C     0.17607   0.97569   0.87653   0.00000  Uiso   1.00
C1641  C     0.05182   0.77307   0.93215   0.00000  Uiso   1.00
C1642  C     0.28293   0.94014   0.79081   0.00000  Uiso   1.00
C1643  C     0.29894   0.72470   0.82542   0.00000  Uiso   1.00
C1644  C     0.24656   0.83259   0.83138   0.00000  Uiso   1.00
C1645  C     0.04110   0.93992   0.85170   0.00000  Uiso   1.00
C1646  C     0.22508   0.71943   0.93084   0.00000  Uiso   1.00
C1647  C     0.10657   0.94876   0.73670   0.00000  Uiso   1.00
C1648  C     0.10188   0.72557   0.74570   0.00000  Uiso   1.00
C1649  C     0.22194   0.94440   0.93568   0.00000  Uiso   1.00
C1650  C     0.16655   0.83334   0.73969   0.00000  Uiso   1.00
C1651  C     0.16665   0.83332   0.92697   0.00000  Uiso   1.00
C1652  C     0.16650   0.83334   0.68851   0.00000  Uiso   1.00
C1653  C     0.16653   0.83331   0.97814   0.00000  Uiso   1.00
C1654  C     0.02309   0.79828   0.85807   0.00000  Uiso   1.00
C1655  C     0.31006   0.86933   0.81126   0.00000  Uiso   1.00
C1656  C     0.31412   0.79489   0.85057   0.00000  Uiso   1.00
H1657  H     0.07024   0.80369   0.93746   0.00000  Uiso   1.00
H1658  H     0.05554   0.97177   0.84163   0.00000  Uiso   1.00
H1659  H     0.06109   0.92361   0.88171   0.00000  Uiso   1.00
H1660  H     0.01029   0.94857   0.86736   0.00000  Uiso   1.00
H1661  H     0.23247   0.75362   0.91897   0.00000  Uiso   1.00
H1662  H     0.24655   0.69504   0.91241   0.00000  Uiso   1.00
H1663  H     0.23171   0.71741   0.97198   0.00000  Uiso   1.00
H1664  H     0.08580   0.97007   0.76010   0.00000  Uiso   1.00
H1665  H     0.09929   0.91326   0.74301   0.00000  Uiso   1.00
H1666  H     0.09870   0.95648   0.69664   0.00000  Uiso   1.00
H1667  H     0.08573   0.72003   0.78167   0.00000  Uiso   1.00
H1668  H     0.02170   0.77687   0.95146   0.00000  Uiso   1.00
H1669  H     0.08600   0.70659   0.71532   0.00000  Uiso   1.00
H1670  H     0.09757   0.76148   0.73572   0.00000  Uiso   1.00
H1671  H     0.24368   0.94658   0.90417   0.00000  Uiso   1.00
H1672  H     0.22549   0.91004   0.95128   0.00000  Uiso   1.00
H1673  H     0.23149   0.96721   0.96648   0.00000  Uiso   1.00
H1674  H     0.06980   0.74485   0.95036   0.00000  Uiso   1.00
H1675  H     0.27820   0.94305   0.83183   0.00000  Uiso   1.00
H1676  H     0.25437   0.95431   0.77161   0.00000  Uiso   1.00
H1677  H     0.30908   0.96069   0.77920   0.00000  Uiso   1.00
H1678  H     0.33176   0.71301   0.82092   0.00000  Uiso   1.00
H1679  H     0.28575   0.73844   0.78915   0.00000  Uiso   1.00
H1680  H     0.28080   0.69513   0.83476   0.00000  Uiso   1.00
N1681  N     0.16667   0.95240   0.83333   0.00000  Uiso   1.00
N1682  N     0.16667   0.71427   0.83333   0.00000  Uiso   1.00
O1683  O     0.10559   0.87154   0.83333   0.00000  Uiso   1.00
O1684  O     0.28893   0.89551   0.77478   0.00000  Uiso   1.00
O1685  O     0.29554   0.75606   0.86494   0.00000  Uiso   1.00
O1686  O     0.03764   0.91292   0.80805   0.00000  Uiso   1.00
O1687  O     0.18241   0.71182   0.92174   0.00000  Uiso   1.00
O1688  O     0.14958   0.95481   0.74531   0.00000  Uiso   1.00
O1689  O     0.14489   0.71375   0.74680   0.00000  Uiso   1.00
O1690  O     0.17966   0.95328   0.92204   0.00000  Uiso   1.00
O1691  O     0.22774   0.79513   0.83334   0.00000  Uiso   1.00
O1692  O     0.22774   0.87154   0.83334   0.00000  Uiso   1.00
O1693  O     0.10559   0.79513   0.83333   0.00000  Uiso   1.00
O1694  O     0.16667   0.87155   0.76178   0.00000  Uiso   1.00
O1695  O     0.16666   0.79512   0.90489   0.00000  Uiso   1.00
O1696  O     0.16666   0.87155   0.90489   0.00000  Uiso   1.00
O1697  O     0.16667   0.79512   0.76178   0.00000  Uiso   1.00
O1698  O     0.04549   0.76298   0.88073   0.00000  Uiso   1.00
Zn1699 Zn    0.16667   0.88437   0.83333   0.00000  Uiso   1.00
Zn1700 Zn    0.16667   0.78229   0.83333   0.00000  Uiso   1.00
C1701  C     0.42011   0.83419   0.83560   0.00000  Uiso   1.00
C1702  C     0.35239   0.87365   0.82095   0.00000  Uiso   1.00
C1703  C     0.62429   0.83143   0.82976   0.00000  Uiso   1.00
C1704  C     0.37581   0.83614   0.83976   0.00000  Uiso   1.00
C1705  C     0.51007   0.69011   0.87635   0.00000  Uiso   1.00
C1706  C     0.48978   0.97657   0.79045   0.00000  Uiso   1.00
C1707  C     0.48896   0.69098   0.79075   0.00000  Uiso   1.00
C1708  C     0.50940   0.97569   0.87653   0.00000  Uiso   1.00
C1709  C     0.38515   0.77307   0.93215   0.00000  Uiso   1.00
C1710  C     0.61627   0.94014   0.79081   0.00000  Uiso   1.00
C1711  C     0.63227   0.72470   0.82542   0.00000  Uiso   1.00
C1712  C     0.57990   0.83259   0.83138   0.00000  Uiso   1.00
C1713  C     0.37443   0.93992   0.85170   0.00000  Uiso   1.00
C1714  C     0.55841   0.71943   0.93084   0.00000  Uiso   1.00
C1715  C     0.43990   0.94876   0.73670   0.00000  Uiso   1.00
C1716  C     0.43522   0.72557   0.74570   0.00000  Uiso   1.00
C1717  C     0.55527   0.94440   0.93568   0.00000  Uiso   1.00
C1718  C     0.49988   0.83334   0.73969   0.00000  Uiso   1.00
C1719  C     0.49998   0.83332   0.92697   0.00000  Uiso   1.00
C1720  C     0.49983   0.83334   0.68851   0.00000  Uiso   1.00
C1721  C     0.49986   0.83331   0.97814   0.00000  Uiso   1.00
C1722  C     0.35642   0.79828   0.85807   0.00000  Uiso   1.00
C1723  C     0.64340   0.86933   0.81126   0.00000  Uiso   1.00
C1724  C     0.64745   0.79489   0.85057   0.00000  Uiso   1.00
H1725  H     0.40357   0.80369   0.93746   0.00000  Uiso   1.00
H1726  H     0.38887   0.97177   0.84163   0.00000  Uiso   1.00
H1727  H     0.39443   0.92361   0.88171   0.00000  Uiso   1.00
H1728  H     0.34363   0.94857   0.86736   0.00000  Uiso   1.00
H1729  H     0.56580   0.75362   0.91897   0.00000  Uiso   1.00
H1730  H     0.57989   0.69504   0.91241   0.00000  Uiso   1.00
H1731  H     0.56504   0.71741   0.97198   0.00000  Uiso   1.00
H1732  H     0.41913   0.97007   0.76010   0.00000  Uiso   1.00
H1733  H     0.43262   0.91326   0.74301   0.00000  Uiso   1.00
H1734  H     0.43203   0.95648   0.69664   0.00000  Uiso   1.00
H1735  H     0.41907   0.72003   0.78167   0.00000  Uiso   1.00
H1736  H     0.35504   0.77687   0.95146   0.00000  Uiso   1.00
H1737  H     0.41933   0.70659   0.71532   0.00000  Uiso   1.00
H1738  H     0.43090   0.76148   0.73572   0.00000  Uiso   1.00
H1739  H     0.57701   0.94658   0.90417   0.00000  Uiso   1.00
H1740  H     0.55882   0.91004   0.95128   0.00000  Uiso   1.00
H1741  H     0.56482   0.96721   0.96648   0.00000  Uiso   1.00
H1742  H     0.40313   0.74485   0.95036   0.00000  Uiso   1.00
H1743  H     0.61153   0.94305   0.83183   0.00000  Uiso   1.00
H1744  H     0.58770   0.95431   0.77161   0.00000  Uiso   1.00
H1745  H     0.64241   0.96069   0.77920   0.00000  Uiso   1.00
H1746  H     0.66510   0.71301   0.82092   0.00000  Uiso   1.00
H1747  H     0.61908   0.73844   0.78915   0.00000  Uiso   1.00
H1748  H     0.61413   0.69513   0.83476   0.00000  Uiso   1.00
N1749  N     0.50000   0.95240   0.83333   0.00000  Uiso   1.00
N1750  N     0.50000   0.71427   0.83333   0.00000  Uiso   1.00
O1751  O     0.43892   0.87154   0.83333   0.00000  Uiso   1.00
O1752  O     0.62227   0.89551   0.77478   0.00000  Uiso   1.00
O1753  O     0.62887   0.75606   0.86494   0.00000  Uiso   1.00
O1754  O     0.37097   0.91292   0.80805   0.00000  Uiso   1.00
O1755  O     0.51574   0.71182   0.92174   0.00000  Uiso   1.00
O1756  O     0.48291   0.95481   0.74531   0.00000  Uiso   1.00
O1757  O     0.47822   0.71375   0.74680   0.00000  Uiso   1.00
O1758  O     0.51300   0.95328   0.92204   0.00000  Uiso   1.00
O1759  O     0.56108   0.79513   0.83334   0.00000  Uiso   1.00
O1760  O     0.56108   0.87154   0.83334   0.00000  Uiso   1.00
O1761  O     0.43892   0.79513   0.83333   0.00000  Uiso   1.00
O1762  O     0.50000   0.87155   0.76178   0.00000  Uiso   1.00
O1763  O     0.50000   0.79512   0.90489   0.00000  Uiso   1.00
O1764  O     0.50000   0.87155   0.90489   0.00000  Uiso   1.00
O1765  O     0.50000   0.79512   0.76178   0.00000  Uiso   1.00
O1766  O     0.37882   0.76298   0.88073   0.00000  Uiso   1.00
Zn1767 Zn    0.50000   0.88437   0.83333   0.00000  Uiso   1.00
Zn1768 Zn    0.50000   0.78229   0.83333   0.00000  Uiso   1.00
C1769  C     0.75344   0.83419   0.83560   0.00000  Uiso   1.00
C1770  C     0.68572   0.87365   0.82095   0.00000  Uiso   1.00
C1771  C     0.95762   0.83143   0.82976   0.00000  Uiso   1.00
C1772  C     0.70914   0.83614   0.83976   0.00000  Uiso   1.00
C1773  C     0.84340   0.69011   0.87635   0.00000  Uiso   1.00
C1774  C     0.82311   0.97657   0.79045   0.00000  Uiso   1.00
C1775  C     0.82229   0.69098   0.79075   0.00000  Uiso   1.00
C1776  C     0.84274   0.97569   0.87653   0.00000  Uiso   1.00
C1777  C     0.71848   0.77307   0.93215   0.00000  Uiso   1.00
C1778  C     0.94960   0.94014   0.79081   0.00000  Uiso   1.00
C1779  C     0.96560   0.72470   0.82542   0.00000  Uiso   1.00
C1780  C     0.91323   0.83259   0.83138   0.00000  Uiso   1.00
C1781  C     0.70776   0.93992   0.85170   0.00000  Uiso   1.00
C1782  C     0.89175   0.71943   0.93084   0.00000  Uiso   1.00
C1783  C     0.77324   0.94876   0.73670   0.00000  Uiso   1.00
C1784  C     0.76855   0.72557   0.74570   0.00000  Uiso   1.00
C1785  C     0.88860   0.94440   0.93568   0.00000  Uiso   1.00
C1786  C     0.83321   0.83334   0.73969   0.00000  Uiso   1.00
C1787  C     0.83331   0.83332   0.92697   0.00000  Uiso   1.00
C1788  C     0.83317   0.83334   0.68851   0.00000  Uiso   1.00
C1789  C     0.83320   0.83331   0.97814   0.00000  Uiso   1.00
C1790  C     0.68975   0.79828   0.85807   0.00000  Uiso   1.00
C1791  C     0.97673   0.86933   0.81126   0.00000  Uiso   1.00
C1792  C     0.98078   0.79489   0.85057   0.00000  Uiso   1.00
H1793  H     0.73691   0.80369   0.93746   0.00000  Uiso   1.00
H1794  H     0.72221   0.97177   0.84163   0.00000  Uiso   1.00
H1795  H     0.72776   0.92361   0.88171   0.00000  Uiso   1.00
H1796  H     0.67696   0.94857   0.86736   0.00000  Uiso   1.00
H1797  H     0.89914   0.75362   0.91897   0.00000  Uiso   1.00
H1798  H     0.91322   0.69504   0.91241   0.00000  Uiso   1.00
H1799  H     0.89837   0.71741   0.97198   0.00000  Uiso   1.00
H1800  H     0.75246   0.97007   0.76010   0.00000  Uiso   1.00
H1801  H     0.76596   0.91326   0.74301   0.00000  Uiso   1.00
H1802  H     0.76536   0.95648   0.69664   0.00000  Uiso   1.00
H1803  H     0.75240   0.72003   0.78167   0.00000  Uiso   1.00
H1804  H     0.68837   0.77687   0.95146   0.00000  Uiso   1.00
H1805  H     0.75267   0.70659   0.71532   0.00000  Uiso   1.00
H1806  H     0.76423   0.76148   0.73572   0.00000  Uiso   1.00
H1807  H     0.91034   0.94658   0.90417   0.00000  Uiso   1.00
H1808  H     0.89216   0.91004   0.95128   0.00000  Uiso   1.00
H1809  H     0.89816   0.96721   0.96648   0.00000  Uiso   1.00
H1810  H     0.73647   0.74485   0.95036   0.00000  Uiso   1.00
H1811  H     0.94486   0.94305   0.83183   0.00000  Uiso   1.00
H1812  H     0.92103   0.95431   0.77161   0.00000  Uiso   1.00
H1813  H     0.97574   0.96069   0.77920   0.00000  Uiso   1.00
H1814  H     0.99843   0.71301   0.82092   0.00000  Uiso   1.00
H1815  H     0.95242   0.73844   0.78915   0.00000  Uiso   1.00
H1816  H     0.94746   0.69513   0.83476   0.00000  Uiso   1.00
N1817  N     0.83333   0.95240   0.83333   0.00000  Uiso   1.00
N1818  N     0.83333   0.71427   0.83333   0.00000  Uiso   1.00
O1819  O     0.77226   0.87154   0.83333   0.00000  Uiso   1.00
O1820  O     0.95560   0.89551   0.77478   0.00000  Uiso   1.00
O1821  O     0.96221   0.75606   0.86494   0.00000  Uiso   1.00
O1822  O     0.70431   0.91292   0.80805   0.00000  Uiso   1.00
O1823  O     0.84908   0.71182   0.92174   0.00000  Uiso   1.00
O1824  O     0.81625   0.95481   0.74531   0.00000  Uiso   1.00
O1825  O     0.81155   0.71375   0.74680   0.00000  Uiso   1.00
O1826  O     0.84633   0.95328   0.92204   0.00000  Uiso   1.00
O1827  O     0.89441   0.79513   0.83334   0.00000  Uiso   1.00
O1828  O     0.89441   0.87154   0.83334   0.00000  Uiso   1.00
O1829  O     0.77226   0.79513   0.83333   0.00000  Uiso   1.00
O1830  O     0.83334   0.87155   0.76178   0.00000  Uiso   1.00
O1831  O     0.83333   0.79512   0.90489   0.00000  Uiso   1.00
O1832  O     0.83333   0.87155   0.90489   0.00000  Uiso   1.00
O1833  O     0.83334   0.79512   0.76178   0.00000  Uiso   1.00
O1834  O     0.71215   0.76298   0.88073   0.00000  Uiso   1.00
Zn1835 Zn    0.83333   0.88437   0.83333   0.00000  Uiso   1.00
Zn1836 Zn    0.83333   0.78229   0.83333   0.00000  Uiso   1.00
loop_
_geom_bond_atom_site_label_1
_geom_bond_atom_site_label_2
_geom_bond_distance
_geom_bond_site_symmetry_2
_ccdc_geom_bond_type
C1     C4      1.433   .     S
C1     O51     1.289   .     A
C1     O61     1.300   .     A
C2     C4      1.413   .     A
C2     O54     1.382   .     S
C2     C159    1.389   1_455 S
C3     C23     1.402   .     A
C3     C24     1.405   .     A
C3     C12     1.430   .     S
C4     C22     1.404   .     A
C5     O55     1.380   .     S
C5     N50     1.377   .     A
C5     C416    1.427   1_545 S
C6     N49     1.375   .     A
C6     O56     1.380   .     S
C6     C211    1.426   .     S
C7     O57     1.381   .     S
C7     N50     1.372   .     A
C7     C414    1.426   1_545 S
C8     O58     1.382   .     S
C8     N49     1.374   .     A
C8     C209    1.427   .     S
C9     H36     1.113   .     S
C9     H25     1.113   .     S
C9     H42     1.109   .     S
C9     O66     1.410   .     S
C10    H43     1.109   .     S
C10    O52     1.409   .     S
C10    H45     1.109   .     S
C10    H44     1.109   .     S
C11    H47     1.114   .     S
C11    O53     1.412   .     S
C11    H48     1.107   .     S
C11    H46     1.112   .     S
C12    O60     1.296   .     A
C12    O59     1.292   .     A
C13    H28     1.110   .     S
C13    H26     1.109   .     S
C13    O54     1.417   .     S
C13    H27     1.112   .     S
C14    H31     1.109   .     S
C14    O55     1.413   .     S
C14    H30     1.112   .     S
C14    H29     1.105   .     S
C15    H34     1.109   .     S
C15    O56     1.414   .     S
C15    H32     1.113   .     S
C15    H33     1.107   .     S
C16    H37     1.109   .     S
C16    H35     1.117   .     S
C16    O57     1.417   .     S
C16    H38     1.109   .     S
C17    O58     1.414   .     S
C17    H41     1.108   .     S
C17    H39     1.111   .     S
C17    H40     1.108   .     S
C18    O65     1.284   .     A
C18    C20     1.361   .     S
C18    O62     1.284   .     A
C19    C21     1.361   .     S
C19    O64     1.284   .     A
C19    O63     1.284   .     A
C20    C1245   1.162   1_554 S
C21    C632    1.162   .     S
C22    O66     1.385   .     S
C22    C160    1.377   1_455 S
C23    O52     1.392   .     S
C23    C70     1.389   .     S
C24    O53     1.381   .     S
C24    C90     1.377   .     S
N49    Zn67    2.032   .     S
N50    Zn68    2.032   .     S
O51    Zn67    2.016   .     S
O59    Zn68    2.016   .     S
O60    Zn67    1.991   .     S
O61    Zn68    1.991   .     S
O62    Zn67    1.941   .     S
O63    Zn68    1.941   .     S
O64    Zn67    1.940   .     S
O65    Zn68    1.940   .     S
C69    C72     1.433   .     S
C69    O119    1.289   .     A
C69    O129    1.300   .     A
C70    C72     1.413   .     A
C70    O122    1.382   .     S
C71    C91     1.402   .     A
C71    C92     1.405   .     A
C71    C80     1.430   .     S
C72    C90     1.404   .     A
C73    O123    1.380   .     S
C73    N118    1.377   .     A
C73    C484    1.427   1_545 S
C74    N117    1.375   .     A
C74    O124    1.380   .     S
C74    C279    1.426   .     S
C75    O125    1.381   .     S
C75    N118    1.372   .     A
C75    C482    1.426   1_545 S
C76    O126    1.382   .     S
C76    N117    1.374   .     A
C76    C277    1.427   .     S
C77    H104    1.113   .     S
C77    H93     1.113   .     S
C77    H110    1.109   .     S
C77    O134    1.410   .     S
C78    H111    1.109   .     S
C78    O120    1.409   .     S
C78    H113    1.109   .     S
C78    H112    1.109   .     S
C79    H115    1.114   .     S
C79    O121    1.412   .     S
C79    H116    1.107   .     S
C79    H114    1.112   .     S
C80    O128    1.296   .     A
C80    O127    1.292   .     A
C81    H96     1.110   .     S
C81    H94     1.109   .     S
C81    O122    1.417   .     S
C81    H95     1.112   .     S
C82    H99     1.109   .     S
C82    O123    1.413   .     S
C82    H98     1.112   .     S
C82    H97     1.105   .     S
C83    H102    1.109   .     S
C83    O124    1.414   .     S
C83    H100    1.113   .     S
C83    H101    1.107   .     S
C84    H105    1.109   .     S
C84    H103    1.117   .     S
C84    O125    1.417   .     S
C84    H106    1.109   .     S
C85    O126    1.414   .     S
C85    H109    1.108   .     S
C85    H107    1.111   .     S
C85    H108    1.108   .     S
C86    O133    1.284   .     A
C86    C88     1.361   .     S
C86    O130    1.284   .     A
C87    C89     1.361   .     S
C87    O132    1.284   .     A
C87    O131    1.284   .     A
C88    C1313   1.162   1_554 S
C89    C700    1.162   .     S
C90    O134    1.385   .     S
C91    O120    1.392   .     S
C91    C138    1.389   .     S
C92    O121    1.381   .     S
C92    C158    1.377   .     S
N117   Zn135   2.032   .     S
N118   Zn136   2.032   .     S
O119   Zn135   2.016   .     S
O127   Zn136   2.016   .     S
O128   Zn135   1.991   .     S
O129   Zn136   1.991   .     S
O130   Zn135   1.941   .     S
O131   Zn136   1.941   .     S
O132   Zn135   1.940   .     S
O133   Zn136   1.940   .     S
C137   C140    1.433   .     S
C137   O187    1.289   .     A
C137   O197    1.300   .     A
C138   C140    1.413   .     A
C138   O190    1.382   .     S
C139   C159    1.402   .     A
C139   C160    1.405   .     A
C139   C148    1.430   .     S
C140   C158    1.404   .     A
C141   O191    1.380   .     S
C141   N186    1.377   .     A
C141   C552    1.427   1_545 S
C142   N185    1.375   .     A
C142   O192    1.380   .     S
C142   C347    1.426   .     S
C143   O193    1.381   .     S
C143   N186    1.372   .     A
C143   C550    1.426   1_545 S
C144   O194    1.382   .     S
C144   N185    1.374   .     A
C144   C345    1.427   .     S
C145   H172    1.113   .     S
C145   H161    1.113   .     S
C145   H178    1.109   .     S
C145   O202    1.410   .     S
C146   H179    1.109   .     S
C146   O188    1.409   .     S
C146   H181    1.109   .     S
C146   H180    1.109   .     S
C147   H183    1.114   .     S
C147   O189    1.412   .     S
C147   H184    1.107   .     S
C147   H182    1.112   .     S
C148   O196    1.296   .     A
C148   O195    1.292   .     A
C149   H164    1.110   .     S
C149   H162    1.109   .     S
C149   O190    1.417   .     S
C149   H163    1.112   .     S
C150   H167    1.109   .     S
C150   O191    1.413   .     S
C150   H166    1.112   .     S
C150   H165    1.105   .     S
C151   H170    1.109   .     S
C151   O192    1.414   .     S
C151   H168    1.113   .     S
C151   H169    1.107   .     S
C152   H173    1.109   .     S
C152   H171    1.117   .     S
C152   O193    1.417   .     S
C152   H174    1.109   .     S
C153   O194    1.414   .     S
C153   H177    1.108   .     S
C153   H175    1.111   .     S
C153   H176    1.108   .     S
C154   O201    1.284   .     A
C154   C156    1.361   .     S
C154   O198    1.284   .     A
C155   C157    1.361   .     S
C155   O200    1.284   .     A
C155   O199    1.284   .     A
C156   C1381   1.162   1_554 S
C157   C768    1.162   .     S
C158   O202    1.385   .     S
C159   O188    1.392   .     S
C159   C2      1.389   1_655 S
C160   O189    1.381   .     S
C160   C22     1.377   1_655 S
N185   Zn203   2.032   .     S
N186   Zn204   2.032   .     S
O187   Zn203   2.016   .     S
O195   Zn204   2.016   .     S
O196   Zn203   1.991   .     S
O197   Zn204   1.991   .     S
O198   Zn203   1.941   .     S
O199   Zn204   1.941   .     S
O200   Zn203   1.940   .     S
O201   Zn204   1.940   .     S
C205   C208    1.433   .     S
C205   O255    1.289   .     A
C205   O265    1.300   .     A
C206   C208    1.413   .     A
C206   O258    1.382   .     S
C206   C363    1.389   1_455 S
C207   C227    1.402   .     A
C207   C228    1.405   .     A
C207   C216    1.430   .     S
C208   C226    1.404   .     A
C209   O259    1.380   .     S
C209   N254    1.377   .     A
C210   N253    1.375   .     A
C210   O260    1.380   .     S
C210   C415    1.426   .     S
C211   O261    1.381   .     S
C211   N254    1.372   .     A
C212   O262    1.382   .     S
C212   N253    1.374   .     A
C212   C413    1.427   .     S
C213   H240    1.113   .     S
C213   H229    1.113   .     S
C213   H246    1.109   .     S
C213   O270    1.410   .     S
C214   H247    1.109   .     S
C214   O256    1.409   .     S
C214   H249    1.109   .     S
C214   H248    1.109   .     S
C215   H251    1.114   .     S
C215   O257    1.412   .     S
C215   H252    1.107   .     S
C215   H250    1.112   .     S
C216   O264    1.296   .     A
C216   O263    1.292   .     A
C217   H232    1.110   .     S
C217   H230    1.109   .     S
C217   O258    1.417   .     S
C217   H231    1.112   .     S
C218   H235    1.109   .     S
C218   O259    1.413   .     S
C218   H234    1.112   .     S
C218   H233    1.105   .     S
C219   H238    1.109   .     S
C219   O260    1.414   .     S
C219   H236    1.113   .     S
C219   H237    1.107   .     S
C220   H241    1.109   .     S
C220   H239    1.117   .     S
C220   O261    1.417   .     S
C220   H242    1.109   .     S
C221   O262    1.414   .     S
C221   H245    1.108   .     S
C221   H243    1.111   .     S
C221   H244    1.108   .     S
C222   O269    1.284   .     A
C222   C224    1.361   .     S
C222   O266    1.284   .     A
C223   C225    1.361   .     S
C223   O268    1.284   .     A
C223   O267    1.284   .     A
C224   C1449   1.162   1_554 S
C225   C836    1.162   .     S
C226   O270    1.385   .     S
C226   C364    1.377   1_455 S
C227   O256    1.392   .     S
C227   C274    1.389   .     S
C228   O257    1.381   .     S
C228   C294    1.377   .     S
N253   Zn271   2.032   .     S
N254   Zn272   2.032   .     S
O255   Zn271   2.016   .     S
O263   Zn272   2.016   .     S
O264   Zn271   1.991   .     S
O265   Zn272   1.991   .     S
O266   Zn271   1.941   .     S
O267   Zn272   1.941   .     S
O268   Zn271   1.940   .     S
O269   Zn272   1.940   .     S
C273   C276    1.433   .     S
C273   O323    1.289   .     A
C273   O333    1.300   .     A
C274   C276    1.413   .     A
C274   O326    1.382   .     S
C275   C295    1.402   .     A
C275   C296    1.405   .     A
C275   C284    1.430   .     S
C276   C294    1.404   .     A
C277   O327    1.380   .     S
C277   N322    1.377   .     A
C278   N321    1.375   .     A
C278   O328    1.380   .     S
C278   C483    1.426   .     S
C279   O329    1.381   .     S
C279   N322    1.372   .     A
C280   O330    1.382   .     S
C280   N321    1.374   .     A
C280   C481    1.427   .     S
C281   H308    1.113   .     S
C281   H297    1.113   .     S
C281   H314    1.109   .     S
C281   O338    1.410   .     S
C282   H315    1.109   .     S
C282   O324    1.409   .     S
C282   H317    1.109   .     S
C282   H316    1.109   .     S
C283   H319    1.114   .     S
C283   O325    1.412   .     S
C283   H320    1.107   .     S
C283   H318    1.112   .     S
C284   O332    1.296   .     A
C284   O331    1.292   .     A
C285   H300    1.110   .     S
C285   H298    1.109   .     S
C285   O326    1.417   .     S
C285   H299    1.112   .     S
C286   H303    1.109   .     S
C286   O327    1.413   .     S
C286   H302    1.112   .     S
C286   H301    1.105   .     S
C287   H306    1.109   .     S
C287   O328    1.414   .     S
C287   H304    1.113   .     S
C287   H305    1.107   .     S
C288   H309    1.109   .     S
C288   H307    1.117   .     S
C288   O329    1.417   .     S
C288   H310    1.109   .     S
C289   O330    1.414   .     S
C289   H313    1.108   .     S
C289   H311    1.111   .     S
C289   H312    1.108   .     S
C290   O337    1.284   .     A
C290   C292    1.361   .     S
C290   O334    1.284   .     A
C291   C293    1.361   .     S
C291   O336    1.284   .     A
C291   O335    1.284   .     A
C292   C1517   1.162   1_554 S
C293   C904    1.162   .     S
C294   O338    1.385   .     S
C295   O324    1.392   .     S
C295   C342    1.389   .     S
C296   O325    1.381   .     S
C296   C362    1.377   .     S
N321   Zn339   2.032   .     S
N322   Zn340   2.032   .     S
O323   Zn339   2.016   .     S
O331   Zn340   2.016   .     S
O332   Zn339   1.991   .     S
O333   Zn340   1.991   .     S
O334   Zn339   1.941   .     S
O335   Zn340   1.941   .     S
O336   Zn339   1.940   .     S
O337   Zn340   1.940   .     S
C341   C344    1.433   .     S
C341   O391    1.289   .     A
C341   O401    1.300   .     A
C342   C344    1.413   .     A
C342   O394    1.382   .     S
C343   C363    1.402   .     A
C343   C364    1.405   .     A
C343   C352    1.430   .     S
C344   C362    1.404   .     A
C345   O395    1.380   .     S
C345   N390    1.377   .     A
C346   N389    1.375   .     A
C346   O396    1.380   .     S
C346   C551    1.426   .     S
C347   O397    1.381   .     S
C347   N390    1.372   .     A
C348   O398    1.382   .     S
C348   N389    1.374   .     A
C348   C549    1.427   .     S
C349   H376    1.113   .     S
C349   H365    1.113   .     S
C349   H382    1.109   .     S
C349   O406    1.410   .     S
C350   H383    1.109   .     S
C350   O392    1.409   .     S
C350   H385    1.109   .     S
C350   H384    1.109   .     S
C351   H387    1.114   .     S
C351   O393    1.412   .     S
C351   H388    1.107   .     S
C351   H386    1.112   .     S
C352   O400    1.296   .     A
C352   O399    1.292   .     A
C353   H368    1.110   .     S
C353   H366    1.109   .     S
C353   O394    1.417   .     S
C353   H367    1.112   .     S
C354   H371    1.109   .     S
C354   O395    1.413   .     S
C354   H370    1.112   .     S
C354   H369    1.105   .     S
C355   H374    1.109   .     S
C355   O396    1.414   .     S
C355   H372    1.113   .     S
C355   H373    1.107   .     S
C356   H377    1.109   .     S
C356   H375    1.117   .     S
C356   O397    1.417   .     S
C356   H378    1.109   .     S
C357   O398    1.414   .     S
C357   H381    1.108   .     S
C357   H379    1.111   .     S
C357   H380    1.108   .     S
C358   O405    1.284   .     A
C358   C360    1.361   .     S
C358   O402    1.284   .     A
C359   C361    1.361   .     S
C359   O404    1.284   .     A
C359   O403    1.284   .     A
C360   C1585   1.162   1_554 S
C361   C972    1.162   .     S
C362   O406    1.385   .     S
C363   O392    1.392   .     S
C363   C206    1.389   1_655 S
C364   O393    1.381   .     S
C364   C226    1.377   1_655 S
N389   Zn407   2.032   .     S
N390   Zn408   2.032   .     S
O391   Zn407   2.016   .     S
O399   Zn408   2.016   .     S
O400   Zn407   1.991   .     S
O401   Zn408   1.991   .     S
O402   Zn407   1.941   .     S
O403   Zn408   1.941   .     S
O404   Zn407   1.940   .     S
O405   Zn408   1.940   .     S
C409   C412    1.433   .     S
C409   O459    1.289   .     A
C409   O469    1.300   .     A
C410   C412    1.413   .     A
C410   O462    1.382   .     S
C410   C567    1.389   1_455 S
C411   C431    1.402   .     A
C411   C432    1.405   .     A
C411   C420    1.430   .     S
C412   C430    1.404   .     A
C413   O463    1.380   .     S
C413   N458    1.377   .     A
C414   N457    1.375   .     A
C414   O464    1.380   .     S
C414   C7      1.426   1_565 S
C415   O465    1.381   .     S
C415   N458    1.372   .     A
C416   O466    1.382   .     S
C416   N457    1.374   .     A
C416   C5      1.427   1_565 S
C417   H444    1.113   .     S
C417   H433    1.113   .     S
C417   H450    1.109   .     S
C417   O474    1.410   .     S
C418   H451    1.109   .     S
C418   O460    1.409   .     S
C418   H453    1.109   .     S
C418   H452    1.109   .     S
C419   H455    1.114   .     S
C419   O461    1.412   .     S
C419   H456    1.107   .     S
C419   H454    1.112   .     S
C420   O468    1.296   .     A
C420   O467    1.292   .     A
C421   H436    1.110   .     S
C421   H434    1.109   .     S
C421   O462    1.417   .     S
C421   H435    1.112   .     S
C422   H439    1.109   .     S
C422   O463    1.413   .     S
C422   H438    1.112   .     S
C422   H437    1.105   .     S
C423   H442    1.109   .     S
C423   O464    1.414   .     S
C423   H440    1.113   .     S
C423   H441    1.107   .     S
C424   H445    1.109   .     S
C424   H443    1.117   .     S
C424   O465    1.417   .     S
C424   H446    1.109   .     S
C425   O466    1.414   .     S
C425   H449    1.108   .     S
C425   H447    1.111   .     S
C425   H448    1.108   .     S
C426   O473    1.284   .     A
C426   C428    1.361   .     S
C426   O470    1.284   .     A
C427   C429    1.361   .     S
C427   O472    1.284   .     A
C427   O471    1.284   .     A
C428   C1653   1.162   1_554 S
C429   C1040   1.162   .     S
C430   O474    1.385   .     S
C430   C568    1.377   1_455 S
C431   O460    1.392   .     S
C431   C478    1.389   .     S
C432   O461    1.381   .     S
C432   C498    1.377   .     S
N457   Zn475   2.032   .     S
N458   Zn476   2.032   .     S
O459   Zn475   2.016   .     S
O467   Zn476   2.016   .     S
O468   Zn475   1.991   .     S
O469   Zn476   1.991   .     S
O470   Zn475   1.941   .     S
O471   Zn476   1.941   .     S
O472   Zn475   1.940   .     S
O473   Zn476   1.940   .     S
C477   C480    1.433   .     S
C477   O527    1.289   .     A
C477   O537    1.300   .     A
C478   C480    1.413   .     A
C478   O530    1.382   .     S
C479   C499    1.402   .     A
C479   C500    1.405   .     A
C479   C488    1.430   .     S
C480   C498    1.404   .     A
C481   O531    1.380   .     S
C481   N526    1.377   .     A
C482   N525    1.375   .     A
C482   O532    1.380   .     S
C482   C75     1.426   1_565 S
C483   O533    1.381   .     S
C483   N526    1.372   .     A
C484   O534    1.382   .     S
C484   N525    1.374   .     A
C484   C73     1.427   1_565 S
C485   H512    1.113   .     S
C485   H501    1.113   .     S
C485   H518    1.109   .     S
C485   O542    1.410   .     S
C486   H519    1.109   .     S
C486   O528    1.409   .     S
C486   H521    1.109   .     S
C486   H520    1.109   .     S
C487   H523    1.114   .     S
C487   O529    1.412   .     S
C487   H524    1.107   .     S
C487   H522    1.112   .     S
C488   O536    1.296   .     A
C488   O535    1.292   .     A
C489   H504    1.110   .     S
C489   H502    1.109   .     S
C489   O530    1.417   .     S
C489   H503    1.112   .     S
C490   H507    1.109   .     S
C490   O531    1.413   .     S
C490   H506    1.112   .     S
C490   H505    1.105   .     S
C491   H510    1.109   .     S
C491   O532    1.414   .     S
C491   H508    1.113   .     S
C491   H509    1.107   .     S
C492   H513    1.109   .     S
C492   H511    1.117   .     S
C492   O533    1.417   .     S
C492   H514    1.109   .     S
C493   O534    1.414   .     S
C493   H517    1.108   .     S
C493   H515    1.111   .     S
C493   H516    1.108   .     S
C494   O541    1.284   .     A
C494   C496    1.361   .     S
C494   O538    1.284   .     A
C495   C497    1.361   .     S
C495   O540    1.284   .     A
C495   O539    1.284   .     A
C496   C1721   1.162   1_554 S
C497   C1108   1.162   .     S
C498   O542    1.385   .     S
C499   O528    1.392   .     S
C499   C546    1.389   .     S
C500   O529    1.381   .     S
C500   C566    1.377   .     S
N525   Zn543   2.032   .     S
N526   Zn544   2.032   .     S
O527   Zn543   2.016   .     S
O535   Zn544   2.016   .     S
O536   Zn543   1.991   .     S
O537   Zn544   1.991   .     S
O538   Zn543   1.941   .     S
O539   Zn544   1.941   .     S
O540   Zn543   1.940   .     S
O541   Zn544   1.940   .     S
C545   C548    1.433   .     S
C545   O595    1.289   .     A
C545   O605    1.300   .     A
C546   C548    1.413   .     A
C546   O598    1.382   .     S
C547   C567    1.402   .     A
C547   C568    1.405   .     A
C547   C556    1.430   .     S
C548   C566    1.404   .     A
C549   O599    1.380   .     S
C549   N594    1.377   .     A
C550   N593    1.375   .     A
C550   O600    1.380   .     S
C550   C143    1.426   1_565 S
C551   O601    1.381   .     S
C551   N594    1.372   .     A
C552   O602    1.382   .     S
C552   N593    1.374   .     A
C552   C141    1.427   1_565 S
C553   H580    1.113   .     S
C553   H569    1.113   .     S
C553   H586    1.109   .     S
C553   O610    1.410   .     S
C554   H587    1.109   .     S
C554   O596    1.409   .     S
C554   H589    1.109   .     S
C554   H588    1.109   .     S
C555   H591    1.114   .     S
C555   O597    1.412   .     S
C555   H592    1.107   .     S
C555   H590    1.112   .     S
C556   O604    1.296   .     A
C556   O603    1.292   .     A
C557   H572    1.110   .     S
C557   H570    1.109   .     S
C557   O598    1.417   .     S
C557   H571    1.112   .     S
C558   H575    1.109   .     S
C558   O599    1.413   .     S
C558   H574    1.112   .     S
C558   H573    1.105   .     S
C559   H578    1.109   .     S
C559   O600    1.414   .     S
C559   H576    1.113   .     S
C559   H577    1.107   .     S
C560   H581    1.109   .     S
C560   H579    1.117   .     S
C560   O601    1.417   .     S
C560   H582    1.109   .     S
C561   O602    1.414   .     S
C561   H585    1.108   .     S
C561   H583    1.111   .     S
C561   H584    1.108   .     S
C562   O609    1.284   .     A
C562   C564    1.361   .     S
C562   O606    1.284   .     A
C563   C565    1.361   .     S
C563   O608    1.284   .     A
C563   O607    1.284   .     A
C564   C1789   1.162   1_554 S
C565   C1176   1.162   .     S
C566   O610    1.385   .     S
C567   O596    1.392   .     S
C567   C410    1.389   1_655 S
C568   O597    1.381   .     S
C568   C430    1.377   1_655 S
N593   Zn611   2.032   .     S
N594   Zn612   2.032   .     S
O595   Zn611   2.016   .     S
O603   Zn612   2.016   .     S
O604   Zn611   1.991   .     S
O605   Zn612   1.991   .     S
O606   Zn611   1.941   .     S
O607   Zn612   1.941   .     S
O608   Zn611   1.940   .     S
O609   Zn612   1.940   .     S
C613   C616    1.433   .     S
C613   O663    1.289   .     A
C613   O673    1.300   .     A
C614   C616    1.413   .     A
C614   O666    1.382   .     S
C614   C771    1.389   1_455 S
C615   C635    1.402   .     A
C615   C636    1.405   .     A
C615   C624    1.430   .     S
C616   C634    1.404   .     A
C617   O667    1.380   .     S
C617   N662    1.377   .     A
C617   C1028   1.427   1_545 S
C618   N661    1.375   .     A
C618   O668    1.380   .     S
C618   C823    1.426   .     S
C619   O669    1.381   .     S
C619   N662    1.372   .     A
C619   C1026   1.426   1_545 S
C620   O670    1.382   .     S
C620   N661    1.374   .     A
C620   C821    1.427   .     S
C621   H648    1.113   .     S
C621   H637    1.113   .     S
C621   H654    1.109   .     S
C621   O678    1.410   .     S
C622   H655    1.109   .     S
C622   O664    1.409   .     S
C622   H657    1.109   .     S
C622   H656    1.109   .     S
C623   H659    1.114   .     S
C623   O665    1.412   .     S
C623   H660    1.107   .     S
C623   H658    1.112   .     S
C624   O672    1.296   .     A
C624   O671    1.292   .     A
C625   H640    1.110   .     S
C625   H638    1.109   .     S
C625   O666    1.417   .     S
C625   H639    1.112   .     S
C626   H643    1.109   .     S
C626   O667    1.413   .     S
C626   H642    1.112   .     S
C626   H641    1.105   .     S
C627   H646    1.109   .     S
C627   O668    1.414   .     S
C627   H644    1.113   .     S
C627   H645    1.107   .     S
C628   H649    1.109   .     S
C628   H647    1.117   .     S
C628   O669    1.417   .     S
C628   H650    1.109   .     S
C629   O670    1.414   .     S
C629   H653    1.108   .     S
C629   H651    1.111   .     S
C629   H652    1.108   .     S
C630   O677    1.284   .     A
C630   C632    1.361   .     S
C630   O674    1.284   .     A
C631   C633    1.361   .     S
C631   O676    1.284   .     A
C631   O675    1.284   .     A
C633   C1244   1.162   .     S
C634   O678    1.385   .     S
C634   C772    1.377   1_455 S
C635   O664    1.392   .     S
C635   C682    1.389   .     S
C636   O665    1.381   .     S
C636   C702    1.377   .     S
N661   Zn679   2.032   .     S
N662   Zn680   2.032   .     S
O663   Zn679   2.016   .     S
O671   Zn680   2.016   .     S
O672   Zn679   1.991   .     S
O673   Zn680   1.991   .     S
O674   Zn679   1.941   .     S
O675   Zn680   1.941   .     S
O676   Zn679   1.940   .     S
O677   Zn680   1.940   .     S
C681   C684    1.433   .     S
C681   O731    1.289   .     A
C681   O741    1.300   .     A
C682   C684    1.413   .     A
C682   O734    1.382   .     S
C683   C703    1.402   .     A
C683   C704    1.405   .     A
C683   C692    1.430   .     S
C684   C702    1.404   .     A
C685   O735    1.380   .     S
C685   N730    1.377   .     A
C685   C1096   1.427   1_545 S
C686   N729    1.375   .     A
C686   O736    1.380   .     S
C686   C891    1.426   .     S
C687   O737    1.381   .     S
C687   N730    1.372   .     A
C687   C1094   1.426   1_545 S
C688   O738    1.382   .     S
C688   N729    1.374   .     A
C688   C889    1.427   .     S
C689   H716    1.113   .     S
C689   H705    1.113   .     S
C689   H722    1.109   .     S
C689   O746    1.410   .     S
C690   H723    1.109   .     S
C690   O732    1.409   .     S
C690   H725    1.109   .     S
C690   H724    1.109   .     S
C691   H727    1.114   .     S
C691   O733    1.412   .     S
C691   H728    1.107   .     S
C691   H726    1.112   .     S
C692   O740    1.296   .     A
C692   O739    1.292   .     A
C693   H708    1.110   .     S
C693   H706    1.109   .     S
C693   O734    1.417   .     S
C693   H707    1.112   .     S
C694   H711    1.109   .     S
C694   O735    1.413   .     S
C694   H710    1.112   .     S
C694   H709    1.105   .     S
C695   H714    1.109   .     S
C695   O736    1.414   .     S
C695   H712    1.113   .     S
C695   H713    1.107   .     S
C696   H717    1.109   .     S
C696   H715    1.117   .     S
C696   O737    1.417   .     S
C696   H718    1.109   .     S
C697   O738    1.414   .     S
C697   H721    1.108   .     S
C697   H719    1.111   .     S
C697   H720    1.108   .     S
C698   O745    1.284   .     A
C698   C700    1.361   .     S
C698   O742    1.284   .     A
C699   C701    1.361   .     S
C699   O744    1.284   .     A
C699   O743    1.284   .     A
C701   C1312   1.162   .     S
C702   O746    1.385   .     S
C703   O732    1.392   .     S
C703   C750    1.389   .     S
C704   O733    1.381   .     S
C704   C770    1.377   .     S
N729   Zn747   2.032   .     S
N730   Zn748   2.032   .     S
O731   Zn747   2.016   .     S
O739   Zn748   2.016   .     S
O740   Zn747   1.991   .     S
O741   Zn748   1.991   .     S
O742   Zn747   1.941   .     S
O743   Zn748   1.941   .     S
O744   Zn747   1.940   .     S
O745   Zn748   1.940   .     S
C749   C752    1.433   .     S
C749   O799    1.289   .     A
C749   O809    1.300   .     A
C750   C752    1.413   .     A
C750   O802    1.382   .     S
C751   C771    1.402   .     A
C751   C772    1.405   .     A
C751   C760    1.430   .     S
C752   C770    1.404   .     A
C753   O803    1.380   .     S
C753   N798    1.377   .     A
C753   C1164   1.427   1_545 S
C754   N797    1.375   .     A
C754   O804    1.380   .     S
C754   C959    1.426   .     S
C755   O805    1.381   .     S
C755   N798    1.372   .     A
C755   C1162   1.426   1_545 S
C756   O806    1.382   .     S
C756   N797    1.374   .     A
C756   C957    1.427   .     S
C757   H784    1.113   .     S
C757   H773    1.113   .     S
C757   H790    1.109   .     S
C757   O814    1.410   .     S
C758   H791    1.109   .     S
C758   O800    1.409   .     S
C758   H793    1.109   .     S
C758   H792    1.109   .     S
C759   H795    1.114   .     S
C759   O801    1.412   .     S
C759   H796    1.107   .     S
C759   H794    1.112   .     S
C760   O808    1.296   .     A
C760   O807    1.292   .     A
C761   H776    1.110   .     S
C761   H774    1.109   .     S
C761   O802    1.417   .     S
C761   H775    1.112   .     S
C762   H779    1.109   .     S
C762   O803    1.413   .     S
C762   H778    1.112   .     S
C762   H777    1.105   .     S
C763   H782    1.109   .     S
C763   O804    1.414   .     S
C763   H780    1.113   .     S
C763   H781    1.107   .     S
C764   H785    1.109   .     S
C764   H783    1.117   .     S
C764   O805    1.417   .     S
C764   H786    1.109   .     S
C765   O806    1.414   .     S
C765   H789    1.108   .     S
C765   H787    1.111   .     S
C765   H788    1.108   .     S
C766   O813    1.284   .     A
C766   C768    1.361   .     S
C766   O810    1.284   .     A
C767   C769    1.361   .     S
C767   O812    1.284   .     A
C767   O811    1.284   .     A
C769   C1380   1.162   .     S
C770   O814    1.385   .     S
C771   O800    1.392   .     S
C771   C614    1.389   1_655 S
C772   O801    1.381   .     S
C772   C634    1.377   1_655 S
N797   Zn815   2.032   .     S
N798   Zn816   2.032   .     S
O799   Zn815   2.016   .     S
O807   Zn816   2.016   .     S
O808   Zn815   1.991   .     S
O809   Zn816   1.991   .     S
O810   Zn815   1.941   .     S
O811   Zn816   1.941   .     S
O812   Zn815   1.940   .     S
O813   Zn816   1.940   .     S
C817   C820    1.433   .     S
C817   O867    1.289   .     A
C817   O877    1.300   .     A
C818   C820    1.413   .     A
C818   O870    1.382   .     S
C818   C975    1.389   1_455 S
C819   C839    1.402   .     A
C819   C840    1.405   .     A
C819   C828    1.430   .     S
C820   C838    1.404   .     A
C821   O871    1.380   .     S
C821   N866    1.377   .     A
C822   N865    1.375   .     A
C822   O872    1.380   .     S
C822   C1027   1.426   .     S
C823   O873    1.381   .     S
C823   N866    1.372   .     A
C824   O874    1.382   .     S
C824   N865    1.374   .     A
C824   C1025   1.427   .     S
C825   H852    1.113   .     S
C825   H841    1.113   .     S
C825   H858    1.109   .     S
C825   O882    1.410   .     S
C826   H859    1.109   .     S
C826   O868    1.409   .     S
C826   H861    1.109   .     S
C826   H860    1.109   .     S
C827   H863    1.114   .     S
C827   O869    1.412   .     S
C827   H864    1.107   .     S
C827   H862    1.112   .     S
C828   O876    1.296   .     A
C828   O875    1.292   .     A
C829   H844    1.110   .     S
C829   H842    1.109   .     S
C829   O870    1.417   .     S
C829   H843    1.112   .     S
C830   H847    1.109   .     S
C830   O871    1.413   .     S
C830   H846    1.112   .     S
C830   H845    1.105   .     S
C831   H850    1.109   .     S
C831   O872    1.414   .     S
C831   H848    1.113   .     S
C831   H849    1.107   .     S
C832   H853    1.109   .     S
C832   H851    1.117   .     S
C832   O873    1.417   .     S
C832   H854    1.109   .     S
C833   O874    1.414   .     S
C833   H857    1.108   .     S
C833   H855    1.111   .     S
C833   H856    1.108   .     S
C834   O881    1.284   .     A
C834   C836    1.361   .     S
C834   O878    1.284   .     A
C835   C837    1.361   .     S
C835   O880    1.284   .     A
C835   O879    1.284   .     A
C837   C1448   1.162   .     S
C838   O882    1.385   .     S
C838   C976    1.377   1_455 S
C839   O868    1.392   .     S
C839   C886    1.389   .     S
C840   O869    1.381   .     S
C840   C906    1.377   .     S
N865   Zn883   2.032   .     S
N866   Zn884   2.032   .     S
O867   Zn883   2.016   .     S
O875   Zn884   2.016   .     S
O876   Zn883   1.991   .     S
O877   Zn884   1.991   .     S
O878   Zn883   1.941   .     S
O879   Zn884   1.941   .     S
O880   Zn883   1.940   .     S
O881   Zn884   1.940   .     S
C885   C888    1.433   .     S
C885   O935    1.289   .     A
C885   O945    1.300   .     A
C886   C888    1.413   .     A
C886   O938    1.382   .     S
C887   C907    1.402   .     A
C887   C908    1.405   .     A
C887   C896    1.430   .     S
C888   C906    1.404   .     A
C889   O939    1.380   .     S
C889   N934    1.377   .     A
C890   N933    1.375   .     A
C890   O940    1.380   .     S
C890   C1095   1.426   .     S
C891   O941    1.381   .     S
C891   N934    1.372   .     A
C892   O942    1.382   .     S
C892   N933    1.374   .     A
C892   C1093   1.427   .     S
C893   H920    1.113   .     S
C893   H909    1.113   .     S
C893   H926    1.109   .     S
C893   O950    1.410   .     S
C894   H927    1.109   .     S
C894   O936    1.409   .     S
C894   H929    1.109   .     S
C894   H928    1.109   .     S
C895   H931    1.114   .     S
C895   O937    1.412   .     S
C895   H932    1.107   .     S
C895   H930    1.112   .     S
C896   O944    1.296   .     A
C896   O943    1.292   .     A
C897   H912    1.110   .     S
C897   H910    1.109   .     S
C897   O938    1.417   .     S
C897   H911    1.112   .     S
C898   H915    1.109   .     S
C898   O939    1.413   .     S
C898   H914    1.112   .     S
C898   H913    1.105   .     S
C899   H918    1.109   .     S
C899   O940    1.414   .     S
C899   H916    1.113   .     S
C899   H917    1.107   .     S
C900   H921    1.109   .     S
C900   H919    1.117   .     S
C900   O941    1.417   .     S
C900   H922    1.109   .     S
C901   O942    1.414   .     S
C901   H925    1.108   .     S
C901   H923    1.111   .     S
C901   H924    1.108   .     S
C902   O949    1.284   .     A
C902   C904    1.361   .     S
C902   O946    1.284   .     A
C903   C905    1.361   .     S
C903   O948    1.284   .     A
C903   O947    1.284   .     A
C905   C1516   1.162   .     S
C906   O950    1.385   .     S
C907   O936    1.392   .     S
C907   C954    1.389   .     S
C908   O937    1.381   .     S
C908   C974    1.377   .     S
N933   Zn951   2.032   .     S
N934   Zn952   2.032   .     S
O935   Zn951   2.016   .     S
O943   Zn952   2.016   .     S
O944   Zn951   1.991   .     S
O945   Zn952   1.991   .     S
O946   Zn951   1.941   .     S
O947   Zn952   1.941   .     S
O948   Zn951   1.940   .     S
O949   Zn952   1.940   .     S
C953   C956    1.433   .     S
C953   O1003   1.289   .     A
C953   O1013   1.300   .     A
C954   C956    1.413   .     A
C954   O1006   1.382   .     S
C955   C975    1.402   .     A
C955   C976    1.405   .     A
C955   C964    1.430   .     S
C956   C974    1.404   .     A
C957   O1007   1.380   .     S
C957   N1002   1.377   .     A
C958   N1001   1.375   .     A
C958   O1008   1.380   .     S
C958   C1163   1.426   .     S
C959   O1009   1.381   .     S
C959   N1002   1.372   .     A
C960   O1010   1.382   .     S
C960   N1001   1.374   .     A
C960   C1161   1.427   .     S
C961   H988    1.113   .     S
C961   H977    1.113   .     S
C961   H994    1.109   .     S
C961   O1018   1.410   .     S
C962   H995    1.109   .     S
C962   O1004   1.409   .     S
C962   H997    1.109   .     S
C962   H996    1.109   .     S
C963   H999    1.114   .     S
C963   O1005   1.412   .     S
C963   H1000   1.107   .     S
C963   H998    1.112   .     S
C964   O1012   1.296   .     A
C964   O1011   1.292   .     A
C965   H980    1.110   .     S
C965   H978    1.109   .     S
C965   O1006   1.417   .     S
C965   H979    1.112   .     S
C966   H983    1.109   .     S
C966   O1007   1.413   .     S
C966   H982    1.112   .     S
C966   H981    1.105   .     S
C967   H986    1.109   .     S
C967   O1008   1.414   .     S
C967   H984    1.113   .     S
C967   H985    1.107   .     S
C968   H989    1.109   .     S
C968   H987    1.117   .     S
C968   O1009   1.417   .     S
C968   H990    1.109   .     S
C969   O1010   1.414   .     S
C969   H993    1.108   .     S
C969   H991    1.111   .     S
C969   H992    1.108   .     S
C970   O1017   1.284   .     A
C970   C972    1.361   .     S
C970   O1014   1.284   .     A
C971   C973    1.361   .     S
C971   O1016   1.284   .     A
C971   O1015   1.284   .     A
C973   C1584   1.162   .     S
C974   O1018   1.385   .     S
C975   O1004   1.392   .     S
C975   C818    1.389   1_655 S
C976   O1005   1.381   .     S
C976   C838    1.377   1_655 S
N1001  Zn1019  2.032   .     S
N1002  Zn1020  2.032   .     S
O1003  Zn1019  2.016   .     S
O1011  Zn1020  2.016   .     S
O1012  Zn1019  1.991   .     S
O1013  Zn1020  1.991   .     S
O1014  Zn1019  1.941   .     S
O1015  Zn1020  1.941   .     S
O1016  Zn1019  1.940   .     S
O1017  Zn1020  1.940   .     S
C1021  C1024   1.433   .     S
C1021  O1071   1.289   .     A
C1021  O1081   1.300   .     A
C1022  C1024   1.413   .     A
C1022  O1074   1.382   .     S
C1022  C1179   1.389   1_455 S
C1023  C1043   1.402   .     A
C1023  C1044   1.405   .     A
C1023  C1032   1.430   .     S
C1024  C1042   1.404   .     A
C1025  O1075   1.380   .     S
C1025  N1070   1.377   .     A
C1026  N1069   1.375   .     A
C1026  O1076   1.380   .     S
C1026  C619    1.426   1_565 S
C1027  O1077   1.381   .     S
C1027  N1070   1.372   .     A
C1028  O1078   1.382   .     S
C1028  N1069   1.374   .     A
C1028  C617    1.427   1_565 S
C1029  H1056   1.113   .     S
C1029  H1045   1.113   .     S
C1029  H1062   1.109   .     S
C1029  O1086   1.410   .     S
C1030  H1063   1.109   .     S
C1030  O1072   1.409   .     S
C1030  H1065   1.109   .     S
C1030  H1064   1.109   .     S
C1031  H1067   1.114   .     S
C1031  O1073   1.412   .     S
C1031  H1068   1.107   .     S
C1031  H1066   1.112   .     S
C1032  O1080   1.296   .     A
C1032  O1079   1.292   .     A
C1033  H1048   1.110   .     S
C1033  H1046   1.109   .     S
C1033  O1074   1.417   .     S
C1033  H1047   1.112   .     S
C1034  H1051   1.109   .     S
C1034  O1075   1.413   .     S
C1034  H1050   1.112   .     S
C1034  H1049   1.105   .     S
C1035  H1054   1.109   .     S
C1035  O1076   1.414   .     S
C1035  H1052   1.113   .     S
C1035  H1053   1.107   .     S
C1036  H1057   1.109   .     S
C1036  H1055   1.117   .     S
C1036  O1077   1.417   .     S
C1036  H1058   1.109   .     S
C1037  O1078   1.414   .     S
C1037  H1061   1.108   .     S
C1037  H1059   1.111   .     S
C1037  H1060   1.108   .     S
C1038  O1085   1.284   .     A
C1038  C1040   1.361   .     S
C1038  O1082   1.284   .     A
C1039  C1041   1.361   .     S
C1039  O1084   1.284   .     A
C1039  O1083   1.284   .     A
C1041  C1652   1.162   .     S
C1042  O1086   1.385   .     S
C1042  C1180   1.377   1_455 S
C1043  O1072   1.392   .     S
C1043  C1090   1.389   .     S
C1044  O1073   1.381   .     S
C1044  C1110   1.377   .     S
N1069  Zn1087  2.032   .     S
N1070  Zn1088  2.032   .     S
O1071  Zn1087  2.016   .     S
O1079  Zn1088  2.016   .     S
O1080  Zn1087  1.991   .     S
O1081  Zn1088  1.991   .     S
O1082  Zn1087  1.941   .     S
O1083  Zn1088  1.941   .     S
O1084  Zn1087  1.940   .     S
O1085  Zn1088  1.940   .     S
C1089  C1092   1.433   .     S
C1089  O1139   1.289   .     A
C1089  O1149   1.300   .     A
C1090  C1092   1.413   .     A
C1090  O1142   1.382   .     S
C1091  C1111   1.402   .     A
C1091  C1112   1.405   .     A
C1091  C1100   1.430   .     S
C1092  C1110   1.404   .     A
C1093  O1143   1.380   .     S
C1093  N1138   1.377   .     A
C1094  N1137   1.375   .     A
C1094  O1144   1.380   .     S
C1094  C687    1.426   1_565 S
C1095  O1145   1.381   .     S
C1095  N1138   1.372   .     A
C1096  O1146   1.382   .     S
C1096  N1137   1.374   .     A
C1096  C685    1.427   1_565 S
C1097  H1124   1.113   .     S
C1097  H1113   1.113   .     S
C1097  H1130   1.109   .     S
C1097  O1154   1.410   .     S
C1098  H1131   1.109   .     S
C1098  O1140   1.409   .     S
C1098  H1133   1.109   .     S
C1098  H1132   1.109   .     S
C1099  H1135   1.114   .     S
C1099  O1141   1.412   .     S
C1099  H1136   1.107   .     S
C1099  H1134   1.112   .     S
C1100  O1148   1.296   .     A
C1100  O1147   1.292   .     A
C1101  H1116   1.110   .     S
C1101  H1114   1.109   .     S
C1101  O1142   1.417   .     S
C1101  H1115   1.112   .     S
C1102  H1119   1.109   .     S
C1102  O1143   1.413   .     S
C1102  H1118   1.112   .     S
C1102  H1117   1.105   .     S
C1103  H1122   1.109   .     S
C1103  O1144   1.414   .     S
C1103  H1120   1.113   .     S
C1103  H1121   1.107   .     S
C1104  H1125   1.109   .     S
C1104  H1123   1.117   .     S
C1104  O1145   1.417   .     S
C1104  H1126   1.109   .     S
C1105  O1146   1.414   .     S
C1105  H1129   1.108   .     S
C1105  H1127   1.111   .     S
C1105  H1128   1.108   .     S
C1106  O1153   1.284   .     A
C1106  C1108   1.361   .     S
C1106  O1150   1.284   .     A
C1107  C1109   1.361   .     S
C1107  O1152   1.284   .     A
C1107  O1151   1.284   .     A
C1109  C1720   1.162   .     S
C1110  O1154   1.385   .     S
C1111  O1140   1.392   .     S
C1111  C1158   1.389   .     S
C1112  O1141   1.381   .     S
C1112  C1178   1.377   .     S
N1137  Zn1155  2.032   .     S
N1138  Zn1156  2.032   .     S
O1139  Zn1155  2.016   .     S
O1147  Zn1156  2.016   .     S
O1148  Zn1155  1.991   .     S
O1149  Zn1156  1.991   .     S
O1150  Zn1155  1.941   .     S
O1151  Zn1156  1.941   .     S
O1152  Zn1155  1.940   .     S
O1153  Zn1156  1.940   .     S
C1157  C1160   1.433   .     S
C1157  O1207   1.289   .     A
C1157  O1217   1.300   .     A
C1158  C1160   1.413   .     A
C1158  O1210   1.382   .     S
C1159  C1179   1.402   .     A
C1159  C1180   1.405   .     A
C1159  C1168   1.430   .     S
C1160  C1178   1.404   .     A
C1161  O1211   1.380   .     S
C1161  N1206   1.377   .     A
C1162  N1205   1.375   .     A
C1162  O1212   1.380   .     S
C1162  C755    1.426   1_565 S
C1163  O1213   1.381   .     S
C1163  N1206   1.372   .     A
C1164  O1214   1.382   .     S
C1164  N1205   1.374   .     A
C1164  C753    1.427   1_565 S
C1165  H1192   1.113   .     S
C1165  H1181   1.113   .     S
C1165  H1198   1.109   .     S
C1165  O1222   1.410   .     S
C1166  H1199   1.109   .     S
C1166  O1208   1.409   .     S
C1166  H1201   1.109   .     S
C1166  H1200   1.109   .     S
C1167  H1203   1.114   .     S
C1167  O1209   1.412   .     S
C1167  H1204   1.107   .     S
C1167  H1202   1.112   .     S
C1168  O1216   1.296   .     A
C1168  O1215   1.292   .     A
C1169  H1184   1.110   .     S
C1169  H1182   1.109   .     S
C1169  O1210   1.417   .     S
C1169  H1183   1.112   .     S
C1170  H1187   1.109   .     S
C1170  O1211   1.413   .     S
C1170  H1186   1.112   .     S
C1170  H1185   1.105   .     S
C1171  H1190   1.109   .     S
C1171  O1212   1.414   .     S
C1171  H1188   1.113   .     S
C1171  H1189   1.107   .     S
C1172  H1193   1.109   .     S
C1172  H1191   1.117   .     S
C1172  O1213   1.417   .     S
C1172  H1194   1.109   .     S
C1173  O1214   1.414   .     S
C1173  H1197   1.108   .     S
C1173  H1195   1.111   .     S
C1173  H1196   1.108   .     S
C1174  O1221   1.284   .     A
C1174  C1176   1.361   .     S
C1174  O1218   1.284   .     A
C1175  C1177   1.361   .     S
C1175  O1220   1.284   .     A
C1175  O1219   1.284   .     A
C1177  C1788   1.162   .     S
C1178  O1222   1.385   .     S
C1179  O1208   1.392   .     S
C1179  C1022   1.389   1_655 S
C1180  O1209   1.381   .     S
C1180  C1042   1.377   1_655 S
N1205  Zn1223  2.032   .     S
N1206  Zn1224  2.032   .     S
O1207  Zn1223  2.016   .     S
O1215  Zn1224  2.016   .     S
O1216  Zn1223  1.991   .     S
O1217  Zn1224  1.991   .     S
O1218  Zn1223  1.941   .     S
O1219  Zn1224  1.941   .     S
O1220  Zn1223  1.940   .     S
O1221  Zn1224  1.940   .     S
C1225  C1228   1.433   .     S
C1225  O1275   1.289   .     A
C1225  O1285   1.300   .     A
C1226  C1228   1.413   .     A
C1226  O1278   1.382   .     S
C1226  C1383   1.389   1_455 S
C1227  C1247   1.402   .     A
C1227  C1248   1.405   .     A
C1227  C1236   1.430   .     S
C1228  C1246   1.404   .     A
C1229  O1279   1.380   .     S
C1229  N1274   1.377   .     A
C1229  C1640   1.427   1_545 S
C1230  N1273   1.375   .     A
C1230  O1280   1.380   .     S
C1230  C1435   1.426   .     S
C1231  O1281   1.381   .     S
C1231  N1274   1.372   .     A
C1231  C1638   1.426   1_545 S
C1232  O1282   1.382   .     S
C1232  N1273   1.374   .     A
C1232  C1433   1.427   .     S
C1233  H1260   1.113   .     S
C1233  H1249   1.113   .     S
C1233  H1266   1.109   .     S
C1233  O1290   1.410   .     S
C1234  H1267   1.109   .     S
C1234  O1276   1.409   .     S
C1234  H1269   1.109   .     S
C1234  H1268   1.109   .     S
C1235  H1271   1.114   .     S
C1235  O1277   1.412   .     S
C1235  H1272   1.107   .     S
C1235  H1270   1.112   .     S
C1236  O1284   1.296   .     A
C1236  O1283   1.292   .     A
C1237  H1252   1.110   .     S
C1237  H1250   1.109   .     S
C1237  O1278   1.417   .     S
C1237  H1251   1.112   .     S
C1238  H1255   1.109   .     S
C1238  O1279   1.413   .     S
C1238  H1254   1.112   .     S
C1238  H1253   1.105   .     S
C1239  H1258   1.109   .     S
C1239  O1280   1.414   .     S
C1239  H1256   1.113   .     S
C1239  H1257   1.107   .     S
C1240  H1261   1.109   .     S
C1240  H1259   1.117   .     S
C1240  O1281   1.417   .     S
C1240  H1262   1.109   .     S
C1241  O1282   1.414   .     S
C1241  H1265   1.108   .     S
C1241  H1263   1.111   .     S
C1241  H1264   1.108   .     S
C1242  O1289   1.284   .     A
C1242  C1244   1.361   .     S
C1242  O1286   1.284   .     A
C1243  C1245   1.361   .     S
C1243  O1288   1.284   .     A
C1243  O1287   1.284   .     A
C1245  C20     1.162   1_556 S
C1246  O1290   1.385   .     S
C1246  C1384   1.377   1_455 S
C1247  O1276   1.392   .     S
C1247  C1294   1.389   .     S
C1248  O1277   1.381   .     S
C1248  C1314   1.377   .     S
N1273  Zn1291  2.032   .     S
N1274  Zn1292  2.032   .     S
O1275  Zn1291  2.016   .     S
O1283  Zn1292  2.016   .     S
O1284  Zn1291  1.991   .     S
O1285  Zn1292  1.991   .     S
O1286  Zn1291  1.941   .     S
O1287  Zn1292  1.941   .     S
O1288  Zn1291  1.940   .     S
O1289  Zn1292  1.940   .     S
C1293  C1296   1.433   .     S
C1293  O1343   1.289   .     A
C1293  O1353   1.300   .     A
C1294  C1296   1.413   .     A
C1294  O1346   1.382   .     S
C1295  C1315   1.402   .     A
C1295  C1316   1.405   .     A
C1295  C1304   1.430   .     S
C1296  C1314   1.404   .     A
C1297  O1347   1.380   .     S
C1297  N1342   1.377   .     A
C1297  C1708   1.427   1_545 S
C1298  N1341   1.375   .     A
C1298  O1348   1.380   .     S
C1298  C1503   1.426   .     S
C1299  O1349   1.381   .     S
C1299  N1342   1.372   .     A
C1299  C1706   1.426   1_545 S
C1300  O1350   1.382   .     S
C1300  N1341   1.374   .     A
C1300  C1501   1.427   .     S
C1301  H1328   1.113   .     S
C1301  H1317   1.113   .     S
C1301  H1334   1.109   .     S
C1301  O1358   1.410   .     S
C1302  H1335   1.109   .     S
C1302  O1344   1.409   .     S
C1302  H1337   1.109   .     S
C1302  H1336   1.109   .     S
C1303  H1339   1.114   .     S
C1303  O1345   1.412   .     S
C1303  H1340   1.107   .     S
C1303  H1338   1.112   .     S
C1304  O1352   1.296   .     A
C1304  O1351   1.292   .     A
C1305  H1320   1.110   .     S
C1305  H1318   1.109   .     S
C1305  O1346   1.417   .     S
C1305  H1319   1.112   .     S
C1306  H1323   1.109   .     S
C1306  O1347   1.413   .     S
C1306  H1322   1.112   .     S
C1306  H1321   1.105   .     S
C1307  H1326   1.109   .     S
C1307  O1348   1.414   .     S
C1307  H1324   1.113   .     S
C1307  H1325   1.107   .     S
C1308  H1329   1.109   .     S
C1308  H1327   1.117   .     S
C1308  O1349   1.417   .     S
C1308  H1330   1.109   .     S
C1309  O1350   1.414   .     S
C1309  H1333   1.108   .     S
C1309  H1331   1.111   .     S
C1309  H1332   1.108   .     S
C1310  O1357   1.284   .     A
C1310  C1312   1.361   .     S
C1310  O1354   1.284   .     A
C1311  C1313   1.361   .     S
C1311  O1356   1.284   .     A
C1311  O1355   1.284   .     A
C1313  C88     1.162   1_556 S
C1314  O1358   1.385   .     S
C1315  O1344   1.392   .     S
C1315  C1362   1.389   .     S
C1316  O1345   1.381   .     S
C1316  C1382   1.377   .     S
N1341  Zn1359  2.032   .     S
N1342  Zn1360  2.032   .     S
O1343  Zn1359  2.016   .     S
O1351  Zn1360  2.016   .     S
O1352  Zn1359  1.991   .     S
O1353  Zn1360  1.991   .     S
O1354  Zn1359  1.941   .     S
O1355  Zn1360  1.941   .     S
O1356  Zn1359  1.940   .     S
O1357  Zn1360  1.940   .     S
C1361  C1364   1.433   .     S
C1361  O1411   1.289   .     A
C1361  O1421   1.300   .     A
C1362  C1364   1.413   .     A
C1362  O1414   1.382   .     S
C1363  C1383   1.402   .     A
C1363  C1384   1.405   .     A
C1363  C1372   1.430   .     S
C1364  C1382   1.404   .     A
C1365  O1415   1.380   .     S
C1365  N1410   1.377   .     A
C1365  C1776   1.427   1_545 S
C1366  N1409   1.375   .     A
C1366  O1416   1.380   .     S
C1366  C1571   1.426   .     S
C1367  O1417   1.381   .     S
C1367  N1410   1.372   .     A
C1367  C1774   1.426   1_545 S
C1368  O1418   1.382   .     S
C1368  N1409   1.374   .     A
C1368  C1569   1.427   .     S
C1369  H1396   1.113   .     S
C1369  H1385   1.113   .     S
C1369  H1402   1.109   .     S
C1369  O1426   1.410   .     S
C1370  H1403   1.109   .     S
C1370  O1412   1.409   .     S
C1370  H1405   1.109   .     S
C1370  H1404   1.109   .     S
C1371  H1407   1.114   .     S
C1371  O1413   1.412   .     S
C1371  H1408   1.107   .     S
C1371  H1406   1.112   .     S
C1372  O1420   1.296   .     A
C1372  O1419   1.292   .     A
C1373  H1388   1.110   .     S
C1373  H1386   1.109   .     S
C1373  O1414   1.417   .     S
C1373  H1387   1.112   .     S
C1374  H1391   1.109   .     S
C1374  O1415   1.413   .     S
C1374  H1390   1.112   .     S
C1374  H1389   1.105   .     S
C1375  H1394   1.109   .     S
C1375  O1416   1.414   .     S
C1375  H1392   1.113   .     S
C1375  H1393   1.107   .     S
C1376  H1397   1.109   .     S
C1376  H1395   1.117   .     S
C1376  O1417   1.417   .     S
C1376  H1398   1.109   .     S
C1377  O1418   1.414   .     S
C1377  H1401   1.108   .     S
C1377  H1399   1.111   .     S
C1377  H1400   1.108   .     S
C1378  O1425   1.284   .     A
C1378  C1380   1.361   .     S
C1378  O1422   1.284   .     A
C1379  C1381   1.361   .     S
C1379  O1424   1.284   .     A
C1379  O1423   1.284   .     A
C1381  C156    1.162   1_556 S
C1382  O1426   1.385   .     S
C1383  O1412   1.392   .     S
C1383  C1226   1.389   1_655 S
C1384  O1413   1.381   .     S
C1384  C1246   1.377   1_655 S
N1409  Zn1427  2.032   .     S
N1410  Zn1428  2.032   .     S
O1411  Zn1427  2.016   .     S
O1419  Zn1428  2.016   .     S
O1420  Zn1427  1.991   .     S
O1421  Zn1428  1.991   .     S
O1422  Zn1427  1.941   .     S
O1423  Zn1428  1.941   .     S
O1424  Zn1427  1.940   .     S
O1425  Zn1428  1.940   .     S
C1429  C1432   1.433   .     S
C1429  O1479   1.289   .     A
C1429  O1489   1.300   .     A
C1430  C1432   1.413   .     A
C1430  O1482   1.382   .     S
C1430  C1587   1.389   1_455 S
C1431  C1451   1.402   .     A
C1431  C1452   1.405   .     A
C1431  C1440   1.430   .     S
C1432  C1450   1.404   .     A
C1433  O1483   1.380   .     S
C1433  N1478   1.377   .     A
C1434  N1477   1.375   .     A
C1434  O1484   1.380   .     S
C1434  C1639   1.426   .     S
C1435  O1485   1.381   .     S
C1435  N1478   1.372   .     A
C1436  O1486   1.382   .     S
C1436  N1477   1.374   .     A
C1436  C1637   1.427   .     S
C1437  H1464   1.113   .     S
C1437  H1453   1.113   .     S
C1437  H1470   1.109   .     S
C1437  O1494   1.410   .     S
C1438  H1471   1.109   .     S
C1438  O1480   1.409   .     S
C1438  H1473   1.109   .     S
C1438  H1472   1.109   .     S
C1439  H1475   1.114   .     S
C1439  O1481   1.412   .     S
C1439  H1476   1.107   .     S
C1439  H1474   1.112   .     S
C1440  O1488   1.296   .     A
C1440  O1487   1.292   .     A
C1441  H1456   1.110   .     S
C1441  H1454   1.109   .     S
C1441  O1482   1.417   .     S
C1441  H1455   1.112   .     S
C1442  H1459   1.109   .     S
C1442  O1483   1.413   .     S
C1442  H1458   1.112   .     S
C1442  H1457   1.105   .     S
C1443  H1462   1.109   .     S
C1443  O1484   1.414   .     S
C1443  H1460   1.113   .     S
C1443  H1461   1.107   .     S
C1444  H1465   1.109   .     S
C1444  H1463   1.117   .     S
C1444  O1485   1.417   .     S
C1444  H1466   1.109   .     S
C1445  O1486   1.414   .     S
C1445  H1469   1.108   .     S
C1445  H1467   1.111   .     S
C1445  H1468   1.108   .     S
C1446  O1493   1.284   .     A
C1446  C1448   1.361   .     S
C1446  O1490   1.284   .     A
C1447  C1449   1.361   .     S
C1447  O1492   1.284   .     A
C1447  O1491   1.284   .     A
C1449  C224    1.162   1_556 S
C1450  O1494   1.385   .     S
C1450  C1588   1.377   1_455 S
C1451  O1480   1.392   .     S
C1451  C1498   1.389   .     S
C1452  O1481   1.381   .     S
C1452  C1518   1.377   .     S
N1477  Zn1495  2.032   .     S
N1478  Zn1496  2.032   .     S
O1479  Zn1495  2.016   .     S
O1487  Zn1496  2.016   .     S
O1488  Zn1495  1.991   .     S
O1489  Zn1496  1.991   .     S
O1490  Zn1495  1.941   .     S
O1491  Zn1496  1.941   .     S
O1492  Zn1495  1.940   .     S
O1493  Zn1496  1.940   .     S
C1497  C1500   1.433   .     S
C1497  O1547   1.289   .     A
C1497  O1557   1.300   .     A
C1498  C1500   1.413   .     A
C1498  O1550   1.382   .     S
C1499  C1519   1.402   .     A
C1499  C1520   1.405   .     A
C1499  C1508   1.430   .     S
C1500  C1518   1.404   .     A
C1501  O1551   1.380   .     S
C1501  N1546   1.377   .     A
C1502  N1545   1.375   .     A
C1502  O1552   1.380   .     S
C1502  C1707   1.426   .     S
C1503  O1553   1.381   .     S
C1503  N1546   1.372   .     A
C1504  O1554   1.382   .     S
C1504  N1545   1.374   .     A
C1504  C1705   1.427   .     S
C1505  H1532   1.113   .     S
C1505  H1521   1.113   .     S
C1505  H1538   1.109   .     S
C1505  O1562   1.410   .     S
C1506  H1539   1.109   .     S
C1506  O1548   1.409   .     S
C1506  H1541   1.109   .     S
C1506  H1540   1.109   .     S
C1507  H1543   1.114   .     S
C1507  O1549   1.412   .     S
C1507  H1544   1.107   .     S
C1507  H1542   1.112   .     S
C1508  O1556   1.296   .     A
C1508  O1555   1.292   .     A
C1509  H1524   1.110   .     S
C1509  H1522   1.109   .     S
C1509  O1550   1.417   .     S
C1509  H1523   1.112   .     S
C1510  H1527   1.109   .     S
C1510  O1551   1.413   .     S
C1510  H1526   1.112   .     S
C1510  H1525   1.105   .     S
C1511  H1530   1.109   .     S
C1511  O1552   1.414   .     S
C1511  H1528   1.113   .     S
C1511  H1529   1.107   .     S
C1512  H1533   1.109   .     S
C1512  H1531   1.117   .     S
C1512  O1553   1.417   .     S
C1512  H1534   1.109   .     S
C1513  O1554   1.414   .     S
C1513  H1537   1.108   .     S
C1513  H1535   1.111   .     S
C1513  H1536   1.108   .     S
C1514  O1561   1.284   .     A
C1514  C1516   1.361   .     S
C1514  O1558   1.284   .     A
C1515  C1517   1.361   .     S
C1515  O1560   1.284   .     A
C1515  O1559   1.284   .     A
C1517  C292    1.162   1_556 S
C1518  O1562   1.385   .     S
C1519  O1548   1.392   .     S
C1519  C1566   1.389   .     S
C1520  O1549   1.381   .     S
C1520  C1586   1.377   .     S
N1545  Zn1563  2.032   .     S
N1546  Zn1564  2.032   .     S
O1547  Zn1563  2.016   .     S
O1555  Zn1564  2.016   .     S
O1556  Zn1563  1.991   .     S
O1557  Zn1564  1.991   .     S
O1558  Zn1563  1.941   .     S
O1559  Zn1564  1.941   .     S
O1560  Zn1563  1.940   .     S
O1561  Zn1564  1.940   .     S
C1565  C1568   1.433   .     S
C1565  O1615   1.289   .     A
C1565  O1625   1.300   .     A
C1566  C1568   1.413   .     A
C1566  O1618   1.382   .     S
C1567  C1587   1.402   .     A
C1567  C1588   1.405   .     A
C1567  C1576   1.430   .     S
C1568  C1586   1.404   .     A
C1569  O1619   1.380   .     S
C1569  N1614   1.377   .     A
C1570  N1613   1.375   .     A
C1570  O1620   1.380   .     S
C1570  C1775   1.426   .     S
C1571  O1621   1.381   .     S
C1571  N1614   1.372   .     A
C1572  O1622   1.382   .     S
C1572  N1613   1.374   .     A
C1572  C1773   1.427   .     S
C1573  H1600   1.113   .     S
C1573  H1589   1.113   .     S
C1573  H1606   1.109   .     S
C1573  O1630   1.410   .     S
C1574  H1607   1.109   .     S
C1574  O1616   1.409   .     S
C1574  H1609   1.109   .     S
C1574  H1608   1.109   .     S
C1575  H1611   1.114   .     S
C1575  O1617   1.412   .     S
C1575  H1612   1.107   .     S
C1575  H1610   1.112   .     S
C1576  O1624   1.296   .     A
C1576  O1623   1.292   .     A
C1577  H1592   1.110   .     S
C1577  H1590   1.109   .     S
C1577  O1618   1.417   .     S
C1577  H1591   1.112   .     S
C1578  H1595   1.109   .     S
C1578  O1619   1.413   .     S
C1578  H1594   1.112   .     S
C1578  H1593   1.105   .     S
C1579  H1598   1.109   .     S
C1579  O1620   1.414   .     S
C1579  H1596   1.113   .     S
C1579  H1597   1.107   .     S
C1580  H1601   1.109   .     S
C1580  H1599   1.117   .     S
C1580  O1621   1.417   .     S
C1580  H1602   1.109   .     S
C1581  O1622   1.414   .     S
C1581  H1605   1.108   .     S
C1581  H1603   1.111   .     S
C1581  H1604   1.108   .     S
C1582  O1629   1.284   .     A
C1582  C1584   1.361   .     S
C1582  O1626   1.284   .     A
C1583  C1585   1.361   .     S
C1583  O1628   1.284   .     A
C1583  O1627   1.284   .     A
C1585  C360    1.162   1_556 S
C1586  O1630   1.385   .     S
C1587  O1616   1.392   .     S
C1587  C1430   1.389   1_655 S
C1588  O1617   1.381   .     S
C1588  C1450   1.377   1_655 S
N1613  Zn1631  2.032   .     S
N1614  Zn1632  2.032   .     S
O1615  Zn1631  2.016   .     S
O1623  Zn1632  2.016   .     S
O1624  Zn1631  1.991   .     S
O1625  Zn1632  1.991   .     S
O1626  Zn1631  1.941   .     S
O1627  Zn1632  1.941   .     S
O1628  Zn1631  1.940   .     S
O1629  Zn1632  1.940   .     S
C1633  C1636   1.433   .     S
C1633  O1683   1.289   .     A
C1633  O1693   1.300   .     A
C1634  C1636   1.413   .     A
C1634  O1686   1.382   .     S
C1634  C1791   1.389   1_455 S
C1635  C1655   1.402   .     A
C1635  C1656   1.405   .     A
C1635  C1644   1.430   .     S
C1636  C1654   1.404   .     A
C1637  O1687   1.380   .     S
C1637  N1682   1.377   .     A
C1638  N1681   1.375   .     A
C1638  O1688   1.380   .     S
C1638  C1231   1.426   1_565 S
C1639  O1689   1.381   .     S
C1639  N1682   1.372   .     A
C1640  O1690   1.382   .     S
C1640  N1681   1.374   .     A
C1640  C1229   1.427   1_565 S
C1641  H1668   1.113   .     S
C1641  H1657   1.113   .     S
C1641  H1674   1.109   .     S
C1641  O1698   1.410   .     S
C1642  H1675   1.109   .     S
C1642  O1684   1.409   .     S
C1642  H1677   1.109   .     S
C1642  H1676   1.109   .     S
C1643  H1679   1.114   .     S
C1643  O1685   1.412   .     S
C1643  H1680   1.107   .     S
C1643  H1678   1.112   .     S
C1644  O1692   1.296   .     A
C1644  O1691   1.292   .     A
C1645  H1660   1.110   .     S
C1645  H1658   1.109   .     S
C1645  O1686   1.417   .     S
C1645  H1659   1.112   .     S
C1646  H1663   1.109   .     S
C1646  O1687   1.413   .     S
C1646  H1662   1.112   .     S
C1646  H1661   1.105   .     S
C1647  H1666   1.109   .     S
C1647  O1688   1.414   .     S
C1647  H1664   1.113   .     S
C1647  H1665   1.107   .     S
C1648  H1669   1.109   .     S
C1648  H1667   1.117   .     S
C1648  O1689   1.417   .     S
C1648  H1670   1.109   .     S
C1649  O1690   1.414   .     S
C1649  H1673   1.108   .     S
C1649  H1671   1.111   .     S
C1649  H1672   1.108   .     S
C1650  O1697   1.284   .     A
C1650  C1652   1.361   .     S
C1650  O1694   1.284   .     A
C1651  C1653   1.361   .     S
C1651  O1696   1.284   .     A
C1651  O1695   1.284   .     A
C1653  C428    1.162   1_556 S
C1654  O1698   1.385   .     S
C1654  C1792   1.377   1_455 S
C1655  O1684   1.392   .     S
C1655  C1702   1.389   .     S
C1656  O1685   1.381   .     S
C1656  C1722   1.377   .     S
N1681  Zn1699  2.032   .     S
N1682  Zn1700  2.032   .     S
O1683  Zn1699  2.016   .     S
O1691  Zn1700  2.016   .     S
O1692  Zn1699  1.991   .     S
O1693  Zn1700  1.991   .     S
O1694  Zn1699  1.941   .     S
O1695  Zn1700  1.941   .     S
O1696  Zn1699  1.940   .     S
O1697  Zn1700  1.940   .     S
C1701  C1704   1.433   .     S
C1701  O1751   1.289   .     A
C1701  O1761   1.300   .     A
C1702  C1704   1.413   .     A
C1702  O1754   1.382   .     S
C1703  C1723   1.402   .     A
C1703  C1724   1.405   .     A
C1703  C1712   1.430   .     S
C1704  C1722   1.404   .     A
C1705  O1755   1.380   .     S
C1705  N1750   1.377   .     A
C1706  N1749   1.375   .     A
C1706  O1756   1.380   .     S
C1706  C1299   1.426   1_565 S
C1707  O1757   1.381   .     S
C1707  N1750   1.372   .     A
C1708  O1758   1.382   .     S
C1708  N1749   1.374   .     A
C1708  C1297   1.427   1_565 S
C1709  H1736   1.113   .     S
C1709  H1725   1.113   .     S
C1709  H1742   1.109   .     S
C1709  O1766   1.410   .     S
C1710  H1743   1.109   .     S
C1710  O1752   1.409   .     S
C1710  H1745   1.109   .     S
C1710  H1744   1.109   .     S
C1711  H1747   1.114   .     S
C1711  O1753   1.412   .     S
C1711  H1748   1.107   .     S
C1711  H1746   1.112   .     S
C1712  O1760   1.296   .     A
C1712  O1759   1.292   .     A
C1713  H1728   1.110   .     S
C1713  H1726   1.109   .     S
C1713  O1754   1.417   .     S
C1713  H1727   1.112   .     S
C1714  H1731   1.109   .     S
C1714  O1755   1.413   .     S
C1714  H1730   1.112   .     S
C1714  H1729   1.105   .     S
C1715  H1734   1.109   .     S
C1715  O1756   1.414   .     S
C1715  H1732   1.113   .     S
C1715  H1733   1.107   .     S
C1716  H1737   1.109   .     S
C1716  H1735   1.117   .     S
C1716  O1757   1.417   .     S
C1716  H1738   1.109   .     S
C1717  O1758   1.414   .     S
C1717  H1741   1.108   .     S
C1717  H1739   1.111   .     S
C1717  H1740   1.108   .     S
C1718  O1765   1.284   .     A
C1718  C1720   1.361   .     S
C1718  O1762   1.284   .     A
C1719  C1721   1.361   .     S
C1719  O1764   1.284   .     A
C1719  O1763   1.284   .     A
C1721  C496    1.162   1_556 S
C1722  O1766   1.385   .     S
C1723  O1752   1.392   .     S
C1723  C1770   1.389   .     S
C1724  O1753   1.381   .     S
C1724  C1790   1.377   .     S
N1749  Zn1767  2.032   .     S
N1750  Zn1768  2.032   .     S
O1751  Zn1767  2.016   .     S
O1759  Zn1768  2.016   .     S
O1760  Zn1767  1.991   .     S
O1761  Zn1768  1.991   .     S
O1762  Zn1767  1.941   .     S
O1763  Zn1768  1.941   .     S
O1764  Zn1767  1.940   .     S
O1765  Zn1768  1.940   .     S
C1769  C1772   1.433   .     S
C1769  O1819   1.289   .     A
C1769  O1829   1.300   .     A
C1770  C1772   1.413   .     A
C1770  O1822   1.382   .     S
C1771  C1791   1.402   .     A
C1771  C1792   1.405   .     A
C1771  C1780   1.430   .     S
C1772  C1790   1.404   .     A
C1773  O1823   1.380   .     S
C1773  N1818   1.377   .     A
C1774  N1817   1.375   .     A
C1774  O1824   1.380   .     S
C1774  C1367   1.426   1_565 S
C1775  O1825   1.381   .     S
C1775  N1818   1.372   .     A
C1776  O1826   1.382   .     S
C1776  N1817   1.374   .     A
C1776  C1365   1.427   1_565 S
C1777  H1804   1.113   .     S
C1777  H1793   1.113   .     S
C1777  H1810   1.109   .     S
C1777  O1834   1.410   .     S
C1778  H1811   1.109   .     S
C1778  O1820   1.409   .     S
C1778  H1813   1.109   .     S
C1778  H1812   1.109   .     S
C1779  H1815   1.114   .     S
C1779  O1821   1.412   .     S
C1779  H1816   1.107   .     S
C1779  H1814   1.112   .     S
C1780  O1828   1.296   .     A
C1780  O1827   1.292   .     A
C1781  H1796   1.110   .     S
C1781  H1794   1.109   .     S
C1781  O1822   1.417   .     S
C1781  H1795   1.112   .     S
C1782  H1799   1.109   .     S
C1782  O1823   1.413   .     S
C1782  H1798   1.112   .     S
C1782  H1797   1.105   .     S
C1783  H1802   1.109   .     S
C1783  O1824   1.414   .     S
C1783  H1800   1.113   .     S
C1783  H1801   1.107   .     S
C1784  H1805   1.109   .     S
C1784  H1803   1.117   .     S
C1784  O1825   1.417   .     S
C1784  H1806   1.109   .     S
C1785  O1826   1.414   .     S
C1785  H1809   1.108   .     S
C1785  H1807   1.111   .     S
C1785  H1808   1.108   .     S
C1786  O1833   1.284   .     A
C1786  C1788   1.361   .     S
C1786  O1830   1.284   .     A
C1787  C1789   1.361   .     S
C1787  O1832   1.284   .     A
C1787  O1831   1.284   .     A
C1789  C564    1.162   1_556 S
C1790  O1834   1.385   .     S
C1791  O1820   1.392   .     S
C1791  C1634   1.389   1_655 S
C1792  O1821   1.381   .     S
C1792  C1654   1.377   1_655 S
N1817  Zn1835  2.032   .     S
N1818  Zn1836  2.032   .     S
O1819  Zn1835  2.016   .     S
O1827  Zn1836  2.016   .     S
O1828  Zn1835  1.991   .     S
O1829  Zn1836  1.991   .     S
O1830  Zn1835  1.941   .     S
O1831  Zn1836  1.941   .     S
O1832  Zn1835  1.940   .     S
O1833  Zn1836  1.940   .     S
