data_str_m3_o2_o10_pcu_sym.23
_audit_creation_date              2020-01-03
_audit_creation_method            'Materials Studio'
_symmetry_space_group_name_H-M    'P1'
_symmetry_Int_Tables_number       1
_symmetry_cell_setting            triclinic
loop_
_symmetry_equiv_pos_as_xyz
  x,y,z
_cell_length_a                    25.7364
_cell_length_b                    29.8534
_cell_length_c                    28.3403
_cell_angle_alpha                 89.9161
_cell_angle_beta                  98.6037
_cell_angle_gamma                 89.9648
loop_
_atom_site_label
_atom_site_type_symbol
_atom_site_fract_x
_atom_site_fract_y
_atom_site_fract_z
_atom_site_U_iso_or_equiv
_atom_site_adp_type
_atom_site_occupancy
O1     O     0.16667   0.18453   0.28974   0.00000  Uiso   1.00
O2     O     0.16666   0.31546   0.21026   0.00000  Uiso   1.00
O3     O     0.16667   0.18453   0.21026   0.00000  Uiso   1.00
O4     O     0.16666   0.31547   0.28974   0.00000  Uiso   1.00
C5     C     0.16845   0.16398   0.25024   0.00000  Uiso   1.00
C6     C     0.16833   0.33600   0.25023   0.00000  Uiso   1.00
O7     O     0.09058   0.25000   0.28044   0.00000  Uiso   1.00
O8     O     0.24275   0.25000   0.21956   0.00000  Uiso   1.00
O9     O     0.09058   0.24999   0.20096   0.00000  Uiso   1.00
O10    O     0.24275   0.25000   0.29904   0.00000  Uiso   1.00
C11    C     0.06700   0.25000   0.23754   0.00000  Uiso   1.00
C12    C     0.26633   0.24999   0.26246   0.00000  Uiso   1.00
Zn13   Zn    0.16667   0.25000   0.30307   0.00000  Uiso   1.00
Zn14   Zn    0.16667   0.24999   0.19693   0.00000  Uiso   1.00
C15    C     0.01199   0.25013   0.23081   0.00000  Uiso   1.00
C16    C     0.32133   0.24991   0.26921   0.00000  Uiso   1.00
H17    H     0.32474   0.25051   0.19439   0.00000  Uiso   1.00
H18    H     0.00857   0.24961   0.30564   0.00000  Uiso   1.00
C19    C     0.13957   0.04604   0.27330   0.00000  Uiso   1.00
C20    C     0.13844   0.45414   0.22114   0.00000  Uiso   1.00
H21    H     0.11124   0.02740   0.29023   0.00000  Uiso   1.00
H22    H     0.10940   0.47299   0.19742   0.00000  Uiso   1.00
C23    C     0.13796   0.09204   0.27315   0.00000  Uiso   1.00
C24    C     0.13687   0.40814   0.22039   0.00000  Uiso   1.00
H25    H     0.10793   0.10892   0.28956   0.00000  Uiso   1.00
H26    H     0.10611   0.39145   0.19646   0.00000  Uiso   1.00
C27    C     0.17393   0.11618   0.25100   0.00000  Uiso   1.00
C28    C     0.17388   0.38375   0.25103   0.00000  Uiso   1.00
C29    C     0.21365   0.09457   0.22966   0.00000  Uiso   1.00
C30    C     0.21460   0.40503   0.28227   0.00000  Uiso   1.00
C31    C     0.21459   0.04750   0.22950   0.00000  Uiso   1.00
C32    C     0.21544   0.45210   0.28329   0.00000  Uiso   1.00
C33    C     0.17732   0.02403   0.25152   0.00000  Uiso   1.00
C34    C     0.17716   0.47586   0.25241   0.00000  Uiso   1.00
C35    C     0.12290   0.23487   0.04653   0.00000  Uiso   1.00
C36    C     0.21194   0.23797   0.45367   0.00000  Uiso   1.00
H37    H     0.08833   0.22251   0.02380   0.00000  Uiso   1.00
H38    H     0.24760   0.22791   0.47650   0.00000  Uiso   1.00
C39    C     0.12376   0.23495   0.09632   0.00000  Uiso   1.00
C40    C     0.21091   0.23791   0.40385   0.00000  Uiso   1.00
H41    H     0.08993   0.22287   0.11100   0.00000  Uiso   1.00
H42    H     0.24573   0.22808   0.38933   0.00000  Uiso   1.00
N43    N     0.16667   0.24999   0.12624   0.00000  Uiso   1.00
N44    N     0.16667   0.25001   0.37376   0.00000  Uiso   1.00
C45    C     0.20966   0.26491   0.10796   0.00000  Uiso   1.00
C46    C     0.12258   0.26230   0.39196   0.00000  Uiso   1.00
H47    H     0.24345   0.27706   0.13176   0.00000  Uiso   1.00
H48    H     0.08776   0.27240   0.36813   0.00000  Uiso   1.00
C49    C     0.21070   0.26480   0.05845   0.00000  Uiso   1.00
C50    C     0.12171   0.26219   0.44150   0.00000  Uiso   1.00
H51    H     0.24532   0.27713   0.04513   0.00000  Uiso   1.00
H52    H     0.08615   0.27234   0.45473   0.00000  Uiso   1.00
C53    C     0.16683   0.24985   0.02666   0.00000  Uiso   1.00
C54    C     0.16683   0.24998   0.47341   0.00000  Uiso   1.00
C55    C     0.25462   0.12110   0.20770   0.00000  Uiso   1.00
C56    C     0.24091   0.12329   0.15316   0.00000  Uiso   1.00
C57    C     0.27951   0.15302   0.13162   0.00000  Uiso   1.00
H58    H     0.27828   0.18770   0.14548   0.00000  Uiso   1.00
H59    H     0.32010   0.13966   0.14048   0.00000  Uiso   1.00
H60    H     0.26867   0.15397   0.09220   0.00000  Uiso   1.00
H61    H     0.24195   0.08913   0.13784   0.00000  Uiso   1.00
H62    H     0.20061   0.13695   0.14295   0.00000  Uiso   1.00
H63    H     0.25877   0.15551   0.22245   0.00000  Uiso   1.00
H64    H     0.29416   0.10618   0.21785   0.00000  Uiso   1.00
C65    C     0.25690   0.37812   0.31347   0.00000  Uiso   1.00
C66    C     0.24587   0.37501   0.36510   0.00000  Uiso   1.00
C67    C     0.28627   0.34525   0.39522   0.00000  Uiso   1.00
H68    H     0.28557   0.31095   0.38001   0.00000  Uiso   1.00
H69    H     0.32632   0.35952   0.39655   0.00000  Uiso   1.00
H70    H     0.27691   0.34302   0.43215   0.00000  Uiso   1.00
H71    H     0.24716   0.40893   0.38127   0.00000  Uiso   1.00
H72    H     0.20608   0.36085   0.36580   0.00000  Uiso   1.00
H73    H     0.26030   0.34392   0.29901   0.00000  Uiso   1.00
H74    H     0.29614   0.39310   0.31267   0.00000  Uiso   1.00
N75    N     0.25189   0.02340   0.20618   0.00000  Uiso   1.00
O76    O     0.30179   0.02514   0.22270   0.00000  Uiso   1.00
O77    O     0.23549   0.49575   0.17173   0.00000  Uiso   1.00
N78    N     0.25372   0.47589   0.31604   0.00000  Uiso   1.00
O79    O     0.30325   0.47418   0.31161   0.00000  Uiso   1.00
O80    O     0.23844   0.00337   0.34682   0.00000  Uiso   1.00
O81    O     0.50000   0.18453   0.28974   0.00000  Uiso   1.00
O82    O     0.50000   0.31546   0.21026   0.00000  Uiso   1.00
O83    O     0.50000   0.18453   0.21026   0.00000  Uiso   1.00
O84    O     0.50000   0.31547   0.28974   0.00000  Uiso   1.00
C85    C     0.50179   0.16398   0.25024   0.00000  Uiso   1.00
C86    C     0.50166   0.33600   0.25023   0.00000  Uiso   1.00
O87    O     0.42392   0.25000   0.28044   0.00000  Uiso   1.00
O88    O     0.57608   0.25000   0.21956   0.00000  Uiso   1.00
O89    O     0.42392   0.24999   0.20096   0.00000  Uiso   1.00
O90    O     0.57608   0.25000   0.29904   0.00000  Uiso   1.00
C91    C     0.40034   0.25000   0.23754   0.00000  Uiso   1.00
C92    C     0.59966   0.24999   0.26246   0.00000  Uiso   1.00
Zn93   Zn    0.50000   0.25000   0.30307   0.00000  Uiso   1.00
Zn94   Zn    0.50000   0.24999   0.19693   0.00000  Uiso   1.00
C95    C     0.34532   0.25013   0.23081   0.00000  Uiso   1.00
C96    C     0.65466   0.24991   0.26921   0.00000  Uiso   1.00
H97    H     0.65807   0.25051   0.19439   0.00000  Uiso   1.00
H98    H     0.34190   0.24961   0.30564   0.00000  Uiso   1.00
C99    C     0.47290   0.04604   0.27330   0.00000  Uiso   1.00
C100   C     0.47178   0.45414   0.22114   0.00000  Uiso   1.00
H101   H     0.44457   0.02740   0.29023   0.00000  Uiso   1.00
H102   H     0.44274   0.47299   0.19742   0.00000  Uiso   1.00
C103   C     0.47130   0.09204   0.27315   0.00000  Uiso   1.00
C104   C     0.47020   0.40814   0.22039   0.00000  Uiso   1.00
H105   H     0.44126   0.10892   0.28956   0.00000  Uiso   1.00
H106   H     0.43944   0.39145   0.19646   0.00000  Uiso   1.00
C107   C     0.50726   0.11618   0.25100   0.00000  Uiso   1.00
C108   C     0.50722   0.38375   0.25103   0.00000  Uiso   1.00
C109   C     0.54699   0.09457   0.22966   0.00000  Uiso   1.00
C110   C     0.54794   0.40503   0.28227   0.00000  Uiso   1.00
C111   C     0.54792   0.04750   0.22950   0.00000  Uiso   1.00
C112   C     0.54877   0.45210   0.28329   0.00000  Uiso   1.00
C113   C     0.51065   0.02403   0.25152   0.00000  Uiso   1.00
C114   C     0.51050   0.47586   0.25241   0.00000  Uiso   1.00
C115   C     0.45623   0.23487   0.04653   0.00000  Uiso   1.00
C116   C     0.54527   0.23797   0.45367   0.00000  Uiso   1.00
H117   H     0.42167   0.22251   0.02380   0.00000  Uiso   1.00
H118   H     0.58093   0.22791   0.47650   0.00000  Uiso   1.00
C119   C     0.45710   0.23495   0.09632   0.00000  Uiso   1.00
C120   C     0.54425   0.23791   0.40385   0.00000  Uiso   1.00
H121   H     0.42326   0.22287   0.11100   0.00000  Uiso   1.00
H122   H     0.57907   0.22808   0.38933   0.00000  Uiso   1.00
N123   N     0.50000   0.24999   0.12624   0.00000  Uiso   1.00
N124   N     0.50000   0.25001   0.37376   0.00000  Uiso   1.00
C125   C     0.54299   0.26491   0.10796   0.00000  Uiso   1.00
C126   C     0.45591   0.26230   0.39196   0.00000  Uiso   1.00
H127   H     0.57679   0.27706   0.13176   0.00000  Uiso   1.00
H128   H     0.42109   0.27240   0.36813   0.00000  Uiso   1.00
C129   C     0.54403   0.26480   0.05845   0.00000  Uiso   1.00
C130   C     0.45504   0.26219   0.44150   0.00000  Uiso   1.00
H131   H     0.57865   0.27713   0.04513   0.00000  Uiso   1.00
H132   H     0.41948   0.27234   0.45473   0.00000  Uiso   1.00
C133   C     0.50016   0.24985   0.02666   0.00000  Uiso   1.00
C134   C     0.50016   0.24998   0.47341   0.00000  Uiso   1.00
C135   C     0.58795   0.12110   0.20770   0.00000  Uiso   1.00
C136   C     0.57424   0.12329   0.15316   0.00000  Uiso   1.00
C137   C     0.61284   0.15302   0.13162   0.00000  Uiso   1.00
H138   H     0.61161   0.18770   0.14548   0.00000  Uiso   1.00
H139   H     0.65343   0.13966   0.14048   0.00000  Uiso   1.00
H140   H     0.60200   0.15397   0.09220   0.00000  Uiso   1.00
H141   H     0.57528   0.08913   0.13784   0.00000  Uiso   1.00
H142   H     0.53395   0.13695   0.14295   0.00000  Uiso   1.00
H143   H     0.59210   0.15551   0.22245   0.00000  Uiso   1.00
H144   H     0.62750   0.10618   0.21785   0.00000  Uiso   1.00
C145   C     0.59023   0.37812   0.31347   0.00000  Uiso   1.00
C146   C     0.57920   0.37501   0.36510   0.00000  Uiso   1.00
C147   C     0.61961   0.34525   0.39522   0.00000  Uiso   1.00
H148   H     0.61891   0.31095   0.38001   0.00000  Uiso   1.00
H149   H     0.65965   0.35952   0.39655   0.00000  Uiso   1.00
H150   H     0.61024   0.34302   0.43215   0.00000  Uiso   1.00
H151   H     0.58050   0.40893   0.38127   0.00000  Uiso   1.00
H152   H     0.53941   0.36085   0.36580   0.00000  Uiso   1.00
H153   H     0.59363   0.34392   0.29901   0.00000  Uiso   1.00
H154   H     0.62948   0.39310   0.31267   0.00000  Uiso   1.00
N155   N     0.58522   0.02340   0.20618   0.00000  Uiso   1.00
O156   O     0.63513   0.02514   0.22270   0.00000  Uiso   1.00
O157   O     0.56883   0.49575   0.17173   0.00000  Uiso   1.00
N158   N     0.58705   0.47589   0.31604   0.00000  Uiso   1.00
O159   O     0.63658   0.47418   0.31161   0.00000  Uiso   1.00
O160   O     0.57177   0.00337   0.34682   0.00000  Uiso   1.00
O161   O     0.83334   0.18453   0.28974   0.00000  Uiso   1.00
O162   O     0.83333   0.31546   0.21026   0.00000  Uiso   1.00
O163   O     0.83334   0.18453   0.21026   0.00000  Uiso   1.00
O164   O     0.83333   0.31547   0.28974   0.00000  Uiso   1.00
C165   C     0.83512   0.16398   0.25024   0.00000  Uiso   1.00
C166   C     0.83499   0.33600   0.25023   0.00000  Uiso   1.00
O167   O     0.75725   0.25000   0.28044   0.00000  Uiso   1.00
O168   O     0.90942   0.25000   0.21956   0.00000  Uiso   1.00
O169   O     0.75725   0.24999   0.20096   0.00000  Uiso   1.00
O170   O     0.90942   0.25000   0.29904   0.00000  Uiso   1.00
C171   C     0.73367   0.25000   0.23754   0.00000  Uiso   1.00
C172   C     0.93299   0.24999   0.26246   0.00000  Uiso   1.00
Zn173  Zn    0.83333   0.25000   0.30307   0.00000  Uiso   1.00
Zn174  Zn    0.83333   0.24999   0.19693   0.00000  Uiso   1.00
C175   C     0.67865   0.25013   0.23081   0.00000  Uiso   1.00
C176   C     0.98800   0.24991   0.26921   0.00000  Uiso   1.00
H177   H     0.99140   0.25051   0.19439   0.00000  Uiso   1.00
H178   H     0.67524   0.24961   0.30564   0.00000  Uiso   1.00
C179   C     0.80624   0.04604   0.27330   0.00000  Uiso   1.00
C180   C     0.80511   0.45414   0.22114   0.00000  Uiso   1.00
H181   H     0.77791   0.02740   0.29023   0.00000  Uiso   1.00
H182   H     0.77607   0.47299   0.19742   0.00000  Uiso   1.00
C183   C     0.80463   0.09204   0.27315   0.00000  Uiso   1.00
C184   C     0.80353   0.40814   0.22039   0.00000  Uiso   1.00
H185   H     0.77459   0.10892   0.28956   0.00000  Uiso   1.00
H186   H     0.77277   0.39145   0.19646   0.00000  Uiso   1.00
C187   C     0.84060   0.11618   0.25100   0.00000  Uiso   1.00
C188   C     0.84055   0.38375   0.25103   0.00000  Uiso   1.00
C189   C     0.88032   0.09457   0.22966   0.00000  Uiso   1.00
C190   C     0.88127   0.40503   0.28227   0.00000  Uiso   1.00
C191   C     0.88126   0.04750   0.22950   0.00000  Uiso   1.00
C192   C     0.88211   0.45210   0.28329   0.00000  Uiso   1.00
C193   C     0.84399   0.02403   0.25152   0.00000  Uiso   1.00
C194   C     0.84383   0.47586   0.25241   0.00000  Uiso   1.00
C195   C     0.78957   0.23487   0.04653   0.00000  Uiso   1.00
C196   C     0.87861   0.23797   0.45367   0.00000  Uiso   1.00
H197   H     0.75500   0.22251   0.02380   0.00000  Uiso   1.00
H198   H     0.91426   0.22791   0.47650   0.00000  Uiso   1.00
C199   C     0.79043   0.23495   0.09632   0.00000  Uiso   1.00
C200   C     0.87758   0.23791   0.40385   0.00000  Uiso   1.00
H201   H     0.75659   0.22287   0.11100   0.00000  Uiso   1.00
H202   H     0.91240   0.22808   0.38933   0.00000  Uiso   1.00
N203   N     0.83333   0.24999   0.12624   0.00000  Uiso   1.00
N204   N     0.83333   0.25001   0.37376   0.00000  Uiso   1.00
C205   C     0.87633   0.26491   0.10796   0.00000  Uiso   1.00
C206   C     0.78924   0.26230   0.39196   0.00000  Uiso   1.00
H207   H     0.91012   0.27706   0.13176   0.00000  Uiso   1.00
H208   H     0.75443   0.27240   0.36813   0.00000  Uiso   1.00
C209   C     0.87737   0.26480   0.05845   0.00000  Uiso   1.00
C210   C     0.78838   0.26219   0.44150   0.00000  Uiso   1.00
H211   H     0.91199   0.27713   0.04513   0.00000  Uiso   1.00
H212   H     0.75281   0.27234   0.45473   0.00000  Uiso   1.00
C213   C     0.83349   0.24985   0.02666   0.00000  Uiso   1.00
C214   C     0.83350   0.24998   0.47341   0.00000  Uiso   1.00
C215   C     0.92129   0.12110   0.20770   0.00000  Uiso   1.00
C216   C     0.90757   0.12329   0.15316   0.00000  Uiso   1.00
C217   C     0.94618   0.15302   0.13162   0.00000  Uiso   1.00
H218   H     0.94495   0.18770   0.14548   0.00000  Uiso   1.00
H219   H     0.98677   0.13966   0.14048   0.00000  Uiso   1.00
H220   H     0.93534   0.15397   0.09220   0.00000  Uiso   1.00
H221   H     0.90861   0.08913   0.13784   0.00000  Uiso   1.00
H222   H     0.86728   0.13695   0.14295   0.00000  Uiso   1.00
H223   H     0.92543   0.15551   0.22245   0.00000  Uiso   1.00
H224   H     0.96083   0.10618   0.21785   0.00000  Uiso   1.00
C225   C     0.92357   0.37812   0.31347   0.00000  Uiso   1.00
C226   C     0.91254   0.37501   0.36510   0.00000  Uiso   1.00
C227   C     0.95294   0.34525   0.39522   0.00000  Uiso   1.00
H228   H     0.95224   0.31095   0.38001   0.00000  Uiso   1.00
H229   H     0.99299   0.35952   0.39655   0.00000  Uiso   1.00
H230   H     0.94358   0.34302   0.43215   0.00000  Uiso   1.00
H231   H     0.91383   0.40893   0.38127   0.00000  Uiso   1.00
H232   H     0.87274   0.36085   0.36580   0.00000  Uiso   1.00
H233   H     0.92697   0.34392   0.29901   0.00000  Uiso   1.00
H234   H     0.96281   0.39310   0.31267   0.00000  Uiso   1.00
N235   N     0.91855   0.02340   0.20618   0.00000  Uiso   1.00
O236   O     0.96846   0.02514   0.22270   0.00000  Uiso   1.00
O237   O     0.90216   0.49575   0.17173   0.00000  Uiso   1.00
N238   N     0.92038   0.47589   0.31604   0.00000  Uiso   1.00
O239   O     0.96992   0.47418   0.31161   0.00000  Uiso   1.00
O240   O     0.90511   0.00337   0.34682   0.00000  Uiso   1.00
O241   O     0.16667   0.68453   0.28974   0.00000  Uiso   1.00
O242   O     0.16666   0.81546   0.21026   0.00000  Uiso   1.00
O243   O     0.16667   0.68453   0.21026   0.00000  Uiso   1.00
O244   O     0.16666   0.81547   0.28974   0.00000  Uiso   1.00
C245   C     0.16845   0.66398   0.25024   0.00000  Uiso   1.00
C246   C     0.16833   0.83600   0.25023   0.00000  Uiso   1.00
O247   O     0.09058   0.75000   0.28044   0.00000  Uiso   1.00
O248   O     0.24275   0.75000   0.21956   0.00000  Uiso   1.00
O249   O     0.09058   0.74999   0.20096   0.00000  Uiso   1.00
O250   O     0.24275   0.75000   0.29904   0.00000  Uiso   1.00
C251   C     0.06700   0.75000   0.23754   0.00000  Uiso   1.00
C252   C     0.26633   0.74999   0.26246   0.00000  Uiso   1.00
Zn253  Zn    0.16667   0.75000   0.30307   0.00000  Uiso   1.00
Zn254  Zn    0.16667   0.74999   0.19693   0.00000  Uiso   1.00
C255   C     0.01199   0.75013   0.23081   0.00000  Uiso   1.00
C256   C     0.32133   0.74991   0.26921   0.00000  Uiso   1.00
H257   H     0.32474   0.75051   0.19439   0.00000  Uiso   1.00
H258   H     0.00857   0.74961   0.30564   0.00000  Uiso   1.00
C259   C     0.13957   0.54604   0.27330   0.00000  Uiso   1.00
C260   C     0.13844   0.95414   0.22114   0.00000  Uiso   1.00
H261   H     0.11124   0.52740   0.29023   0.00000  Uiso   1.00
H262   H     0.10940   0.97299   0.19742   0.00000  Uiso   1.00
C263   C     0.13796   0.59204   0.27315   0.00000  Uiso   1.00
C264   C     0.13687   0.90814   0.22039   0.00000  Uiso   1.00
H265   H     0.10793   0.60892   0.28956   0.00000  Uiso   1.00
H266   H     0.10611   0.89145   0.19646   0.00000  Uiso   1.00
C267   C     0.17393   0.61618   0.25100   0.00000  Uiso   1.00
C268   C     0.17388   0.88375   0.25103   0.00000  Uiso   1.00
C269   C     0.21365   0.59457   0.22966   0.00000  Uiso   1.00
C270   C     0.21460   0.90503   0.28227   0.00000  Uiso   1.00
C271   C     0.21459   0.54750   0.22950   0.00000  Uiso   1.00
C272   C     0.21544   0.95210   0.28329   0.00000  Uiso   1.00
C273   C     0.17732   0.52403   0.25152   0.00000  Uiso   1.00
C274   C     0.17716   0.97586   0.25241   0.00000  Uiso   1.00
C275   C     0.12290   0.73487   0.04653   0.00000  Uiso   1.00
C276   C     0.21194   0.73797   0.45367   0.00000  Uiso   1.00
H277   H     0.08833   0.72251   0.02380   0.00000  Uiso   1.00
H278   H     0.24760   0.72791   0.47650   0.00000  Uiso   1.00
C279   C     0.12376   0.73495   0.09632   0.00000  Uiso   1.00
C280   C     0.21091   0.73791   0.40385   0.00000  Uiso   1.00
H281   H     0.08993   0.72287   0.11100   0.00000  Uiso   1.00
H282   H     0.24573   0.72808   0.38933   0.00000  Uiso   1.00
N283   N     0.16667   0.74999   0.12624   0.00000  Uiso   1.00
N284   N     0.16667   0.75001   0.37376   0.00000  Uiso   1.00
C285   C     0.20966   0.76491   0.10796   0.00000  Uiso   1.00
C286   C     0.12258   0.76230   0.39196   0.00000  Uiso   1.00
H287   H     0.24345   0.77706   0.13176   0.00000  Uiso   1.00
H288   H     0.08776   0.77240   0.36813   0.00000  Uiso   1.00
C289   C     0.21070   0.76480   0.05845   0.00000  Uiso   1.00
C290   C     0.12171   0.76219   0.44150   0.00000  Uiso   1.00
H291   H     0.24532   0.77713   0.04513   0.00000  Uiso   1.00
H292   H     0.08615   0.77234   0.45473   0.00000  Uiso   1.00
C293   C     0.16683   0.74985   0.02666   0.00000  Uiso   1.00
C294   C     0.16683   0.74998   0.47341   0.00000  Uiso   1.00
C295   C     0.25462   0.62110   0.20770   0.00000  Uiso   1.00
C296   C     0.24091   0.62329   0.15316   0.00000  Uiso   1.00
C297   C     0.27951   0.65302   0.13162   0.00000  Uiso   1.00
H298   H     0.27828   0.68770   0.14548   0.00000  Uiso   1.00
H299   H     0.32010   0.63966   0.14048   0.00000  Uiso   1.00
H300   H     0.26867   0.65397   0.09220   0.00000  Uiso   1.00
H301   H     0.24195   0.58913   0.13784   0.00000  Uiso   1.00
H302   H     0.20061   0.63695   0.14295   0.00000  Uiso   1.00
H303   H     0.25877   0.65551   0.22245   0.00000  Uiso   1.00
H304   H     0.29416   0.60618   0.21785   0.00000  Uiso   1.00
C305   C     0.25690   0.87812   0.31347   0.00000  Uiso   1.00
C306   C     0.24587   0.87501   0.36510   0.00000  Uiso   1.00
C307   C     0.28627   0.84525   0.39522   0.00000  Uiso   1.00
H308   H     0.28557   0.81095   0.38001   0.00000  Uiso   1.00
H309   H     0.32632   0.85952   0.39655   0.00000  Uiso   1.00
H310   H     0.27691   0.84302   0.43215   0.00000  Uiso   1.00
H311   H     0.24716   0.90893   0.38127   0.00000  Uiso   1.00
H312   H     0.20608   0.86085   0.36580   0.00000  Uiso   1.00
H313   H     0.26030   0.84392   0.29901   0.00000  Uiso   1.00
H314   H     0.29614   0.89310   0.31267   0.00000  Uiso   1.00
N315   N     0.25189   0.52340   0.20618   0.00000  Uiso   1.00
O316   O     0.30179   0.52514   0.22270   0.00000  Uiso   1.00
O317   O     0.23549   0.99575   0.17173   0.00000  Uiso   1.00
N318   N     0.25372   0.97589   0.31604   0.00000  Uiso   1.00
O319   O     0.30325   0.97418   0.31161   0.00000  Uiso   1.00
O320   O     0.23844   0.50337   0.34682   0.00000  Uiso   1.00
O321   O     0.50000   0.68453   0.28974   0.00000  Uiso   1.00
O322   O     0.50000   0.81546   0.21026   0.00000  Uiso   1.00
O323   O     0.50000   0.68453   0.21026   0.00000  Uiso   1.00
O324   O     0.50000   0.81547   0.28974   0.00000  Uiso   1.00
C325   C     0.50179   0.66398   0.25024   0.00000  Uiso   1.00
C326   C     0.50166   0.83600   0.25023   0.00000  Uiso   1.00
O327   O     0.42392   0.75000   0.28044   0.00000  Uiso   1.00
O328   O     0.57608   0.75000   0.21956   0.00000  Uiso   1.00
O329   O     0.42392   0.74999   0.20096   0.00000  Uiso   1.00
O330   O     0.57608   0.75000   0.29904   0.00000  Uiso   1.00
C331   C     0.40034   0.75000   0.23754   0.00000  Uiso   1.00
C332   C     0.59966   0.74999   0.26246   0.00000  Uiso   1.00
Zn333  Zn    0.50000   0.75000   0.30307   0.00000  Uiso   1.00
Zn334  Zn    0.50000   0.74999   0.19693   0.00000  Uiso   1.00
C335   C     0.34532   0.75013   0.23081   0.00000  Uiso   1.00
C336   C     0.65466   0.74991   0.26921   0.00000  Uiso   1.00
H337   H     0.65807   0.75051   0.19439   0.00000  Uiso   1.00
H338   H     0.34190   0.74961   0.30564   0.00000  Uiso   1.00
C339   C     0.47290   0.54604   0.27330   0.00000  Uiso   1.00
C340   C     0.47178   0.95414   0.22114   0.00000  Uiso   1.00
H341   H     0.44457   0.52740   0.29023   0.00000  Uiso   1.00
H342   H     0.44274   0.97299   0.19742   0.00000  Uiso   1.00
C343   C     0.47130   0.59204   0.27315   0.00000  Uiso   1.00
C344   C     0.47020   0.90814   0.22039   0.00000  Uiso   1.00
H345   H     0.44126   0.60892   0.28956   0.00000  Uiso   1.00
H346   H     0.43944   0.89145   0.19646   0.00000  Uiso   1.00
C347   C     0.50726   0.61618   0.25100   0.00000  Uiso   1.00
C348   C     0.50722   0.88375   0.25103   0.00000  Uiso   1.00
C349   C     0.54699   0.59457   0.22966   0.00000  Uiso   1.00
C350   C     0.54794   0.90503   0.28227   0.00000  Uiso   1.00
C351   C     0.54792   0.54750   0.22950   0.00000  Uiso   1.00
C352   C     0.54877   0.95210   0.28329   0.00000  Uiso   1.00
C353   C     0.51065   0.52403   0.25152   0.00000  Uiso   1.00
C354   C     0.51050   0.97586   0.25241   0.00000  Uiso   1.00
C355   C     0.45623   0.73487   0.04653   0.00000  Uiso   1.00
C356   C     0.54527   0.73797   0.45367   0.00000  Uiso   1.00
H357   H     0.42167   0.72251   0.02380   0.00000  Uiso   1.00
H358   H     0.58093   0.72791   0.47650   0.00000  Uiso   1.00
C359   C     0.45710   0.73495   0.09632   0.00000  Uiso   1.00
C360   C     0.54425   0.73791   0.40385   0.00000  Uiso   1.00
H361   H     0.42326   0.72287   0.11100   0.00000  Uiso   1.00
H362   H     0.57907   0.72808   0.38933   0.00000  Uiso   1.00
N363   N     0.50000   0.74999   0.12624   0.00000  Uiso   1.00
N364   N     0.50000   0.75001   0.37376   0.00000  Uiso   1.00
C365   C     0.54299   0.76491   0.10796   0.00000  Uiso   1.00
C366   C     0.45591   0.76230   0.39196   0.00000  Uiso   1.00
H367   H     0.57679   0.77706   0.13176   0.00000  Uiso   1.00
H368   H     0.42109   0.77240   0.36813   0.00000  Uiso   1.00
C369   C     0.54403   0.76480   0.05845   0.00000  Uiso   1.00
C370   C     0.45504   0.76219   0.44150   0.00000  Uiso   1.00
H371   H     0.57865   0.77713   0.04513   0.00000  Uiso   1.00
H372   H     0.41948   0.77234   0.45473   0.00000  Uiso   1.00
C373   C     0.50016   0.74985   0.02666   0.00000  Uiso   1.00
C374   C     0.50016   0.74998   0.47341   0.00000  Uiso   1.00
C375   C     0.58795   0.62110   0.20770   0.00000  Uiso   1.00
C376   C     0.57424   0.62329   0.15316   0.00000  Uiso   1.00
C377   C     0.61284   0.65302   0.13162   0.00000  Uiso   1.00
H378   H     0.61161   0.68770   0.14548   0.00000  Uiso   1.00
H379   H     0.65343   0.63966   0.14048   0.00000  Uiso   1.00
H380   H     0.60200   0.65397   0.09220   0.00000  Uiso   1.00
H381   H     0.57528   0.58913   0.13784   0.00000  Uiso   1.00
H382   H     0.53395   0.63695   0.14295   0.00000  Uiso   1.00
H383   H     0.59210   0.65551   0.22245   0.00000  Uiso   1.00
H384   H     0.62750   0.60618   0.21785   0.00000  Uiso   1.00
C385   C     0.59023   0.87812   0.31347   0.00000  Uiso   1.00
C386   C     0.57920   0.87501   0.36510   0.00000  Uiso   1.00
C387   C     0.61961   0.84525   0.39522   0.00000  Uiso   1.00
H388   H     0.61891   0.81095   0.38001   0.00000  Uiso   1.00
H389   H     0.65965   0.85952   0.39655   0.00000  Uiso   1.00
H390   H     0.61024   0.84302   0.43215   0.00000  Uiso   1.00
H391   H     0.58050   0.90893   0.38127   0.00000  Uiso   1.00
H392   H     0.53941   0.86085   0.36580   0.00000  Uiso   1.00
H393   H     0.59363   0.84392   0.29901   0.00000  Uiso   1.00
H394   H     0.62948   0.89310   0.31267   0.00000  Uiso   1.00
N395   N     0.58522   0.52340   0.20618   0.00000  Uiso   1.00
O396   O     0.63513   0.52514   0.22270   0.00000  Uiso   1.00
O397   O     0.56883   0.99575   0.17173   0.00000  Uiso   1.00
N398   N     0.58705   0.97589   0.31604   0.00000  Uiso   1.00
O399   O     0.63658   0.97418   0.31161   0.00000  Uiso   1.00
O400   O     0.57177   0.50337   0.34682   0.00000  Uiso   1.00
O401   O     0.83334   0.68453   0.28974   0.00000  Uiso   1.00
O402   O     0.83333   0.81546   0.21026   0.00000  Uiso   1.00
O403   O     0.83334   0.68453   0.21026   0.00000  Uiso   1.00
O404   O     0.83333   0.81547   0.28974   0.00000  Uiso   1.00
C405   C     0.83512   0.66398   0.25024   0.00000  Uiso   1.00
C406   C     0.83499   0.83600   0.25023   0.00000  Uiso   1.00
O407   O     0.75725   0.75000   0.28044   0.00000  Uiso   1.00
O408   O     0.90942   0.75000   0.21956   0.00000  Uiso   1.00
O409   O     0.75725   0.74999   0.20096   0.00000  Uiso   1.00
O410   O     0.90942   0.75000   0.29904   0.00000  Uiso   1.00
C411   C     0.73367   0.75000   0.23754   0.00000  Uiso   1.00
C412   C     0.93299   0.74999   0.26246   0.00000  Uiso   1.00
Zn413  Zn    0.83333   0.75000   0.30307   0.00000  Uiso   1.00
Zn414  Zn    0.83333   0.74999   0.19693   0.00000  Uiso   1.00
C415   C     0.67865   0.75013   0.23081   0.00000  Uiso   1.00
C416   C     0.98800   0.74991   0.26921   0.00000  Uiso   1.00
H417   H     0.99140   0.75051   0.19439   0.00000  Uiso   1.00
H418   H     0.67524   0.74961   0.30564   0.00000  Uiso   1.00
C419   C     0.80624   0.54604   0.27330   0.00000  Uiso   1.00
C420   C     0.80511   0.95414   0.22114   0.00000  Uiso   1.00
H421   H     0.77791   0.52740   0.29023   0.00000  Uiso   1.00
H422   H     0.77607   0.97299   0.19742   0.00000  Uiso   1.00
C423   C     0.80463   0.59204   0.27315   0.00000  Uiso   1.00
C424   C     0.80353   0.90814   0.22039   0.00000  Uiso   1.00
H425   H     0.77459   0.60892   0.28956   0.00000  Uiso   1.00
H426   H     0.77277   0.89145   0.19646   0.00000  Uiso   1.00
C427   C     0.84060   0.61618   0.25100   0.00000  Uiso   1.00
C428   C     0.84055   0.88375   0.25103   0.00000  Uiso   1.00
C429   C     0.88032   0.59457   0.22966   0.00000  Uiso   1.00
C430   C     0.88127   0.90503   0.28227   0.00000  Uiso   1.00
C431   C     0.88126   0.54750   0.22950   0.00000  Uiso   1.00
C432   C     0.88211   0.95210   0.28329   0.00000  Uiso   1.00
C433   C     0.84399   0.52403   0.25152   0.00000  Uiso   1.00
C434   C     0.84383   0.97586   0.25241   0.00000  Uiso   1.00
C435   C     0.78957   0.73487   0.04653   0.00000  Uiso   1.00
C436   C     0.87861   0.73797   0.45367   0.00000  Uiso   1.00
H437   H     0.75500   0.72251   0.02380   0.00000  Uiso   1.00
H438   H     0.91426   0.72791   0.47650   0.00000  Uiso   1.00
C439   C     0.79043   0.73495   0.09632   0.00000  Uiso   1.00
C440   C     0.87758   0.73791   0.40385   0.00000  Uiso   1.00
H441   H     0.75659   0.72287   0.11100   0.00000  Uiso   1.00
H442   H     0.91240   0.72808   0.38933   0.00000  Uiso   1.00
N443   N     0.83333   0.74999   0.12624   0.00000  Uiso   1.00
N444   N     0.83333   0.75001   0.37376   0.00000  Uiso   1.00
C445   C     0.87633   0.76491   0.10796   0.00000  Uiso   1.00
C446   C     0.78924   0.76230   0.39196   0.00000  Uiso   1.00
H447   H     0.91012   0.77706   0.13176   0.00000  Uiso   1.00
H448   H     0.75443   0.77240   0.36813   0.00000  Uiso   1.00
C449   C     0.87737   0.76480   0.05845   0.00000  Uiso   1.00
C450   C     0.78838   0.76219   0.44150   0.00000  Uiso   1.00
H451   H     0.91199   0.77713   0.04513   0.00000  Uiso   1.00
H452   H     0.75281   0.77234   0.45473   0.00000  Uiso   1.00
C453   C     0.83349   0.74985   0.02666   0.00000  Uiso   1.00
C454   C     0.83350   0.74998   0.47341   0.00000  Uiso   1.00
C455   C     0.92129   0.62110   0.20770   0.00000  Uiso   1.00
C456   C     0.90757   0.62329   0.15316   0.00000  Uiso   1.00
C457   C     0.94618   0.65302   0.13162   0.00000  Uiso   1.00
H458   H     0.94495   0.68770   0.14548   0.00000  Uiso   1.00
H459   H     0.98677   0.63966   0.14048   0.00000  Uiso   1.00
H460   H     0.93534   0.65397   0.09220   0.00000  Uiso   1.00
H461   H     0.90861   0.58913   0.13784   0.00000  Uiso   1.00
H462   H     0.86728   0.63695   0.14295   0.00000  Uiso   1.00
H463   H     0.92543   0.65551   0.22245   0.00000  Uiso   1.00
H464   H     0.96083   0.60618   0.21785   0.00000  Uiso   1.00
C465   C     0.92357   0.87812   0.31347   0.00000  Uiso   1.00
C466   C     0.91254   0.87501   0.36510   0.00000  Uiso   1.00
C467   C     0.95294   0.84525   0.39522   0.00000  Uiso   1.00
H468   H     0.95224   0.81095   0.38001   0.00000  Uiso   1.00
H469   H     0.99299   0.85952   0.39655   0.00000  Uiso   1.00
H470   H     0.94358   0.84302   0.43215   0.00000  Uiso   1.00
H471   H     0.91383   0.90893   0.38127   0.00000  Uiso   1.00
H472   H     0.87274   0.86085   0.36580   0.00000  Uiso   1.00
H473   H     0.92697   0.84392   0.29901   0.00000  Uiso   1.00
H474   H     0.96281   0.89310   0.31267   0.00000  Uiso   1.00
N475   N     0.91855   0.52340   0.20618   0.00000  Uiso   1.00
O476   O     0.96846   0.52514   0.22270   0.00000  Uiso   1.00
O477   O     0.90216   0.99575   0.17173   0.00000  Uiso   1.00
N478   N     0.92038   0.97589   0.31604   0.00000  Uiso   1.00
O479   O     0.96992   0.97418   0.31161   0.00000  Uiso   1.00
O480   O     0.90511   0.50337   0.34682   0.00000  Uiso   1.00
O481   O     0.16667   0.18453   0.78974   0.00000  Uiso   1.00
O482   O     0.16666   0.31546   0.71026   0.00000  Uiso   1.00
O483   O     0.16667   0.18453   0.71026   0.00000  Uiso   1.00
O484   O     0.16666   0.31547   0.78974   0.00000  Uiso   1.00
C485   C     0.16845   0.16398   0.75024   0.00000  Uiso   1.00
C486   C     0.16833   0.33600   0.75023   0.00000  Uiso   1.00
O487   O     0.09058   0.25000   0.78044   0.00000  Uiso   1.00
O488   O     0.24275   0.25000   0.71956   0.00000  Uiso   1.00
O489   O     0.09058   0.24999   0.70096   0.00000  Uiso   1.00
O490   O     0.24275   0.25000   0.79904   0.00000  Uiso   1.00
C491   C     0.06700   0.25000   0.73754   0.00000  Uiso   1.00
C492   C     0.26633   0.24999   0.76246   0.00000  Uiso   1.00
Zn493  Zn    0.16667   0.25000   0.80307   0.00000  Uiso   1.00
Zn494  Zn    0.16667   0.24999   0.69693   0.00000  Uiso   1.00
C495   C     0.01199   0.25013   0.73081   0.00000  Uiso   1.00
C496   C     0.32133   0.24991   0.76921   0.00000  Uiso   1.00
H497   H     0.32474   0.25051   0.69439   0.00000  Uiso   1.00
H498   H     0.00857   0.24961   0.80564   0.00000  Uiso   1.00
C499   C     0.13957   0.04604   0.77330   0.00000  Uiso   1.00
C500   C     0.13844   0.45414   0.72114   0.00000  Uiso   1.00
H501   H     0.11124   0.02740   0.79023   0.00000  Uiso   1.00
H502   H     0.10940   0.47299   0.69742   0.00000  Uiso   1.00
C503   C     0.13796   0.09204   0.77315   0.00000  Uiso   1.00
C504   C     0.13687   0.40814   0.72039   0.00000  Uiso   1.00
H505   H     0.10793   0.10892   0.78956   0.00000  Uiso   1.00
H506   H     0.10611   0.39145   0.69646   0.00000  Uiso   1.00
C507   C     0.17393   0.11618   0.75100   0.00000  Uiso   1.00
C508   C     0.17388   0.38375   0.75103   0.00000  Uiso   1.00
C509   C     0.21365   0.09457   0.72966   0.00000  Uiso   1.00
C510   C     0.21460   0.40503   0.78227   0.00000  Uiso   1.00
C511   C     0.21459   0.04750   0.72950   0.00000  Uiso   1.00
C512   C     0.21544   0.45210   0.78329   0.00000  Uiso   1.00
C513   C     0.17732   0.02403   0.75152   0.00000  Uiso   1.00
C514   C     0.17716   0.47586   0.75241   0.00000  Uiso   1.00
C515   C     0.12290   0.23487   0.54653   0.00000  Uiso   1.00
C516   C     0.21194   0.23797   0.95367   0.00000  Uiso   1.00
H517   H     0.08833   0.22251   0.52380   0.00000  Uiso   1.00
H518   H     0.24760   0.22791   0.97650   0.00000  Uiso   1.00
C519   C     0.12376   0.23495   0.59632   0.00000  Uiso   1.00
C520   C     0.21091   0.23791   0.90385   0.00000  Uiso   1.00
H521   H     0.08993   0.22287   0.61100   0.00000  Uiso   1.00
H522   H     0.24573   0.22808   0.88933   0.00000  Uiso   1.00
N523   N     0.16667   0.24999   0.62624   0.00000  Uiso   1.00
N524   N     0.16667   0.25001   0.87376   0.00000  Uiso   1.00
C525   C     0.20966   0.26491   0.60796   0.00000  Uiso   1.00
C526   C     0.12258   0.26230   0.89196   0.00000  Uiso   1.00
H527   H     0.24345   0.27706   0.63176   0.00000  Uiso   1.00
H528   H     0.08776   0.27240   0.86813   0.00000  Uiso   1.00
C529   C     0.21070   0.26480   0.55845   0.00000  Uiso   1.00
C530   C     0.12171   0.26219   0.94150   0.00000  Uiso   1.00
H531   H     0.24532   0.27713   0.54513   0.00000  Uiso   1.00
H532   H     0.08615   0.27234   0.95473   0.00000  Uiso   1.00
C533   C     0.16683   0.24985   0.52666   0.00000  Uiso   1.00
C534   C     0.16683   0.24998   0.97341   0.00000  Uiso   1.00
C535   C     0.25462   0.12110   0.70770   0.00000  Uiso   1.00
C536   C     0.24091   0.12329   0.65316   0.00000  Uiso   1.00
C537   C     0.27951   0.15302   0.63162   0.00000  Uiso   1.00
H538   H     0.27828   0.18770   0.64548   0.00000  Uiso   1.00
H539   H     0.32010   0.13966   0.64048   0.00000  Uiso   1.00
H540   H     0.26867   0.15397   0.59220   0.00000  Uiso   1.00
H541   H     0.24195   0.08913   0.63784   0.00000  Uiso   1.00
H542   H     0.20061   0.13695   0.64295   0.00000  Uiso   1.00
H543   H     0.25877   0.15551   0.72245   0.00000  Uiso   1.00
H544   H     0.29416   0.10618   0.71785   0.00000  Uiso   1.00
C545   C     0.25690   0.37812   0.81347   0.00000  Uiso   1.00
C546   C     0.24587   0.37501   0.86510   0.00000  Uiso   1.00
C547   C     0.28627   0.34525   0.89522   0.00000  Uiso   1.00
H548   H     0.28557   0.31095   0.88001   0.00000  Uiso   1.00
H549   H     0.32632   0.35952   0.89655   0.00000  Uiso   1.00
H550   H     0.27691   0.34302   0.93215   0.00000  Uiso   1.00
H551   H     0.24716   0.40893   0.88127   0.00000  Uiso   1.00
H552   H     0.20608   0.36085   0.86580   0.00000  Uiso   1.00
H553   H     0.26030   0.34392   0.79901   0.00000  Uiso   1.00
H554   H     0.29614   0.39310   0.81267   0.00000  Uiso   1.00
N555   N     0.25189   0.02340   0.70618   0.00000  Uiso   1.00
O556   O     0.30179   0.02514   0.72270   0.00000  Uiso   1.00
O557   O     0.23549   0.49575   0.67173   0.00000  Uiso   1.00
N558   N     0.25372   0.47589   0.81604   0.00000  Uiso   1.00
O559   O     0.30325   0.47418   0.81161   0.00000  Uiso   1.00
O560   O     0.23844   0.00337   0.84682   0.00000  Uiso   1.00
O561   O     0.50000   0.18453   0.78974   0.00000  Uiso   1.00
O562   O     0.50000   0.31546   0.71026   0.00000  Uiso   1.00
O563   O     0.50000   0.18453   0.71026   0.00000  Uiso   1.00
O564   O     0.50000   0.31547   0.78974   0.00000  Uiso   1.00
C565   C     0.50179   0.16398   0.75024   0.00000  Uiso   1.00
C566   C     0.50166   0.33600   0.75023   0.00000  Uiso   1.00
O567   O     0.42392   0.25000   0.78044   0.00000  Uiso   1.00
O568   O     0.57608   0.25000   0.71956   0.00000  Uiso   1.00
O569   O     0.42392   0.24999   0.70096   0.00000  Uiso   1.00
O570   O     0.57608   0.25000   0.79904   0.00000  Uiso   1.00
C571   C     0.40034   0.25000   0.73754   0.00000  Uiso   1.00
C572   C     0.59966   0.24999   0.76246   0.00000  Uiso   1.00
Zn573  Zn    0.50000   0.25000   0.80307   0.00000  Uiso   1.00
Zn574  Zn    0.50000   0.24999   0.69693   0.00000  Uiso   1.00
C575   C     0.34532   0.25013   0.73081   0.00000  Uiso   1.00
C576   C     0.65466   0.24991   0.76921   0.00000  Uiso   1.00
H577   H     0.65807   0.25051   0.69439   0.00000  Uiso   1.00
H578   H     0.34190   0.24961   0.80564   0.00000  Uiso   1.00
C579   C     0.47290   0.04604   0.77330   0.00000  Uiso   1.00
C580   C     0.47178   0.45414   0.72114   0.00000  Uiso   1.00
H581   H     0.44457   0.02740   0.79023   0.00000  Uiso   1.00
H582   H     0.44274   0.47299   0.69742   0.00000  Uiso   1.00
C583   C     0.47130   0.09204   0.77315   0.00000  Uiso   1.00
C584   C     0.47020   0.40814   0.72039   0.00000  Uiso   1.00
H585   H     0.44126   0.10892   0.78956   0.00000  Uiso   1.00
H586   H     0.43944   0.39145   0.69646   0.00000  Uiso   1.00
C587   C     0.50726   0.11618   0.75100   0.00000  Uiso   1.00
C588   C     0.50722   0.38375   0.75103   0.00000  Uiso   1.00
C589   C     0.54699   0.09457   0.72966   0.00000  Uiso   1.00
C590   C     0.54794   0.40503   0.78227   0.00000  Uiso   1.00
C591   C     0.54792   0.04750   0.72950   0.00000  Uiso   1.00
C592   C     0.54877   0.45210   0.78329   0.00000  Uiso   1.00
C593   C     0.51065   0.02403   0.75152   0.00000  Uiso   1.00
C594   C     0.51050   0.47586   0.75241   0.00000  Uiso   1.00
C595   C     0.45623   0.23487   0.54653   0.00000  Uiso   1.00
C596   C     0.54527   0.23797   0.95367   0.00000  Uiso   1.00
H597   H     0.42167   0.22251   0.52380   0.00000  Uiso   1.00
H598   H     0.58093   0.22791   0.97650   0.00000  Uiso   1.00
C599   C     0.45710   0.23495   0.59632   0.00000  Uiso   1.00
C600   C     0.54425   0.23791   0.90385   0.00000  Uiso   1.00
H601   H     0.42326   0.22287   0.61100   0.00000  Uiso   1.00
H602   H     0.57907   0.22808   0.88933   0.00000  Uiso   1.00
N603   N     0.50000   0.24999   0.62624   0.00000  Uiso   1.00
N604   N     0.50000   0.25001   0.87376   0.00000  Uiso   1.00
C605   C     0.54299   0.26491   0.60796   0.00000  Uiso   1.00
C606   C     0.45591   0.26230   0.89196   0.00000  Uiso   1.00
H607   H     0.57679   0.27706   0.63176   0.00000  Uiso   1.00
H608   H     0.42109   0.27240   0.86813   0.00000  Uiso   1.00
C609   C     0.54403   0.26480   0.55845   0.00000  Uiso   1.00
C610   C     0.45504   0.26219   0.94150   0.00000  Uiso   1.00
H611   H     0.57865   0.27713   0.54513   0.00000  Uiso   1.00
H612   H     0.41948   0.27234   0.95473   0.00000  Uiso   1.00
C613   C     0.50016   0.24985   0.52666   0.00000  Uiso   1.00
C614   C     0.50016   0.24998   0.97341   0.00000  Uiso   1.00
C615   C     0.58795   0.12110   0.70770   0.00000  Uiso   1.00
C616   C     0.57424   0.12329   0.65316   0.00000  Uiso   1.00
C617   C     0.61284   0.15302   0.63162   0.00000  Uiso   1.00
H618   H     0.61161   0.18770   0.64548   0.00000  Uiso   1.00
H619   H     0.65343   0.13966   0.64048   0.00000  Uiso   1.00
H620   H     0.60200   0.15397   0.59220   0.00000  Uiso   1.00
H621   H     0.57528   0.08913   0.63784   0.00000  Uiso   1.00
H622   H     0.53395   0.13695   0.64295   0.00000  Uiso   1.00
H623   H     0.59210   0.15551   0.72245   0.00000  Uiso   1.00
H624   H     0.62750   0.10618   0.71785   0.00000  Uiso   1.00
C625   C     0.59023   0.37812   0.81347   0.00000  Uiso   1.00
C626   C     0.57920   0.37501   0.86510   0.00000  Uiso   1.00
C627   C     0.61961   0.34525   0.89522   0.00000  Uiso   1.00
H628   H     0.61891   0.31095   0.88001   0.00000  Uiso   1.00
H629   H     0.65965   0.35952   0.89655   0.00000  Uiso   1.00
H630   H     0.61024   0.34302   0.93215   0.00000  Uiso   1.00
H631   H     0.58050   0.40893   0.88127   0.00000  Uiso   1.00
H632   H     0.53941   0.36085   0.86580   0.00000  Uiso   1.00
H633   H     0.59363   0.34392   0.79901   0.00000  Uiso   1.00
H634   H     0.62948   0.39310   0.81267   0.00000  Uiso   1.00
N635   N     0.58522   0.02340   0.70618   0.00000  Uiso   1.00
O636   O     0.63513   0.02514   0.72270   0.00000  Uiso   1.00
O637   O     0.56883   0.49575   0.67173   0.00000  Uiso   1.00
N638   N     0.58705   0.47589   0.81604   0.00000  Uiso   1.00
O639   O     0.63658   0.47418   0.81161   0.00000  Uiso   1.00
O640   O     0.57177   0.00337   0.84682   0.00000  Uiso   1.00
O641   O     0.83334   0.18453   0.78974   0.00000  Uiso   1.00
O642   O     0.83333   0.31546   0.71026   0.00000  Uiso   1.00
O643   O     0.83334   0.18453   0.71026   0.00000  Uiso   1.00
O644   O     0.83333   0.31547   0.78974   0.00000  Uiso   1.00
C645   C     0.83512   0.16398   0.75024   0.00000  Uiso   1.00
C646   C     0.83499   0.33600   0.75023   0.00000  Uiso   1.00
O647   O     0.75725   0.25000   0.78044   0.00000  Uiso   1.00
O648   O     0.90942   0.25000   0.71956   0.00000  Uiso   1.00
O649   O     0.75725   0.24999   0.70096   0.00000  Uiso   1.00
O650   O     0.90942   0.25000   0.79904   0.00000  Uiso   1.00
C651   C     0.73367   0.25000   0.73754   0.00000  Uiso   1.00
C652   C     0.93299   0.24999   0.76246   0.00000  Uiso   1.00
Zn653  Zn    0.83333   0.25000   0.80307   0.00000  Uiso   1.00
Zn654  Zn    0.83333   0.24999   0.69693   0.00000  Uiso   1.00
C655   C     0.67865   0.25013   0.73081   0.00000  Uiso   1.00
C656   C     0.98800   0.24991   0.76921   0.00000  Uiso   1.00
H657   H     0.99140   0.25051   0.69439   0.00000  Uiso   1.00
H658   H     0.67524   0.24961   0.80564   0.00000  Uiso   1.00
C659   C     0.80624   0.04604   0.77330   0.00000  Uiso   1.00
C660   C     0.80511   0.45414   0.72114   0.00000  Uiso   1.00
H661   H     0.77791   0.02740   0.79023   0.00000  Uiso   1.00
H662   H     0.77607   0.47299   0.69742   0.00000  Uiso   1.00
C663   C     0.80463   0.09204   0.77315   0.00000  Uiso   1.00
C664   C     0.80353   0.40814   0.72039   0.00000  Uiso   1.00
H665   H     0.77459   0.10892   0.78956   0.00000  Uiso   1.00
H666   H     0.77277   0.39145   0.69646   0.00000  Uiso   1.00
C667   C     0.84060   0.11618   0.75100   0.00000  Uiso   1.00
C668   C     0.84055   0.38375   0.75103   0.00000  Uiso   1.00
C669   C     0.88032   0.09457   0.72966   0.00000  Uiso   1.00
C670   C     0.88127   0.40503   0.78227   0.00000  Uiso   1.00
C671   C     0.88126   0.04750   0.72950   0.00000  Uiso   1.00
C672   C     0.88211   0.45210   0.78329   0.00000  Uiso   1.00
C673   C     0.84399   0.02403   0.75152   0.00000  Uiso   1.00
C674   C     0.84383   0.47586   0.75241   0.00000  Uiso   1.00
C675   C     0.78957   0.23487   0.54653   0.00000  Uiso   1.00
C676   C     0.87861   0.23797   0.95367   0.00000  Uiso   1.00
H677   H     0.75500   0.22251   0.52380   0.00000  Uiso   1.00
H678   H     0.91426   0.22791   0.97650   0.00000  Uiso   1.00
C679   C     0.79043   0.23495   0.59632   0.00000  Uiso   1.00
C680   C     0.87758   0.23791   0.90385   0.00000  Uiso   1.00
H681   H     0.75659   0.22287   0.61100   0.00000  Uiso   1.00
H682   H     0.91240   0.22808   0.88933   0.00000  Uiso   1.00
N683   N     0.83333   0.24999   0.62624   0.00000  Uiso   1.00
N684   N     0.83333   0.25001   0.87376   0.00000  Uiso   1.00
C685   C     0.87633   0.26491   0.60796   0.00000  Uiso   1.00
C686   C     0.78924   0.26230   0.89196   0.00000  Uiso   1.00
H687   H     0.91012   0.27706   0.63176   0.00000  Uiso   1.00
H688   H     0.75443   0.27240   0.86813   0.00000  Uiso   1.00
C689   C     0.87737   0.26480   0.55845   0.00000  Uiso   1.00
C690   C     0.78838   0.26219   0.94150   0.00000  Uiso   1.00
H691   H     0.91199   0.27713   0.54513   0.00000  Uiso   1.00
H692   H     0.75281   0.27234   0.95473   0.00000  Uiso   1.00
C693   C     0.83349   0.24985   0.52666   0.00000  Uiso   1.00
C694   C     0.83350   0.24998   0.97341   0.00000  Uiso   1.00
C695   C     0.92129   0.12110   0.70770   0.00000  Uiso   1.00
C696   C     0.90757   0.12329   0.65316   0.00000  Uiso   1.00
C697   C     0.94618   0.15302   0.63162   0.00000  Uiso   1.00
H698   H     0.94495   0.18770   0.64548   0.00000  Uiso   1.00
H699   H     0.98677   0.13966   0.64048   0.00000  Uiso   1.00
H700   H     0.93534   0.15397   0.59220   0.00000  Uiso   1.00
H701   H     0.90861   0.08913   0.63784   0.00000  Uiso   1.00
H702   H     0.86728   0.13695   0.64295   0.00000  Uiso   1.00
H703   H     0.92543   0.15551   0.72245   0.00000  Uiso   1.00
H704   H     0.96083   0.10618   0.71785   0.00000  Uiso   1.00
C705   C     0.92357   0.37812   0.81347   0.00000  Uiso   1.00
C706   C     0.91254   0.37501   0.86510   0.00000  Uiso   1.00
C707   C     0.95294   0.34525   0.89522   0.00000  Uiso   1.00
H708   H     0.95224   0.31095   0.88001   0.00000  Uiso   1.00
H709   H     0.99299   0.35952   0.89655   0.00000  Uiso   1.00
H710   H     0.94358   0.34302   0.93215   0.00000  Uiso   1.00
H711   H     0.91383   0.40893   0.88127   0.00000  Uiso   1.00
H712   H     0.87274   0.36085   0.86580   0.00000  Uiso   1.00
H713   H     0.92697   0.34392   0.79901   0.00000  Uiso   1.00
H714   H     0.96281   0.39310   0.81267   0.00000  Uiso   1.00
N715   N     0.91855   0.02340   0.70618   0.00000  Uiso   1.00
O716   O     0.96846   0.02514   0.72270   0.00000  Uiso   1.00
O717   O     0.90216   0.49575   0.67173   0.00000  Uiso   1.00
N718   N     0.92038   0.47589   0.81604   0.00000  Uiso   1.00
O719   O     0.96992   0.47418   0.81161   0.00000  Uiso   1.00
O720   O     0.90511   0.00337   0.84682   0.00000  Uiso   1.00
O721   O     0.16667   0.68453   0.78974   0.00000  Uiso   1.00
O722   O     0.16666   0.81546   0.71026   0.00000  Uiso   1.00
O723   O     0.16667   0.68453   0.71026   0.00000  Uiso   1.00
O724   O     0.16666   0.81547   0.78974   0.00000  Uiso   1.00
C725   C     0.16845   0.66398   0.75024   0.00000  Uiso   1.00
C726   C     0.16833   0.83600   0.75023   0.00000  Uiso   1.00
O727   O     0.09058   0.75000   0.78044   0.00000  Uiso   1.00
O728   O     0.24275   0.75000   0.71956   0.00000  Uiso   1.00
O729   O     0.09058   0.74999   0.70096   0.00000  Uiso   1.00
O730   O     0.24275   0.75000   0.79904   0.00000  Uiso   1.00
C731   C     0.06700   0.75000   0.73754   0.00000  Uiso   1.00
C732   C     0.26633   0.74999   0.76246   0.00000  Uiso   1.00
Zn733  Zn    0.16667   0.75000   0.80307   0.00000  Uiso   1.00
Zn734  Zn    0.16667   0.74999   0.69693   0.00000  Uiso   1.00
C735   C     0.01199   0.75013   0.73081   0.00000  Uiso   1.00
C736   C     0.32133   0.74991   0.76921   0.00000  Uiso   1.00
H737   H     0.32474   0.75051   0.69439   0.00000  Uiso   1.00
H738   H     0.00857   0.74961   0.80564   0.00000  Uiso   1.00
C739   C     0.13957   0.54604   0.77330   0.00000  Uiso   1.00
C740   C     0.13844   0.95414   0.72114   0.00000  Uiso   1.00
H741   H     0.11124   0.52740   0.79023   0.00000  Uiso   1.00
H742   H     0.10940   0.97299   0.69742   0.00000  Uiso   1.00
C743   C     0.13796   0.59204   0.77315   0.00000  Uiso   1.00
C744   C     0.13687   0.90814   0.72039   0.00000  Uiso   1.00
H745   H     0.10793   0.60892   0.78956   0.00000  Uiso   1.00
H746   H     0.10611   0.89145   0.69646   0.00000  Uiso   1.00
C747   C     0.17393   0.61618   0.75100   0.00000  Uiso   1.00
C748   C     0.17388   0.88375   0.75103   0.00000  Uiso   1.00
C749   C     0.21365   0.59457   0.72966   0.00000  Uiso   1.00
C750   C     0.21460   0.90503   0.78227   0.00000  Uiso   1.00
C751   C     0.21459   0.54750   0.72950   0.00000  Uiso   1.00
C752   C     0.21544   0.95210   0.78329   0.00000  Uiso   1.00
C753   C     0.17732   0.52403   0.75152   0.00000  Uiso   1.00
C754   C     0.17716   0.97586   0.75241   0.00000  Uiso   1.00
C755   C     0.12290   0.73487   0.54653   0.00000  Uiso   1.00
C756   C     0.21194   0.73797   0.95367   0.00000  Uiso   1.00
H757   H     0.08833   0.72251   0.52380   0.00000  Uiso   1.00
H758   H     0.24760   0.72791   0.97650   0.00000  Uiso   1.00
C759   C     0.12376   0.73495   0.59632   0.00000  Uiso   1.00
C760   C     0.21091   0.73791   0.90385   0.00000  Uiso   1.00
H761   H     0.08993   0.72287   0.61100   0.00000  Uiso   1.00
H762   H     0.24573   0.72808   0.88933   0.00000  Uiso   1.00
N763   N     0.16667   0.74999   0.62624   0.00000  Uiso   1.00
N764   N     0.16667   0.75001   0.87376   0.00000  Uiso   1.00
C765   C     0.20966   0.76491   0.60796   0.00000  Uiso   1.00
C766   C     0.12258   0.76230   0.89196   0.00000  Uiso   1.00
H767   H     0.24345   0.77706   0.63176   0.00000  Uiso   1.00
H768   H     0.08776   0.77240   0.86813   0.00000  Uiso   1.00
C769   C     0.21070   0.76480   0.55845   0.00000  Uiso   1.00
C770   C     0.12171   0.76219   0.94150   0.00000  Uiso   1.00
H771   H     0.24532   0.77713   0.54513   0.00000  Uiso   1.00
H772   H     0.08615   0.77234   0.95473   0.00000  Uiso   1.00
C773   C     0.16683   0.74985   0.52666   0.00000  Uiso   1.00
C774   C     0.16683   0.74998   0.97341   0.00000  Uiso   1.00
C775   C     0.25462   0.62110   0.70770   0.00000  Uiso   1.00
C776   C     0.24091   0.62329   0.65316   0.00000  Uiso   1.00
C777   C     0.27951   0.65302   0.63162   0.00000  Uiso   1.00
H778   H     0.27828   0.68770   0.64548   0.00000  Uiso   1.00
H779   H     0.32010   0.63966   0.64048   0.00000  Uiso   1.00
H780   H     0.26867   0.65397   0.59220   0.00000  Uiso   1.00
H781   H     0.24195   0.58913   0.63784   0.00000  Uiso   1.00
H782   H     0.20061   0.63695   0.64295   0.00000  Uiso   1.00
H783   H     0.25877   0.65551   0.72245   0.00000  Uiso   1.00
H784   H     0.29416   0.60618   0.71785   0.00000  Uiso   1.00
C785   C     0.25690   0.87812   0.81347   0.00000  Uiso   1.00
C786   C     0.24587   0.87501   0.86510   0.00000  Uiso   1.00
C787   C     0.28627   0.84525   0.89522   0.00000  Uiso   1.00
H788   H     0.28557   0.81095   0.88001   0.00000  Uiso   1.00
H789   H     0.32632   0.85952   0.89655   0.00000  Uiso   1.00
H790   H     0.27691   0.84302   0.93215   0.00000  Uiso   1.00
H791   H     0.24716   0.90893   0.88127   0.00000  Uiso   1.00
H792   H     0.20608   0.86085   0.86580   0.00000  Uiso   1.00
H793   H     0.26030   0.84392   0.79901   0.00000  Uiso   1.00
H794   H     0.29614   0.89310   0.81267   0.00000  Uiso   1.00
N795   N     0.25189   0.52340   0.70618   0.00000  Uiso   1.00
O796   O     0.30179   0.52514   0.72270   0.00000  Uiso   1.00
O797   O     0.23549   0.99575   0.67173   0.00000  Uiso   1.00
N798   N     0.25372   0.97589   0.81604   0.00000  Uiso   1.00
O799   O     0.30325   0.97418   0.81161   0.00000  Uiso   1.00
O800   O     0.23844   0.50337   0.84682   0.00000  Uiso   1.00
O801   O     0.50000   0.68453   0.78974   0.00000  Uiso   1.00
O802   O     0.50000   0.81546   0.71026   0.00000  Uiso   1.00
O803   O     0.50000   0.68453   0.71026   0.00000  Uiso   1.00
O804   O     0.50000   0.81547   0.78974   0.00000  Uiso   1.00
C805   C     0.50179   0.66398   0.75024   0.00000  Uiso   1.00
C806   C     0.50166   0.83600   0.75023   0.00000  Uiso   1.00
O807   O     0.42392   0.75000   0.78044   0.00000  Uiso   1.00
O808   O     0.57608   0.75000   0.71956   0.00000  Uiso   1.00
O809   O     0.42392   0.74999   0.70096   0.00000  Uiso   1.00
O810   O     0.57608   0.75000   0.79904   0.00000  Uiso   1.00
C811   C     0.40034   0.75000   0.73754   0.00000  Uiso   1.00
C812   C     0.59966   0.74999   0.76246   0.00000  Uiso   1.00
Zn813  Zn    0.50000   0.75000   0.80307   0.00000  Uiso   1.00
Zn814  Zn    0.50000   0.74999   0.69693   0.00000  Uiso   1.00
C815   C     0.34532   0.75013   0.73081   0.00000  Uiso   1.00
C816   C     0.65466   0.74991   0.76921   0.00000  Uiso   1.00
H817   H     0.65807   0.75051   0.69439   0.00000  Uiso   1.00
H818   H     0.34190   0.74961   0.80564   0.00000  Uiso   1.00
C819   C     0.47290   0.54604   0.77330   0.00000  Uiso   1.00
C820   C     0.47178   0.95414   0.72114   0.00000  Uiso   1.00
H821   H     0.44457   0.52740   0.79023   0.00000  Uiso   1.00
H822   H     0.44274   0.97299   0.69742   0.00000  Uiso   1.00
C823   C     0.47130   0.59204   0.77315   0.00000  Uiso   1.00
C824   C     0.47020   0.90814   0.72039   0.00000  Uiso   1.00
H825   H     0.44126   0.60892   0.78956   0.00000  Uiso   1.00
H826   H     0.43944   0.89145   0.69646   0.00000  Uiso   1.00
C827   C     0.50726   0.61618   0.75100   0.00000  Uiso   1.00
C828   C     0.50722   0.88375   0.75103   0.00000  Uiso   1.00
C829   C     0.54699   0.59457   0.72966   0.00000  Uiso   1.00
C830   C     0.54794   0.90503   0.78227   0.00000  Uiso   1.00
C831   C     0.54792   0.54750   0.72950   0.00000  Uiso   1.00
C832   C     0.54877   0.95210   0.78329   0.00000  Uiso   1.00
C833   C     0.51065   0.52403   0.75152   0.00000  Uiso   1.00
C834   C     0.51050   0.97586   0.75241   0.00000  Uiso   1.00
C835   C     0.45623   0.73487   0.54653   0.00000  Uiso   1.00
C836   C     0.54527   0.73797   0.95367   0.00000  Uiso   1.00
H837   H     0.42167   0.72251   0.52380   0.00000  Uiso   1.00
H838   H     0.58093   0.72791   0.97650   0.00000  Uiso   1.00
C839   C     0.45710   0.73495   0.59632   0.00000  Uiso   1.00
C840   C     0.54425   0.73791   0.90385   0.00000  Uiso   1.00
H841   H     0.42326   0.72287   0.61100   0.00000  Uiso   1.00
H842   H     0.57907   0.72808   0.88933   0.00000  Uiso   1.00
N843   N     0.50000   0.74999   0.62624   0.00000  Uiso   1.00
N844   N     0.50000   0.75001   0.87376   0.00000  Uiso   1.00
C845   C     0.54299   0.76491   0.60796   0.00000  Uiso   1.00
C846   C     0.45591   0.76230   0.89196   0.00000  Uiso   1.00
H847   H     0.57679   0.77706   0.63176   0.00000  Uiso   1.00
H848   H     0.42109   0.77240   0.86813   0.00000  Uiso   1.00
C849   C     0.54403   0.76480   0.55845   0.00000  Uiso   1.00
C850   C     0.45504   0.76219   0.94150   0.00000  Uiso   1.00
H851   H     0.57865   0.77713   0.54513   0.00000  Uiso   1.00
H852   H     0.41948   0.77234   0.95473   0.00000  Uiso   1.00
C853   C     0.50016   0.74985   0.52666   0.00000  Uiso   1.00
C854   C     0.50016   0.74998   0.97341   0.00000  Uiso   1.00
C855   C     0.58795   0.62110   0.70770   0.00000  Uiso   1.00
C856   C     0.57424   0.62329   0.65316   0.00000  Uiso   1.00
C857   C     0.61284   0.65302   0.63162   0.00000  Uiso   1.00
H858   H     0.61161   0.68770   0.64548   0.00000  Uiso   1.00
H859   H     0.65343   0.63966   0.64048   0.00000  Uiso   1.00
H860   H     0.60200   0.65397   0.59220   0.00000  Uiso   1.00
H861   H     0.57528   0.58913   0.63784   0.00000  Uiso   1.00
H862   H     0.53395   0.63695   0.64295   0.00000  Uiso   1.00
H863   H     0.59210   0.65551   0.72245   0.00000  Uiso   1.00
H864   H     0.62750   0.60618   0.71785   0.00000  Uiso   1.00
C865   C     0.59023   0.87812   0.81347   0.00000  Uiso   1.00
C866   C     0.57920   0.87501   0.86510   0.00000  Uiso   1.00
C867   C     0.61961   0.84525   0.89522   0.00000  Uiso   1.00
H868   H     0.61891   0.81095   0.88001   0.00000  Uiso   1.00
H869   H     0.65965   0.85952   0.89655   0.00000  Uiso   1.00
H870   H     0.61024   0.84302   0.93215   0.00000  Uiso   1.00
H871   H     0.58050   0.90893   0.88127   0.00000  Uiso   1.00
H872   H     0.53941   0.86085   0.86580   0.00000  Uiso   1.00
H873   H     0.59363   0.84392   0.79901   0.00000  Uiso   1.00
H874   H     0.62948   0.89310   0.81267   0.00000  Uiso   1.00
N875   N     0.58522   0.52340   0.70618   0.00000  Uiso   1.00
O876   O     0.63513   0.52514   0.72270   0.00000  Uiso   1.00
O877   O     0.56883   0.99575   0.67173   0.00000  Uiso   1.00
N878   N     0.58705   0.97589   0.81604   0.00000  Uiso   1.00
O879   O     0.63658   0.97418   0.81161   0.00000  Uiso   1.00
O880   O     0.57177   0.50337   0.84682   0.00000  Uiso   1.00
O881   O     0.83334   0.68453   0.78974   0.00000  Uiso   1.00
O882   O     0.83333   0.81546   0.71026   0.00000  Uiso   1.00
O883   O     0.83334   0.68453   0.71026   0.00000  Uiso   1.00
O884   O     0.83333   0.81547   0.78974   0.00000  Uiso   1.00
C885   C     0.83512   0.66398   0.75024   0.00000  Uiso   1.00
C886   C     0.83499   0.83600   0.75023   0.00000  Uiso   1.00
O887   O     0.75725   0.75000   0.78044   0.00000  Uiso   1.00
O888   O     0.90942   0.75000   0.71956   0.00000  Uiso   1.00
O889   O     0.75725   0.74999   0.70096   0.00000  Uiso   1.00
O890   O     0.90942   0.75000   0.79904   0.00000  Uiso   1.00
C891   C     0.73367   0.75000   0.73754   0.00000  Uiso   1.00
C892   C     0.93299   0.74999   0.76246   0.00000  Uiso   1.00
Zn893  Zn    0.83333   0.75000   0.80307   0.00000  Uiso   1.00
Zn894  Zn    0.83333   0.74999   0.69693   0.00000  Uiso   1.00
C895   C     0.67865   0.75013   0.73081   0.00000  Uiso   1.00
C896   C     0.98800   0.74991   0.76921   0.00000  Uiso   1.00
H897   H     0.99140   0.75051   0.69439   0.00000  Uiso   1.00
H898   H     0.67524   0.74961   0.80564   0.00000  Uiso   1.00
C899   C     0.80624   0.54604   0.77330   0.00000  Uiso   1.00
C900   C     0.80511   0.95414   0.72114   0.00000  Uiso   1.00
H901   H     0.77791   0.52740   0.79023   0.00000  Uiso   1.00
H902   H     0.77607   0.97299   0.69742   0.00000  Uiso   1.00
C903   C     0.80463   0.59204   0.77315   0.00000  Uiso   1.00
C904   C     0.80353   0.90814   0.72039   0.00000  Uiso   1.00
H905   H     0.77459   0.60892   0.78956   0.00000  Uiso   1.00
H906   H     0.77277   0.89145   0.69646   0.00000  Uiso   1.00
C907   C     0.84060   0.61618   0.75100   0.00000  Uiso   1.00
C908   C     0.84055   0.88375   0.75103   0.00000  Uiso   1.00
C909   C     0.88032   0.59457   0.72966   0.00000  Uiso   1.00
C910   C     0.88127   0.90503   0.78227   0.00000  Uiso   1.00
C911   C     0.88126   0.54750   0.72950   0.00000  Uiso   1.00
C912   C     0.88211   0.95210   0.78329   0.00000  Uiso   1.00
C913   C     0.84399   0.52403   0.75152   0.00000  Uiso   1.00
C914   C     0.84383   0.97586   0.75241   0.00000  Uiso   1.00
C915   C     0.78957   0.73487   0.54653   0.00000  Uiso   1.00
C916   C     0.87861   0.73797   0.95367   0.00000  Uiso   1.00
H917   H     0.75500   0.72251   0.52380   0.00000  Uiso   1.00
H918   H     0.91426   0.72791   0.97650   0.00000  Uiso   1.00
C919   C     0.79043   0.73495   0.59632   0.00000  Uiso   1.00
C920   C     0.87758   0.73791   0.90385   0.00000  Uiso   1.00
H921   H     0.75659   0.72287   0.61100   0.00000  Uiso   1.00
H922   H     0.91240   0.72808   0.88933   0.00000  Uiso   1.00
N923   N     0.83333   0.74999   0.62624   0.00000  Uiso   1.00
N924   N     0.83333   0.75001   0.87376   0.00000  Uiso   1.00
C925   C     0.87633   0.76491   0.60796   0.00000  Uiso   1.00
C926   C     0.78924   0.76230   0.89196   0.00000  Uiso   1.00
H927   H     0.91012   0.77706   0.63176   0.00000  Uiso   1.00
H928   H     0.75443   0.77240   0.86813   0.00000  Uiso   1.00
C929   C     0.87737   0.76480   0.55845   0.00000  Uiso   1.00
C930   C     0.78838   0.76219   0.94150   0.00000  Uiso   1.00
H931   H     0.91199   0.77713   0.54513   0.00000  Uiso   1.00
H932   H     0.75281   0.77234   0.95473   0.00000  Uiso   1.00
C933   C     0.83349   0.74985   0.52666   0.00000  Uiso   1.00
C934   C     0.83350   0.74998   0.97341   0.00000  Uiso   1.00
C935   C     0.92129   0.62110   0.70770   0.00000  Uiso   1.00
C936   C     0.90757   0.62329   0.65316   0.00000  Uiso   1.00
C937   C     0.94618   0.65302   0.63162   0.00000  Uiso   1.00
H938   H     0.94495   0.68770   0.64548   0.00000  Uiso   1.00
H939   H     0.98677   0.63966   0.64048   0.00000  Uiso   1.00
H940   H     0.93534   0.65397   0.59220   0.00000  Uiso   1.00
H941   H     0.90861   0.58913   0.63784   0.00000  Uiso   1.00
H942   H     0.86728   0.63695   0.64295   0.00000  Uiso   1.00
H943   H     0.92543   0.65551   0.72245   0.00000  Uiso   1.00
H944   H     0.96083   0.60618   0.71785   0.00000  Uiso   1.00
C945   C     0.92357   0.87812   0.81347   0.00000  Uiso   1.00
C946   C     0.91254   0.87501   0.86510   0.00000  Uiso   1.00
C947   C     0.95294   0.84525   0.89522   0.00000  Uiso   1.00
H948   H     0.95224   0.81095   0.88001   0.00000  Uiso   1.00
H949   H     0.99299   0.85952   0.89655   0.00000  Uiso   1.00
H950   H     0.94358   0.84302   0.93215   0.00000  Uiso   1.00
H951   H     0.91383   0.90893   0.88127   0.00000  Uiso   1.00
H952   H     0.87274   0.86085   0.86580   0.00000  Uiso   1.00
H953   H     0.92697   0.84392   0.79901   0.00000  Uiso   1.00
H954   H     0.96281   0.89310   0.81267   0.00000  Uiso   1.00
N955   N     0.91855   0.52340   0.70618   0.00000  Uiso   1.00
O956   O     0.96846   0.52514   0.72270   0.00000  Uiso   1.00
O957   O     0.90216   0.99575   0.67173   0.00000  Uiso   1.00
N958   N     0.92038   0.97589   0.81604   0.00000  Uiso   1.00
O959   O     0.96992   0.97418   0.81161   0.00000  Uiso   1.00
O960   O     0.90511   0.50337   0.84682   0.00000  Uiso   1.00
loop_
_geom_bond_atom_site_label_1
_geom_bond_atom_site_label_2
_geom_bond_distance
_geom_bond_site_symmetry_2
_ccdc_geom_bond_type
O1     C5      1.284   .     A
O1     Zn13    1.991   .     S
O2     C6      1.284   .     A
O2     Zn14    1.991   .     S
O3     Zn14    1.990   .     S
O3     C5      1.282   .     A
O4     Zn13    1.990   .     S
O4     C6      1.282   .     A
C5     C27     1.434   .     S
C6     C28     1.433   .     S
O7     Zn13    1.967   .     S
O7     C11     1.275   .     A
O8     C12     1.275   .     A
O8     Zn14    1.967   .     S
O9     Zn14    1.978   .     S
O9     C11     1.277   .     A
O10    C12     1.277   .     A
O10    Zn13    1.978   .     S
C11    C15     1.400   .     S
C12    C16     1.400   .     S
Zn13   N44     2.004   .     S
Zn14   N43     2.004   .     S
C15    C176    1.329   1_455 S
C15    H177    1.087   1_455 S
C16    C95     1.329   .     S
C16    H98     1.088   .     S
H17    C95     1.087   .     S
H18    C176    1.088   1_455 S
C19    H21     1.084   .     S
C19    C33     1.392   .     A
C19    C23     1.374   .     A
C20    C34     1.392   .     A
C20    C24     1.374   .     A
C20    H22     1.084   .     S
C23    C27     1.394   .     A
C23    H25     1.084   .     S
C24    H26     1.084   .     S
C24    C28     1.393   .     A
C27    C29     1.419   .     A
C28    C30     1.418   .     A
C29    C55     1.524   .     S
C29    C31     1.406   .     A
C30    C32     1.406   .     A
C30    C65     1.524   .     S
C31    C33     1.407   .     A
C31    N75     1.437   .     S
C32    C34     1.407   .     A
C32    N78     1.437   .     S
C33    C274    1.438   1_545 S
C34    C273    1.438   .     S
C35    C53     1.409   .     A
C35    C39     1.408   .     A
C35    H37     1.083   .     S
C36    C40     1.408   .     A
C36    H38     1.083   .     S
C36    C54     1.409   .     A
C39    H41     1.082   .     S
C39    N43     1.364   .     A
C40    H42     1.081   .     S
C40    N44     1.365   .     A
N43    C45     1.365   .     A
N44    C46     1.365   .     A
C45    H47     1.081   .     S
C45    C49     1.407   .     A
C46    H48     1.081   .     S
C46    C50     1.408   .     A
C49    H51     1.083   .     S
C49    C53     1.408   .     A
C50    C54     1.408   .     A
C50    H52     1.083   .     S
C53    C534    1.509   1_554 S
C54    C533    1.509   .     S
C55    C56     1.535   .     S
C55    H63     1.109   .     S
C55    H64     1.108   .     S
C56    C57     1.526   .     S
C56    H62     1.111   .     S
C56    H61     1.111   .     S
C57    H59     1.111   .     S
C57    H60     1.110   .     S
C57    H58     1.110   .     S
C65    H73     1.109   .     S
C65    H74     1.108   .     S
C65    C66     1.534   .     S
C66    H72     1.111   .     S
C66    C67     1.527   .     S
C66    H71     1.111   .     S
C67    H68     1.111   .     S
C67    H69     1.111   .     S
C67    H70     1.110   .     S
N75    O76     1.301   .     A
N75    O317    1.301   1_545 S
O77    N315    1.301   .     S
N78    O79     1.301   .     A
N78    O320    1.301   .     S
O80    N318    1.301   1_545 S
O81    C85     1.284   .     A
O81    Zn93    1.991   .     S
O82    C86     1.284   .     A
O82    Zn94    1.991   .     S
O83    Zn94    1.990   .     S
O83    C85     1.282   .     A
O84    Zn93    1.990   .     S
O84    C86     1.282   .     A
C85    C107    1.434   .     S
C86    C108    1.433   .     S
O87    Zn93    1.967   .     S
O87    C91     1.275   .     A
O88    C92     1.275   .     A
O88    Zn94    1.967   .     S
O89    Zn94    1.978   .     S
O89    C91     1.277   .     A
O90    C92     1.277   .     A
O90    Zn93    1.978   .     S
C91    C95     1.400   .     S
C92    C96     1.400   .     S
Zn93   N124    2.004   .     S
Zn94   N123    2.004   .     S
C96    C175    1.329   .     S
C96    H178    1.088   .     S
H97    C175    1.087   .     S
C99    H101    1.084   .     S
C99    C113    1.392   .     A
C99    C103    1.374   .     A
C100   C114    1.392   .     A
C100   C104    1.374   .     A
C100   H102    1.084   .     S
C103   C107    1.394   .     A
C103   H105    1.084   .     S
C104   H106    1.084   .     S
C104   C108    1.393   .     A
C107   C109    1.419   .     A
C108   C110    1.418   .     A
C109   C135    1.524   .     S
C109   C111    1.406   .     A
C110   C112    1.406   .     A
C110   C145    1.524   .     S
C111   C113    1.407   .     A
C111   N155    1.437   .     S
C112   C114    1.407   .     A
C112   N158    1.437   .     S
C113   C354    1.438   1_545 S
C114   C353    1.438   .     S
C115   C133    1.409   .     A
C115   C119    1.408   .     A
C115   H117    1.083   .     S
C116   C120    1.408   .     A
C116   H118    1.083   .     S
C116   C134    1.409   .     A
C119   H121    1.082   .     S
C119   N123    1.364   .     A
C120   H122    1.081   .     S
C120   N124    1.365   .     A
N123   C125    1.365   .     A
N124   C126    1.365   .     A
C125   H127    1.081   .     S
C125   C129    1.407   .     A
C126   H128    1.081   .     S
C126   C130    1.408   .     A
C129   H131    1.083   .     S
C129   C133    1.408   .     A
C130   C134    1.408   .     A
C130   H132    1.083   .     S
C133   C614    1.509   1_554 S
C134   C613    1.509   .     S
C135   C136    1.535   .     S
C135   H143    1.109   .     S
C135   H144    1.108   .     S
C136   C137    1.526   .     S
C136   H142    1.111   .     S
C136   H141    1.111   .     S
C137   H139    1.111   .     S
C137   H140    1.110   .     S
C137   H138    1.110   .     S
C145   H153    1.109   .     S
C145   H154    1.108   .     S
C145   C146    1.534   .     S
C146   H152    1.111   .     S
C146   C147    1.527   .     S
C146   H151    1.111   .     S
C147   H148    1.111   .     S
C147   H149    1.111   .     S
C147   H150    1.110   .     S
N155   O156    1.301   .     A
N155   O397    1.301   1_545 S
O157   N395    1.301   .     S
N158   O159    1.301   .     A
N158   O400    1.301   .     S
O160   N398    1.301   1_545 S
O161   C165    1.284   .     A
O161   Zn173   1.991   .     S
O162   C166    1.284   .     A
O162   Zn174   1.991   .     S
O163   Zn174   1.990   .     S
O163   C165    1.282   .     A
O164   Zn173   1.990   .     S
O164   C166    1.282   .     A
C165   C187    1.434   .     S
C166   C188    1.433   .     S
O167   Zn173   1.967   .     S
O167   C171    1.275   .     A
O168   C172    1.275   .     A
O168   Zn174   1.967   .     S
O169   Zn174   1.978   .     S
O169   C171    1.277   .     A
O170   C172    1.277   .     A
O170   Zn173   1.978   .     S
C171   C175    1.400   .     S
C172   C176    1.400   .     S
Zn173  N204    2.004   .     S
Zn174  N203    2.004   .     S
C176   C15     1.329   1_655 S
C176   H18     1.088   1_655 S
H177   C15     1.087   1_655 S
C179   H181    1.084   .     S
C179   C193    1.392   .     A
C179   C183    1.374   .     A
C180   C194    1.392   .     A
C180   C184    1.374   .     A
C180   H182    1.084   .     S
C183   C187    1.394   .     A
C183   H185    1.084   .     S
C184   H186    1.084   .     S
C184   C188    1.393   .     A
C187   C189    1.419   .     A
C188   C190    1.418   .     A
C189   C215    1.524   .     S
C189   C191    1.406   .     A
C190   C192    1.406   .     A
C190   C225    1.524   .     S
C191   C193    1.407   .     A
C191   N235    1.437   .     S
C192   C194    1.407   .     A
C192   N238    1.437   .     S
C193   C434    1.438   1_545 S
C194   C433    1.438   .     S
C195   C213    1.409   .     A
C195   C199    1.408   .     A
C195   H197    1.083   .     S
C196   C200    1.408   .     A
C196   H198    1.083   .     S
C196   C214    1.409   .     A
C199   H201    1.082   .     S
C199   N203    1.364   .     A
C200   H202    1.081   .     S
C200   N204    1.365   .     A
N203   C205    1.365   .     A
N204   C206    1.365   .     A
C205   H207    1.081   .     S
C205   C209    1.407   .     A
C206   H208    1.081   .     S
C206   C210    1.408   .     A
C209   H211    1.083   .     S
C209   C213    1.408   .     A
C210   C214    1.408   .     A
C210   H212    1.083   .     S
C213   C694    1.509   1_554 S
C214   C693    1.509   .     S
C215   C216    1.535   .     S
C215   H223    1.109   .     S
C215   H224    1.108   .     S
C216   C217    1.526   .     S
C216   H222    1.111   .     S
C216   H221    1.111   .     S
C217   H219    1.111   .     S
C217   H220    1.110   .     S
C217   H218    1.110   .     S
C225   H233    1.109   .     S
C225   H234    1.108   .     S
C225   C226    1.534   .     S
C226   H232    1.111   .     S
C226   C227    1.527   .     S
C226   H231    1.111   .     S
C227   H228    1.111   .     S
C227   H229    1.111   .     S
C227   H230    1.110   .     S
N235   O236    1.301   .     A
N235   O477    1.301   1_545 S
O237   N475    1.301   .     S
N238   O239    1.301   .     A
N238   O480    1.301   .     S
O240   N478    1.301   1_545 S
O241   C245    1.284   .     A
O241   Zn253   1.991   .     S
O242   C246    1.284   .     A
O242   Zn254   1.991   .     S
O243   Zn254   1.990   .     S
O243   C245    1.282   .     A
O244   Zn253   1.990   .     S
O244   C246    1.282   .     A
C245   C267    1.434   .     S
C246   C268    1.433   .     S
O247   Zn253   1.967   .     S
O247   C251    1.275   .     A
O248   C252    1.275   .     A
O248   Zn254   1.967   .     S
O249   Zn254   1.978   .     S
O249   C251    1.277   .     A
O250   C252    1.277   .     A
O250   Zn253   1.978   .     S
C251   C255    1.400   .     S
C252   C256    1.400   .     S
Zn253  N284    2.004   .     S
Zn254  N283    2.004   .     S
C255   C416    1.329   1_455 S
C255   H417    1.087   1_455 S
C256   C335    1.329   .     S
C256   H338    1.088   .     S
H257   C335    1.087   .     S
H258   C416    1.088   1_455 S
C259   H261    1.084   .     S
C259   C273    1.392   .     A
C259   C263    1.374   .     A
C260   C274    1.392   .     A
C260   C264    1.374   .     A
C260   H262    1.084   .     S
C263   C267    1.394   .     A
C263   H265    1.084   .     S
C264   H266    1.084   .     S
C264   C268    1.393   .     A
C267   C269    1.419   .     A
C268   C270    1.418   .     A
C269   C295    1.524   .     S
C269   C271    1.406   .     A
C270   C272    1.406   .     A
C270   C305    1.524   .     S
C271   C273    1.407   .     A
C271   N315    1.437   .     S
C272   C274    1.407   .     A
C272   N318    1.437   .     S
C274   C33     1.438   1_565 S
C275   C293    1.409   .     A
C275   C279    1.408   .     A
C275   H277    1.083   .     S
C276   C280    1.408   .     A
C276   H278    1.083   .     S
C276   C294    1.409   .     A
C279   H281    1.082   .     S
C279   N283    1.364   .     A
C280   H282    1.081   .     S
C280   N284    1.365   .     A
N283   C285    1.365   .     A
N284   C286    1.365   .     A
C285   H287    1.081   .     S
C285   C289    1.407   .     A
C286   H288    1.081   .     S
C286   C290    1.408   .     A
C289   H291    1.083   .     S
C289   C293    1.408   .     A
C290   C294    1.408   .     A
C290   H292    1.083   .     S
C293   C774    1.509   1_554 S
C294   C773    1.509   .     S
C295   C296    1.535   .     S
C295   H303    1.109   .     S
C295   H304    1.108   .     S
C296   C297    1.526   .     S
C296   H302    1.111   .     S
C296   H301    1.111   .     S
C297   H299    1.111   .     S
C297   H300    1.110   .     S
C297   H298    1.110   .     S
C305   H313    1.109   .     S
C305   H314    1.108   .     S
C305   C306    1.534   .     S
C306   H312    1.111   .     S
C306   C307    1.527   .     S
C306   H311    1.111   .     S
C307   H308    1.111   .     S
C307   H309    1.111   .     S
C307   H310    1.110   .     S
N315   O316    1.301   .     A
O317   N75     1.301   1_565 S
N318   O319    1.301   .     A
N318   O80     1.301   1_565 S
O321   C325    1.284   .     A
O321   Zn333   1.991   .     S
O322   C326    1.284   .     A
O322   Zn334   1.991   .     S
O323   Zn334   1.990   .     S
O323   C325    1.282   .     A
O324   Zn333   1.990   .     S
O324   C326    1.282   .     A
C325   C347    1.434   .     S
C326   C348    1.433   .     S
O327   Zn333   1.967   .     S
O327   C331    1.275   .     A
O328   C332    1.275   .     A
O328   Zn334   1.967   .     S
O329   Zn334   1.978   .     S
O329   C331    1.277   .     A
O330   C332    1.277   .     A
O330   Zn333   1.978   .     S
C331   C335    1.400   .     S
C332   C336    1.400   .     S
Zn333  N364    2.004   .     S
Zn334  N363    2.004   .     S
C336   C415    1.329   .     S
C336   H418    1.088   .     S
H337   C415    1.087   .     S
C339   H341    1.084   .     S
C339   C353    1.392   .     A
C339   C343    1.374   .     A
C340   C354    1.392   .     A
C340   C344    1.374   .     A
C340   H342    1.084   .     S
C343   C347    1.394   .     A
C343   H345    1.084   .     S
C344   H346    1.084   .     S
C344   C348    1.393   .     A
C347   C349    1.419   .     A
C348   C350    1.418   .     A
C349   C375    1.524   .     S
C349   C351    1.406   .     A
C350   C352    1.406   .     A
C350   C385    1.524   .     S
C351   C353    1.407   .     A
C351   N395    1.437   .     S
C352   C354    1.407   .     A
C352   N398    1.437   .     S
C354   C113    1.438   1_565 S
C355   C373    1.409   .     A
C355   C359    1.408   .     A
C355   H357    1.083   .     S
C356   C360    1.408   .     A
C356   H358    1.083   .     S
C356   C374    1.409   .     A
C359   H361    1.082   .     S
C359   N363    1.364   .     A
C360   H362    1.081   .     S
C360   N364    1.365   .     A
N363   C365    1.365   .     A
N364   C366    1.365   .     A
C365   H367    1.081   .     S
C365   C369    1.407   .     A
C366   H368    1.081   .     S
C366   C370    1.408   .     A
C369   H371    1.083   .     S
C369   C373    1.408   .     A
C370   C374    1.408   .     A
C370   H372    1.083   .     S
C373   C854    1.509   1_554 S
C374   C853    1.509   .     S
C375   C376    1.535   .     S
C375   H383    1.109   .     S
C375   H384    1.108   .     S
C376   C377    1.526   .     S
C376   H382    1.111   .     S
C376   H381    1.111   .     S
C377   H379    1.111   .     S
C377   H380    1.110   .     S
C377   H378    1.110   .     S
C385   H393    1.109   .     S
C385   H394    1.108   .     S
C385   C386    1.534   .     S
C386   H392    1.111   .     S
C386   C387    1.527   .     S
C386   H391    1.111   .     S
C387   H388    1.111   .     S
C387   H389    1.111   .     S
C387   H390    1.110   .     S
N395   O396    1.301   .     A
O397   N155    1.301   1_565 S
N398   O399    1.301   .     A
N398   O160    1.301   1_565 S
O401   C405    1.284   .     A
O401   Zn413   1.991   .     S
O402   C406    1.284   .     A
O402   Zn414   1.991   .     S
O403   Zn414   1.990   .     S
O403   C405    1.282   .     A
O404   Zn413   1.990   .     S
O404   C406    1.282   .     A
C405   C427    1.434   .     S
C406   C428    1.433   .     S
O407   Zn413   1.967   .     S
O407   C411    1.275   .     A
O408   C412    1.275   .     A
O408   Zn414   1.967   .     S
O409   Zn414   1.978   .     S
O409   C411    1.277   .     A
O410   C412    1.277   .     A
O410   Zn413   1.978   .     S
C411   C415    1.400   .     S
C412   C416    1.400   .     S
Zn413  N444    2.004   .     S
Zn414  N443    2.004   .     S
C416   C255    1.329   1_655 S
C416   H258    1.088   1_655 S
H417   C255    1.087   1_655 S
C419   H421    1.084   .     S
C419   C433    1.392   .     A
C419   C423    1.374   .     A
C420   C434    1.392   .     A
C420   C424    1.374   .     A
C420   H422    1.084   .     S
C423   C427    1.394   .     A
C423   H425    1.084   .     S
C424   H426    1.084   .     S
C424   C428    1.393   .     A
C427   C429    1.419   .     A
C428   C430    1.418   .     A
C429   C455    1.524   .     S
C429   C431    1.406   .     A
C430   C432    1.406   .     A
C430   C465    1.524   .     S
C431   C433    1.407   .     A
C431   N475    1.437   .     S
C432   C434    1.407   .     A
C432   N478    1.437   .     S
C434   C193    1.438   1_565 S
C435   C453    1.409   .     A
C435   C439    1.408   .     A
C435   H437    1.083   .     S
C436   C440    1.408   .     A
C436   H438    1.083   .     S
C436   C454    1.409   .     A
C439   H441    1.082   .     S
C439   N443    1.364   .     A
C440   H442    1.081   .     S
C440   N444    1.365   .     A
N443   C445    1.365   .     A
N444   C446    1.365   .     A
C445   H447    1.081   .     S
C445   C449    1.407   .     A
C446   H448    1.081   .     S
C446   C450    1.408   .     A
C449   H451    1.083   .     S
C449   C453    1.408   .     A
C450   C454    1.408   .     A
C450   H452    1.083   .     S
C453   C934    1.509   1_554 S
C454   C933    1.509   .     S
C455   C456    1.535   .     S
C455   H463    1.109   .     S
C455   H464    1.108   .     S
C456   C457    1.526   .     S
C456   H462    1.111   .     S
C456   H461    1.111   .     S
C457   H459    1.111   .     S
C457   H460    1.110   .     S
C457   H458    1.110   .     S
C465   H473    1.109   .     S
C465   H474    1.108   .     S
C465   C466    1.534   .     S
C466   H472    1.111   .     S
C466   C467    1.527   .     S
C466   H471    1.111   .     S
C467   H468    1.111   .     S
C467   H469    1.111   .     S
C467   H470    1.110   .     S
N475   O476    1.301   .     A
O477   N235    1.301   1_565 S
N478   O479    1.301   .     A
N478   O240    1.301   1_565 S
O481   C485    1.284   .     A
O481   Zn493   1.991   .     S
O482   C486    1.284   .     A
O482   Zn494   1.991   .     S
O483   Zn494   1.990   .     S
O483   C485    1.282   .     A
O484   Zn493   1.990   .     S
O484   C486    1.282   .     A
C485   C507    1.434   .     S
C486   C508    1.433   .     S
O487   Zn493   1.967   .     S
O487   C491    1.275   .     A
O488   C492    1.275   .     A
O488   Zn494   1.967   .     S
O489   Zn494   1.978   .     S
O489   C491    1.277   .     A
O490   C492    1.277   .     A
O490   Zn493   1.978   .     S
C491   C495    1.400   .     S
C492   C496    1.400   .     S
Zn493  N524    2.004   .     S
Zn494  N523    2.004   .     S
C495   C656    1.329   1_455 S
C495   H657    1.087   1_455 S
C496   C575    1.329   .     S
C496   H578    1.088   .     S
H497   C575    1.087   .     S
H498   C656    1.088   1_455 S
C499   H501    1.084   .     S
C499   C513    1.392   .     A
C499   C503    1.374   .     A
C500   C514    1.392   .     A
C500   C504    1.374   .     A
C500   H502    1.084   .     S
C503   C507    1.394   .     A
C503   H505    1.084   .     S
C504   H506    1.084   .     S
C504   C508    1.393   .     A
C507   C509    1.419   .     A
C508   C510    1.418   .     A
C509   C535    1.524   .     S
C509   C511    1.406   .     A
C510   C512    1.406   .     A
C510   C545    1.524   .     S
C511   C513    1.407   .     A
C511   N555    1.437   .     S
C512   C514    1.407   .     A
C512   N558    1.437   .     S
C513   C754    1.438   1_545 S
C514   C753    1.438   .     S
C515   C533    1.409   .     A
C515   C519    1.408   .     A
C515   H517    1.083   .     S
C516   C520    1.408   .     A
C516   H518    1.083   .     S
C516   C534    1.409   .     A
C519   H521    1.082   .     S
C519   N523    1.364   .     A
C520   H522    1.081   .     S
C520   N524    1.365   .     A
N523   C525    1.365   .     A
N524   C526    1.365   .     A
C525   H527    1.081   .     S
C525   C529    1.407   .     A
C526   H528    1.081   .     S
C526   C530    1.408   .     A
C529   H531    1.083   .     S
C529   C533    1.408   .     A
C530   C534    1.408   .     A
C530   H532    1.083   .     S
C534   C53     1.509   1_556 S
C535   C536    1.535   .     S
C535   H543    1.109   .     S
C535   H544    1.108   .     S
C536   C537    1.526   .     S
C536   H542    1.111   .     S
C536   H541    1.111   .     S
C537   H539    1.111   .     S
C537   H540    1.110   .     S
C537   H538    1.110   .     S
C545   H553    1.109   .     S
C545   H554    1.108   .     S
C545   C546    1.534   .     S
C546   H552    1.111   .     S
C546   C547    1.527   .     S
C546   H551    1.111   .     S
C547   H548    1.111   .     S
C547   H549    1.111   .     S
C547   H550    1.110   .     S
N555   O556    1.301   .     A
N555   O797    1.301   1_545 S
O557   N795    1.301   .     S
N558   O559    1.301   .     A
N558   O800    1.301   .     S
O560   N798    1.301   1_545 S
O561   C565    1.284   .     A
O561   Zn573   1.991   .     S
O562   C566    1.284   .     A
O562   Zn574   1.991   .     S
O563   Zn574   1.990   .     S
O563   C565    1.282   .     A
O564   Zn573   1.990   .     S
O564   C566    1.282   .     A
C565   C587    1.434   .     S
C566   C588    1.433   .     S
O567   Zn573   1.967   .     S
O567   C571    1.275   .     A
O568   C572    1.275   .     A
O568   Zn574   1.967   .     S
O569   Zn574   1.978   .     S
O569   C571    1.277   .     A
O570   C572    1.277   .     A
O570   Zn573   1.978   .     S
C571   C575    1.400   .     S
C572   C576    1.400   .     S
Zn573  N604    2.004   .     S
Zn574  N603    2.004   .     S
C576   C655    1.329   .     S
C576   H658    1.088   .     S
H577   C655    1.087   .     S
C579   H581    1.084   .     S
C579   C593    1.392   .     A
C579   C583    1.374   .     A
C580   C594    1.392   .     A
C580   C584    1.374   .     A
C580   H582    1.084   .     S
C583   C587    1.394   .     A
C583   H585    1.084   .     S
C584   H586    1.084   .     S
C584   C588    1.393   .     A
C587   C589    1.419   .     A
C588   C590    1.418   .     A
C589   C615    1.524   .     S
C589   C591    1.406   .     A
C590   C592    1.406   .     A
C590   C625    1.524   .     S
C591   C593    1.407   .     A
C591   N635    1.437   .     S
C592   C594    1.407   .     A
C592   N638    1.437   .     S
C593   C834    1.438   1_545 S
C594   C833    1.438   .     S
C595   C613    1.409   .     A
C595   C599    1.408   .     A
C595   H597    1.083   .     S
C596   C600    1.408   .     A
C596   H598    1.083   .     S
C596   C614    1.409   .     A
C599   H601    1.082   .     S
C599   N603    1.364   .     A
C600   H602    1.081   .     S
C600   N604    1.365   .     A
N603   C605    1.365   .     A
N604   C606    1.365   .     A
C605   H607    1.081   .     S
C605   C609    1.407   .     A
C606   H608    1.081   .     S
C606   C610    1.408   .     A
C609   H611    1.083   .     S
C609   C613    1.408   .     A
C610   C614    1.408   .     A
C610   H612    1.083   .     S
C614   C133    1.509   1_556 S
C615   C616    1.535   .     S
C615   H623    1.109   .     S
C615   H624    1.108   .     S
C616   C617    1.526   .     S
C616   H622    1.111   .     S
C616   H621    1.111   .     S
C617   H619    1.111   .     S
C617   H620    1.110   .     S
C617   H618    1.110   .     S
C625   H633    1.109   .     S
C625   H634    1.108   .     S
C625   C626    1.534   .     S
C626   H632    1.111   .     S
C626   C627    1.527   .     S
C626   H631    1.111   .     S
C627   H628    1.111   .     S
C627   H629    1.111   .     S
C627   H630    1.110   .     S
N635   O636    1.301   .     A
N635   O877    1.301   1_545 S
O637   N875    1.301   .     S
N638   O639    1.301   .     A
N638   O880    1.301   .     S
O640   N878    1.301   1_545 S
O641   C645    1.284   .     A
O641   Zn653   1.991   .     S
O642   C646    1.284   .     A
O642   Zn654   1.991   .     S
O643   Zn654   1.990   .     S
O643   C645    1.282   .     A
O644   Zn653   1.990   .     S
O644   C646    1.282   .     A
C645   C667    1.434   .     S
C646   C668    1.433   .     S
O647   Zn653   1.967   .     S
O647   C651    1.275   .     A
O648   C652    1.275   .     A
O648   Zn654   1.967   .     S
O649   Zn654   1.978   .     S
O649   C651    1.277   .     A
O650   C652    1.277   .     A
O650   Zn653   1.978   .     S
C651   C655    1.400   .     S
C652   C656    1.400   .     S
Zn653  N684    2.004   .     S
Zn654  N683    2.004   .     S
C656   C495    1.329   1_655 S
C656   H498    1.088   1_655 S
H657   C495    1.087   1_655 S
C659   H661    1.084   .     S
C659   C673    1.392   .     A
C659   C663    1.374   .     A
C660   C674    1.392   .     A
C660   C664    1.374   .     A
C660   H662    1.084   .     S
C663   C667    1.394   .     A
C663   H665    1.084   .     S
C664   H666    1.084   .     S
C664   C668    1.393   .     A
C667   C669    1.419   .     A
C668   C670    1.418   .     A
C669   C695    1.524   .     S
C669   C671    1.406   .     A
C670   C672    1.406   .     A
C670   C705    1.524   .     S
C671   C673    1.407   .     A
C671   N715    1.437   .     S
C672   C674    1.407   .     A
C672   N718    1.437   .     S
C673   C914    1.438   1_545 S
C674   C913    1.438   .     S
C675   C693    1.409   .     A
C675   C679    1.408   .     A
C675   H677    1.083   .     S
C676   C680    1.408   .     A
C676   H678    1.083   .     S
C676   C694    1.409   .     A
C679   H681    1.082   .     S
C679   N683    1.364   .     A
C680   H682    1.081   .     S
C680   N684    1.365   .     A
N683   C685    1.365   .     A
N684   C686    1.365   .     A
C685   H687    1.081   .     S
C685   C689    1.407   .     A
C686   H688    1.081   .     S
C686   C690    1.408   .     A
C689   H691    1.083   .     S
C689   C693    1.408   .     A
C690   C694    1.408   .     A
C690   H692    1.083   .     S
C694   C213    1.509   1_556 S
C695   C696    1.535   .     S
C695   H703    1.109   .     S
C695   H704    1.108   .     S
C696   C697    1.526   .     S
C696   H702    1.111   .     S
C696   H701    1.111   .     S
C697   H699    1.111   .     S
C697   H700    1.110   .     S
C697   H698    1.110   .     S
C705   H713    1.109   .     S
C705   H714    1.108   .     S
C705   C706    1.534   .     S
C706   H712    1.111   .     S
C706   C707    1.527   .     S
C706   H711    1.111   .     S
C707   H708    1.111   .     S
C707   H709    1.111   .     S
C707   H710    1.110   .     S
N715   O716    1.301   .     A
N715   O957    1.301   1_545 S
O717   N955    1.301   .     S
N718   O719    1.301   .     A
N718   O960    1.301   .     S
O720   N958    1.301   1_545 S
O721   C725    1.284   .     A
O721   Zn733   1.991   .     S
O722   C726    1.284   .     A
O722   Zn734   1.991   .     S
O723   Zn734   1.990   .     S
O723   C725    1.282   .     A
O724   Zn733   1.990   .     S
O724   C726    1.282   .     A
C725   C747    1.434   .     S
C726   C748    1.433   .     S
O727   Zn733   1.967   .     S
O727   C731    1.275   .     A
O728   C732    1.275   .     A
O728   Zn734   1.967   .     S
O729   Zn734   1.978   .     S
O729   C731    1.277   .     A
O730   C732    1.277   .     A
O730   Zn733   1.978   .     S
C731   C735    1.400   .     S
C732   C736    1.400   .     S
Zn733  N764    2.004   .     S
Zn734  N763    2.004   .     S
C735   C896    1.329   1_455 S
C735   H897    1.087   1_455 S
C736   C815    1.329   .     S
C736   H818    1.088   .     S
H737   C815    1.087   .     S
H738   C896    1.088   1_455 S
C739   H741    1.084   .     S
C739   C753    1.392   .     A
C739   C743    1.374   .     A
C740   C754    1.392   .     A
C740   C744    1.374   .     A
C740   H742    1.084   .     S
C743   C747    1.394   .     A
C743   H745    1.084   .     S
C744   H746    1.084   .     S
C744   C748    1.393   .     A
C747   C749    1.419   .     A
C748   C750    1.418   .     A
C749   C775    1.524   .     S
C749   C751    1.406   .     A
C750   C752    1.406   .     A
C750   C785    1.524   .     S
C751   C753    1.407   .     A
C751   N795    1.437   .     S
C752   C754    1.407   .     A
C752   N798    1.437   .     S
C754   C513    1.438   1_565 S
C755   C773    1.409   .     A
C755   C759    1.408   .     A
C755   H757    1.083   .     S
C756   C760    1.408   .     A
C756   H758    1.083   .     S
C756   C774    1.409   .     A
C759   H761    1.082   .     S
C759   N763    1.364   .     A
C760   H762    1.081   .     S
C760   N764    1.365   .     A
N763   C765    1.365   .     A
N764   C766    1.365   .     A
C765   H767    1.081   .     S
C765   C769    1.407   .     A
C766   H768    1.081   .     S
C766   C770    1.408   .     A
C769   H771    1.083   .     S
C769   C773    1.408   .     A
C770   C774    1.408   .     A
C770   H772    1.083   .     S
C774   C293    1.509   1_556 S
C775   C776    1.535   .     S
C775   H783    1.109   .     S
C775   H784    1.108   .     S
C776   C777    1.526   .     S
C776   H782    1.111   .     S
C776   H781    1.111   .     S
C777   H779    1.111   .     S
C777   H780    1.110   .     S
C777   H778    1.110   .     S
C785   H793    1.109   .     S
C785   H794    1.108   .     S
C785   C786    1.534   .     S
C786   H792    1.111   .     S
C786   C787    1.527   .     S
C786   H791    1.111   .     S
C787   H788    1.111   .     S
C787   H789    1.111   .     S
C787   H790    1.110   .     S
N795   O796    1.301   .     A
O797   N555    1.301   1_565 S
N798   O799    1.301   .     A
N798   O560    1.301   1_565 S
O801   C805    1.284   .     A
O801   Zn813   1.991   .     S
O802   C806    1.284   .     A
O802   Zn814   1.991   .     S
O803   Zn814   1.990   .     S
O803   C805    1.282   .     A
O804   Zn813   1.990   .     S
O804   C806    1.282   .     A
C805   C827    1.434   .     S
C806   C828    1.433   .     S
O807   Zn813   1.967   .     S
O807   C811    1.275   .     A
O808   C812    1.275   .     A
O808   Zn814   1.967   .     S
O809   Zn814   1.978   .     S
O809   C811    1.277   .     A
O810   C812    1.277   .     A
O810   Zn813   1.978   .     S
C811   C815    1.400   .     S
C812   C816    1.400   .     S
Zn813  N844    2.004   .     S
Zn814  N843    2.004   .     S
C816   C895    1.329   .     S
C816   H898    1.088   .     S
H817   C895    1.087   .     S
C819   H821    1.084   .     S
C819   C833    1.392   .     A
C819   C823    1.374   .     A
C820   C834    1.392   .     A
C820   C824    1.374   .     A
C820   H822    1.084   .     S
C823   C827    1.394   .     A
C823   H825    1.084   .     S
C824   H826    1.084   .     S
C824   C828    1.393   .     A
C827   C829    1.419   .     A
C828   C830    1.418   .     A
C829   C855    1.524   .     S
C829   C831    1.406   .     A
C830   C832    1.406   .     A
C830   C865    1.524   .     S
C831   C833    1.407   .     A
C831   N875    1.437   .     S
C832   C834    1.407   .     A
C832   N878    1.437   .     S
C834   C593    1.438   1_565 S
C835   C853    1.409   .     A
C835   C839    1.408   .     A
C835   H837    1.083   .     S
C836   C840    1.408   .     A
C836   H838    1.083   .     S
C836   C854    1.409   .     A
C839   H841    1.082   .     S
C839   N843    1.364   .     A
C840   H842    1.081   .     S
C840   N844    1.365   .     A
N843   C845    1.365   .     A
N844   C846    1.365   .     A
C845   H847    1.081   .     S
C845   C849    1.407   .     A
C846   H848    1.081   .     S
C846   C850    1.408   .     A
C849   H851    1.083   .     S
C849   C853    1.408   .     A
C850   C854    1.408   .     A
C850   H852    1.083   .     S
C854   C373    1.509   1_556 S
C855   C856    1.535   .     S
C855   H863    1.109   .     S
C855   H864    1.108   .     S
C856   C857    1.526   .     S
C856   H862    1.111   .     S
C856   H861    1.111   .     S
C857   H859    1.111   .     S
C857   H860    1.110   .     S
C857   H858    1.110   .     S
C865   H873    1.109   .     S
C865   H874    1.108   .     S
C865   C866    1.534   .     S
C866   H872    1.111   .     S
C866   C867    1.527   .     S
C866   H871    1.111   .     S
C867   H868    1.111   .     S
C867   H869    1.111   .     S
C867   H870    1.110   .     S
N875   O876    1.301   .     A
O877   N635    1.301   1_565 S
N878   O879    1.301   .     A
N878   O640    1.301   1_565 S
O881   C885    1.284   .     A
O881   Zn893   1.991   .     S
O882   C886    1.284   .     A
O882   Zn894   1.991   .     S
O883   Zn894   1.990   .     S
O883   C885    1.282   .     A
O884   Zn893   1.990   .     S
O884   C886    1.282   .     A
C885   C907    1.434   .     S
C886   C908    1.433   .     S
O887   Zn893   1.967   .     S
O887   C891    1.275   .     A
O888   C892    1.275   .     A
O888   Zn894   1.967   .     S
O889   Zn894   1.978   .     S
O889   C891    1.277   .     A
O890   C892    1.277   .     A
O890   Zn893   1.978   .     S
C891   C895    1.400   .     S
C892   C896    1.400   .     S
Zn893  N924    2.004   .     S
Zn894  N923    2.004   .     S
C896   C735    1.329   1_655 S
C896   H738    1.088   1_655 S
H897   C735    1.087   1_655 S
C899   H901    1.084   .     S
C899   C913    1.392   .     A
C899   C903    1.374   .     A
C900   C914    1.392   .     A
C900   C904    1.374   .     A
C900   H902    1.084   .     S
C903   C907    1.394   .     A
C903   H905    1.084   .     S
C904   H906    1.084   .     S
C904   C908    1.393   .     A
C907   C909    1.419   .     A
C908   C910    1.418   .     A
C909   C935    1.524   .     S
C909   C911    1.406   .     A
C910   C912    1.406   .     A
C910   C945    1.524   .     S
C911   C913    1.407   .     A
C911   N955    1.437   .     S
C912   C914    1.407   .     A
C912   N958    1.437   .     S
C914   C673    1.438   1_565 S
C915   C933    1.409   .     A
C915   C919    1.408   .     A
C915   H917    1.083   .     S
C916   C920    1.408   .     A
C916   H918    1.083   .     S
C916   C934    1.409   .     A
C919   H921    1.082   .     S
C919   N923    1.364   .     A
C920   H922    1.081   .     S
C920   N924    1.365   .     A
N923   C925    1.365   .     A
N924   C926    1.365   .     A
C925   H927    1.081   .     S
C925   C929    1.407   .     A
C926   H928    1.081   .     S
C926   C930    1.408   .     A
C929   H931    1.083   .     S
C929   C933    1.408   .     A
C930   C934    1.408   .     A
C930   H932    1.083   .     S
C934   C453    1.509   1_556 S
C935   C936    1.535   .     S
C935   H943    1.109   .     S
C935   H944    1.108   .     S
C936   C937    1.526   .     S
C936   H942    1.111   .     S
C936   H941    1.111   .     S
C937   H939    1.111   .     S
C937   H940    1.110   .     S
C937   H938    1.110   .     S
C945   H953    1.109   .     S
C945   H954    1.108   .     S
C945   C946    1.534   .     S
C946   H952    1.111   .     S
C946   C947    1.527   .     S
C946   H951    1.111   .     S
C947   H948    1.111   .     S
C947   H949    1.111   .     S
C947   H950    1.110   .     S
N955   O956    1.301   .     A
O957   N715    1.301   1_565 S
N958   O959    1.301   .     A
N958   O720    1.301   1_565 S
