data_str_m3_o1_o10_pcu_sym.185
_audit_creation_date              2020-01-03
_audit_creation_method            'Materials Studio'
_symmetry_space_group_name_H-M    'P1'
_symmetry_Int_Tables_number       1
_symmetry_cell_setting            triclinic
loop_
_symmetry_equiv_pos_as_xyz
  x,y,z
_cell_length_a                    25.9356
_cell_length_b                    31.9617
_cell_length_c                    29.5467
_cell_angle_alpha                 90.1433
_cell_angle_beta                  98.2807
_cell_angle_gamma                 90.0823
loop_
_atom_site_label
_atom_site_type_symbol
_atom_site_fract_x
_atom_site_fract_y
_atom_site_fract_z
_atom_site_U_iso_or_equiv
_atom_site_adp_type
_atom_site_occupancy
C1     C     0.16776   0.08673   0.16671   0.00000  Uiso   1.00
C2     C     0.16557   0.24660   0.16662   0.00000  Uiso   1.00
C3     C     0.06724   0.16575   0.15495   0.00000  Uiso   1.00
C4     C     0.26610   0.16758   0.17839   0.00000  Uiso   1.00
C5     C     0.01267   0.15971   0.14974   0.00000  Uiso   1.00
C6     C     0.32066   0.17363   0.18359   0.00000  Uiso   1.00
C7     C     0.20168   0.02066   0.14202   0.00000  Uiso   1.00
C8     C     0.13165   0.31268   0.19132   0.00000  Uiso   1.00
C9     C     0.19988   0.31105   0.14209   0.00000  Uiso   1.00
C10    C     0.13346   0.02229   0.19124   0.00000  Uiso   1.00
C11    C     0.16527   0.29072   0.16670   0.00000  Uiso   1.00
C12    C     0.16806   0.04261   0.16663   0.00000  Uiso   1.00
C13    C     0.20000   0.19192   0.02824   0.00000  Uiso   1.00
C14    C     0.13334   0.14142   0.30509   0.00000  Uiso   1.00
C15    C     0.19998   0.19191   0.31363   0.00000  Uiso   1.00
C16    C     0.13336   0.14142   0.01971   0.00000  Uiso   1.00
H17    H     0.22608   0.29346   0.12376   0.00000  Uiso   1.00
H18    H     0.10725   0.03987   0.20958   0.00000  Uiso   1.00
H19    H     0.22665   0.21211   0.04981   0.00000  Uiso   1.00
H20    H     0.10668   0.12122   0.28352   0.00000  Uiso   1.00
H21    H     0.22661   0.21211   0.29888   0.00000  Uiso   1.00
H22    H     0.10672   0.12123   0.03445   0.00000  Uiso   1.00
N23    N     0.16665   0.16666   0.28573   0.00000  Uiso   1.00
N24    N     0.16668   0.16668   0.04760   0.00000  Uiso   1.00
O25    O     0.16666   0.10558   0.20487   0.00000  Uiso   1.00
O26    O     0.16667   0.22775   0.12846   0.00000  Uiso   1.00
O27    O     0.16666   0.10559   0.12843   0.00000  Uiso   1.00
O28    O     0.16667   0.22774   0.20490   0.00000  Uiso   1.00
O29    O     0.09058   0.16666   0.19595   0.00000  Uiso   1.00
O30    O     0.24275   0.16667   0.13739   0.00000  Uiso   1.00
O31    O     0.09058   0.16667   0.11950   0.00000  Uiso   1.00
O32    O     0.24275   0.16666   0.21383   0.00000  Uiso   1.00
Zn33   Zn    0.16667   0.16666   0.21771   0.00000  Uiso   1.00
Zn34   Zn    0.16667   0.16667   0.11563   0.00000  Uiso   1.00
O35    O     0.32113   0.13659   0.11300   0.00000  Uiso   1.00
H36    H     0.01377   0.12608   0.09420   0.00000  Uiso   1.00
O37    O     0.01220   0.19675   0.22033   0.00000  Uiso   1.00
H38    H     0.31956   0.20726   0.23913   0.00000  Uiso   1.00
Cl39   Cl    0.24806   0.04544   0.11289   0.00000  Uiso   1.00
Cl40   Cl    0.08527   0.28789   0.22045   0.00000  Uiso   1.00
C41    C     0.50110   0.08673   0.16671   0.00000  Uiso   1.00
C42    C     0.49891   0.24660   0.16662   0.00000  Uiso   1.00
C43    C     0.40057   0.16575   0.15495   0.00000  Uiso   1.00
C44    C     0.59943   0.16758   0.17839   0.00000  Uiso   1.00
C45    C     0.34601   0.15971   0.14974   0.00000  Uiso   1.00
C46    C     0.65399   0.17363   0.18359   0.00000  Uiso   1.00
C47    C     0.53502   0.02066   0.14202   0.00000  Uiso   1.00
C48    C     0.46498   0.31268   0.19132   0.00000  Uiso   1.00
C49    C     0.53321   0.31105   0.14209   0.00000  Uiso   1.00
C50    C     0.46679   0.02229   0.19124   0.00000  Uiso   1.00
C51    C     0.49860   0.29072   0.16670   0.00000  Uiso   1.00
C52    C     0.50140   0.04261   0.16663   0.00000  Uiso   1.00
C53    C     0.53333   0.19192   0.02824   0.00000  Uiso   1.00
C54    C     0.46667   0.14142   0.30509   0.00000  Uiso   1.00
C55    C     0.53331   0.19191   0.31363   0.00000  Uiso   1.00
C56    C     0.46669   0.14142   0.01971   0.00000  Uiso   1.00
H57    H     0.55942   0.29346   0.12376   0.00000  Uiso   1.00
H58    H     0.44058   0.03987   0.20958   0.00000  Uiso   1.00
H59    H     0.55998   0.21211   0.04981   0.00000  Uiso   1.00
H60    H     0.44002   0.12122   0.28352   0.00000  Uiso   1.00
H61    H     0.55994   0.21211   0.29888   0.00000  Uiso   1.00
H62    H     0.44006   0.12123   0.03445   0.00000  Uiso   1.00
N63    N     0.49999   0.16666   0.28573   0.00000  Uiso   1.00
N64    N     0.50001   0.16668   0.04760   0.00000  Uiso   1.00
O65    O     0.50000   0.10558   0.20487   0.00000  Uiso   1.00
O66    O     0.50000   0.22775   0.12846   0.00000  Uiso   1.00
O67    O     0.50000   0.10559   0.12843   0.00000  Uiso   1.00
O68    O     0.50000   0.22774   0.20490   0.00000  Uiso   1.00
O69    O     0.42392   0.16666   0.19595   0.00000  Uiso   1.00
O70    O     0.57608   0.16667   0.13739   0.00000  Uiso   1.00
O71    O     0.42392   0.16667   0.11950   0.00000  Uiso   1.00
O72    O     0.57608   0.16666   0.21383   0.00000  Uiso   1.00
Zn73   Zn    0.50000   0.16666   0.21771   0.00000  Uiso   1.00
Zn74   Zn    0.50000   0.16667   0.11563   0.00000  Uiso   1.00
O75    O     0.65447   0.13659   0.11300   0.00000  Uiso   1.00
H76    H     0.34711   0.12608   0.09420   0.00000  Uiso   1.00
O77    O     0.34553   0.19675   0.22033   0.00000  Uiso   1.00
H78    H     0.65289   0.20726   0.23913   0.00000  Uiso   1.00
Cl79   Cl    0.58140   0.04544   0.11289   0.00000  Uiso   1.00
Cl80   Cl    0.41860   0.28789   0.22045   0.00000  Uiso   1.00
C81    C     0.83443   0.08673   0.16671   0.00000  Uiso   1.00
C82    C     0.83224   0.24660   0.16662   0.00000  Uiso   1.00
C83    C     0.73390   0.16575   0.15495   0.00000  Uiso   1.00
C84    C     0.93276   0.16758   0.17839   0.00000  Uiso   1.00
C85    C     0.67934   0.15971   0.14974   0.00000  Uiso   1.00
C86    C     0.98733   0.17363   0.18359   0.00000  Uiso   1.00
C87    C     0.86835   0.02066   0.14202   0.00000  Uiso   1.00
C88    C     0.79832   0.31268   0.19132   0.00000  Uiso   1.00
C89    C     0.86654   0.31105   0.14209   0.00000  Uiso   1.00
C90    C     0.80012   0.02229   0.19124   0.00000  Uiso   1.00
C91    C     0.83194   0.29072   0.16670   0.00000  Uiso   1.00
C92    C     0.83473   0.04261   0.16663   0.00000  Uiso   1.00
C93    C     0.86666   0.19192   0.02824   0.00000  Uiso   1.00
C94    C     0.80000   0.14142   0.30509   0.00000  Uiso   1.00
C95    C     0.86664   0.19191   0.31363   0.00000  Uiso   1.00
C96    C     0.80002   0.14142   0.01971   0.00000  Uiso   1.00
H97    H     0.89275   0.29346   0.12376   0.00000  Uiso   1.00
H98    H     0.77392   0.03987   0.20958   0.00000  Uiso   1.00
H99    H     0.89332   0.21211   0.04981   0.00000  Uiso   1.00
H100   H     0.77335   0.12122   0.28352   0.00000  Uiso   1.00
H101   H     0.89328   0.21211   0.29888   0.00000  Uiso   1.00
H102   H     0.77339   0.12123   0.03445   0.00000  Uiso   1.00
N103   N     0.83332   0.16666   0.28573   0.00000  Uiso   1.00
N104   N     0.83335   0.16668   0.04760   0.00000  Uiso   1.00
O105   O     0.83333   0.10558   0.20487   0.00000  Uiso   1.00
O106   O     0.83334   0.22775   0.12846   0.00000  Uiso   1.00
O107   O     0.83333   0.10559   0.12843   0.00000  Uiso   1.00
O108   O     0.83334   0.22774   0.20490   0.00000  Uiso   1.00
O109   O     0.75725   0.16666   0.19595   0.00000  Uiso   1.00
O110   O     0.90942   0.16667   0.13739   0.00000  Uiso   1.00
O111   O     0.75725   0.16667   0.11950   0.00000  Uiso   1.00
O112   O     0.90942   0.16666   0.21383   0.00000  Uiso   1.00
Zn113  Zn    0.83333   0.16666   0.21771   0.00000  Uiso   1.00
Zn114  Zn    0.83333   0.16667   0.11563   0.00000  Uiso   1.00
O115   O     0.98780   0.13659   0.11300   0.00000  Uiso   1.00
H116   H     0.68044   0.12608   0.09420   0.00000  Uiso   1.00
O117   O     0.67887   0.19675   0.22033   0.00000  Uiso   1.00
H118   H     0.98623   0.20726   0.23913   0.00000  Uiso   1.00
Cl119  Cl    0.91473   0.04544   0.11289   0.00000  Uiso   1.00
Cl120  Cl    0.75194   0.28789   0.22045   0.00000  Uiso   1.00
C121   C     0.16776   0.42006   0.16671   0.00000  Uiso   1.00
C122   C     0.16557   0.57994   0.16662   0.00000  Uiso   1.00
C123   C     0.06724   0.49909   0.15495   0.00000  Uiso   1.00
C124   C     0.26610   0.50092   0.17839   0.00000  Uiso   1.00
C125   C     0.01267   0.49304   0.14974   0.00000  Uiso   1.00
C126   C     0.32066   0.50696   0.18359   0.00000  Uiso   1.00
C127   C     0.20168   0.35399   0.14202   0.00000  Uiso   1.00
C128   C     0.13165   0.64601   0.19132   0.00000  Uiso   1.00
C129   C     0.19988   0.64438   0.14209   0.00000  Uiso   1.00
C130   C     0.13346   0.35562   0.19124   0.00000  Uiso   1.00
C131   C     0.16527   0.62405   0.16670   0.00000  Uiso   1.00
C132   C     0.16806   0.37595   0.16663   0.00000  Uiso   1.00
C133   C     0.20000   0.52525   0.02824   0.00000  Uiso   1.00
C134   C     0.13334   0.47475   0.30509   0.00000  Uiso   1.00
C135   C     0.19998   0.52525   0.31363   0.00000  Uiso   1.00
C136   C     0.13336   0.47475   0.01971   0.00000  Uiso   1.00
H137   H     0.22608   0.62680   0.12376   0.00000  Uiso   1.00
H138   H     0.10725   0.37320   0.20958   0.00000  Uiso   1.00
H139   H     0.22665   0.54545   0.04981   0.00000  Uiso   1.00
H140   H     0.10668   0.45455   0.28352   0.00000  Uiso   1.00
H141   H     0.22661   0.54544   0.29888   0.00000  Uiso   1.00
H142   H     0.10672   0.45456   0.03445   0.00000  Uiso   1.00
N143   N     0.16665   0.49999   0.28573   0.00000  Uiso   1.00
N144   N     0.16668   0.50001   0.04760   0.00000  Uiso   1.00
O145   O     0.16666   0.43892   0.20487   0.00000  Uiso   1.00
O146   O     0.16667   0.56108   0.12846   0.00000  Uiso   1.00
O147   O     0.16666   0.43893   0.12843   0.00000  Uiso   1.00
O148   O     0.16667   0.56107   0.20490   0.00000  Uiso   1.00
O149   O     0.09058   0.50000   0.19595   0.00000  Uiso   1.00
O150   O     0.24275   0.50000   0.13739   0.00000  Uiso   1.00
O151   O     0.09058   0.50000   0.11950   0.00000  Uiso   1.00
O152   O     0.24275   0.50000   0.21383   0.00000  Uiso   1.00
Zn153  Zn    0.16667   0.49999   0.21771   0.00000  Uiso   1.00
Zn154  Zn    0.16667   0.50001   0.11563   0.00000  Uiso   1.00
O155   O     0.32113   0.46992   0.11300   0.00000  Uiso   1.00
H156   H     0.01377   0.45941   0.09420   0.00000  Uiso   1.00
O157   O     0.01220   0.53008   0.22033   0.00000  Uiso   1.00
H158   H     0.31956   0.54059   0.23913   0.00000  Uiso   1.00
Cl159  Cl    0.24806   0.37878   0.11289   0.00000  Uiso   1.00
Cl160  Cl    0.08527   0.62122   0.22045   0.00000  Uiso   1.00
C161   C     0.50110   0.42006   0.16671   0.00000  Uiso   1.00
C162   C     0.49891   0.57994   0.16662   0.00000  Uiso   1.00
C163   C     0.40057   0.49909   0.15495   0.00000  Uiso   1.00
C164   C     0.59943   0.50092   0.17839   0.00000  Uiso   1.00
C165   C     0.34601   0.49304   0.14974   0.00000  Uiso   1.00
C166   C     0.65399   0.50696   0.18359   0.00000  Uiso   1.00
C167   C     0.53502   0.35399   0.14202   0.00000  Uiso   1.00
C168   C     0.46498   0.64601   0.19132   0.00000  Uiso   1.00
C169   C     0.53321   0.64438   0.14209   0.00000  Uiso   1.00
C170   C     0.46679   0.35562   0.19124   0.00000  Uiso   1.00
C171   C     0.49860   0.62405   0.16670   0.00000  Uiso   1.00
C172   C     0.50140   0.37595   0.16663   0.00000  Uiso   1.00
C173   C     0.53333   0.52525   0.02824   0.00000  Uiso   1.00
C174   C     0.46667   0.47475   0.30509   0.00000  Uiso   1.00
C175   C     0.53331   0.52525   0.31363   0.00000  Uiso   1.00
C176   C     0.46669   0.47475   0.01971   0.00000  Uiso   1.00
H177   H     0.55942   0.62680   0.12376   0.00000  Uiso   1.00
H178   H     0.44058   0.37320   0.20958   0.00000  Uiso   1.00
H179   H     0.55998   0.54545   0.04981   0.00000  Uiso   1.00
H180   H     0.44002   0.45455   0.28352   0.00000  Uiso   1.00
H181   H     0.55994   0.54544   0.29888   0.00000  Uiso   1.00
H182   H     0.44006   0.45456   0.03445   0.00000  Uiso   1.00
N183   N     0.49999   0.49999   0.28573   0.00000  Uiso   1.00
N184   N     0.50001   0.50001   0.04760   0.00000  Uiso   1.00
O185   O     0.50000   0.43892   0.20487   0.00000  Uiso   1.00
O186   O     0.50000   0.56108   0.12846   0.00000  Uiso   1.00
O187   O     0.50000   0.43893   0.12843   0.00000  Uiso   1.00
O188   O     0.50000   0.56107   0.20490   0.00000  Uiso   1.00
O189   O     0.42392   0.50000   0.19595   0.00000  Uiso   1.00
O190   O     0.57608   0.50000   0.13739   0.00000  Uiso   1.00
O191   O     0.42392   0.50000   0.11950   0.00000  Uiso   1.00
O192   O     0.57608   0.50000   0.21383   0.00000  Uiso   1.00
Zn193  Zn    0.50000   0.49999   0.21771   0.00000  Uiso   1.00
Zn194  Zn    0.50000   0.50001   0.11563   0.00000  Uiso   1.00
O195   O     0.65447   0.46992   0.11300   0.00000  Uiso   1.00
H196   H     0.34711   0.45941   0.09420   0.00000  Uiso   1.00
O197   O     0.34553   0.53008   0.22033   0.00000  Uiso   1.00
H198   H     0.65289   0.54059   0.23913   0.00000  Uiso   1.00
Cl199  Cl    0.58140   0.37878   0.11289   0.00000  Uiso   1.00
Cl200  Cl    0.41860   0.62122   0.22045   0.00000  Uiso   1.00
C201   C     0.83443   0.42006   0.16671   0.00000  Uiso   1.00
C202   C     0.83224   0.57994   0.16662   0.00000  Uiso   1.00
C203   C     0.73390   0.49909   0.15495   0.00000  Uiso   1.00
C204   C     0.93276   0.50092   0.17839   0.00000  Uiso   1.00
C205   C     0.67934   0.49304   0.14974   0.00000  Uiso   1.00
C206   C     0.98733   0.50696   0.18359   0.00000  Uiso   1.00
C207   C     0.86835   0.35399   0.14202   0.00000  Uiso   1.00
C208   C     0.79832   0.64601   0.19132   0.00000  Uiso   1.00
C209   C     0.86654   0.64438   0.14209   0.00000  Uiso   1.00
C210   C     0.80012   0.35562   0.19124   0.00000  Uiso   1.00
C211   C     0.83194   0.62405   0.16670   0.00000  Uiso   1.00
C212   C     0.83473   0.37595   0.16663   0.00000  Uiso   1.00
C213   C     0.86666   0.52525   0.02824   0.00000  Uiso   1.00
C214   C     0.80000   0.47475   0.30509   0.00000  Uiso   1.00
C215   C     0.86664   0.52525   0.31363   0.00000  Uiso   1.00
C216   C     0.80002   0.47475   0.01971   0.00000  Uiso   1.00
H217   H     0.89275   0.62680   0.12376   0.00000  Uiso   1.00
H218   H     0.77392   0.37320   0.20958   0.00000  Uiso   1.00
H219   H     0.89332   0.54545   0.04981   0.00000  Uiso   1.00
H220   H     0.77335   0.45455   0.28352   0.00000  Uiso   1.00
H221   H     0.89328   0.54544   0.29888   0.00000  Uiso   1.00
H222   H     0.77339   0.45456   0.03445   0.00000  Uiso   1.00
N223   N     0.83332   0.49999   0.28573   0.00000  Uiso   1.00
N224   N     0.83335   0.50001   0.04760   0.00000  Uiso   1.00
O225   O     0.83333   0.43892   0.20487   0.00000  Uiso   1.00
O226   O     0.83334   0.56108   0.12846   0.00000  Uiso   1.00
O227   O     0.83333   0.43893   0.12843   0.00000  Uiso   1.00
O228   O     0.83334   0.56107   0.20490   0.00000  Uiso   1.00
O229   O     0.75725   0.50000   0.19595   0.00000  Uiso   1.00
O230   O     0.90942   0.50000   0.13739   0.00000  Uiso   1.00
O231   O     0.75725   0.50000   0.11950   0.00000  Uiso   1.00
O232   O     0.90942   0.50000   0.21383   0.00000  Uiso   1.00
Zn233  Zn    0.83333   0.49999   0.21771   0.00000  Uiso   1.00
Zn234  Zn    0.83333   0.50001   0.11563   0.00000  Uiso   1.00
O235   O     0.98780   0.46992   0.11300   0.00000  Uiso   1.00
H236   H     0.68044   0.45941   0.09420   0.00000  Uiso   1.00
O237   O     0.67887   0.53008   0.22033   0.00000  Uiso   1.00
H238   H     0.98623   0.54059   0.23913   0.00000  Uiso   1.00
Cl239  Cl    0.91473   0.37878   0.11289   0.00000  Uiso   1.00
Cl240  Cl    0.75194   0.62122   0.22045   0.00000  Uiso   1.00
C241   C     0.16776   0.75340   0.16671   0.00000  Uiso   1.00
C242   C     0.16557   0.91327   0.16662   0.00000  Uiso   1.00
C243   C     0.06724   0.83242   0.15495   0.00000  Uiso   1.00
C244   C     0.26610   0.83425   0.17839   0.00000  Uiso   1.00
C245   C     0.01267   0.82637   0.14974   0.00000  Uiso   1.00
C246   C     0.32066   0.84029   0.18359   0.00000  Uiso   1.00
C247   C     0.20168   0.68732   0.14202   0.00000  Uiso   1.00
C248   C     0.13165   0.97934   0.19132   0.00000  Uiso   1.00
C249   C     0.19988   0.97771   0.14209   0.00000  Uiso   1.00
C250   C     0.13346   0.68895   0.19124   0.00000  Uiso   1.00
C251   C     0.16527   0.95739   0.16670   0.00000  Uiso   1.00
C252   C     0.16806   0.70928   0.16663   0.00000  Uiso   1.00
C253   C     0.20000   0.85858   0.02824   0.00000  Uiso   1.00
C254   C     0.13334   0.80808   0.30509   0.00000  Uiso   1.00
C255   C     0.19998   0.85858   0.31363   0.00000  Uiso   1.00
C256   C     0.13336   0.80809   0.01971   0.00000  Uiso   1.00
H257   H     0.22608   0.96013   0.12376   0.00000  Uiso   1.00
H258   H     0.10725   0.70654   0.20958   0.00000  Uiso   1.00
H259   H     0.22665   0.87878   0.04981   0.00000  Uiso   1.00
H260   H     0.10668   0.78789   0.28352   0.00000  Uiso   1.00
H261   H     0.22661   0.87877   0.29888   0.00000  Uiso   1.00
H262   H     0.10672   0.78789   0.03445   0.00000  Uiso   1.00
N263   N     0.16665   0.83332   0.28573   0.00000  Uiso   1.00
N264   N     0.16668   0.83334   0.04760   0.00000  Uiso   1.00
O265   O     0.16666   0.77225   0.20487   0.00000  Uiso   1.00
O266   O     0.16667   0.89442   0.12846   0.00000  Uiso   1.00
O267   O     0.16666   0.77226   0.12843   0.00000  Uiso   1.00
O268   O     0.16667   0.89441   0.20490   0.00000  Uiso   1.00
O269   O     0.09058   0.83333   0.19595   0.00000  Uiso   1.00
O270   O     0.24275   0.83334   0.13739   0.00000  Uiso   1.00
O271   O     0.09058   0.83334   0.11950   0.00000  Uiso   1.00
O272   O     0.24275   0.83333   0.21383   0.00000  Uiso   1.00
Zn273  Zn    0.16667   0.83333   0.21771   0.00000  Uiso   1.00
Zn274  Zn    0.16667   0.83334   0.11563   0.00000  Uiso   1.00
O275   O     0.32113   0.80326   0.11300   0.00000  Uiso   1.00
H276   H     0.01377   0.79274   0.09420   0.00000  Uiso   1.00
O277   O     0.01220   0.86341   0.22033   0.00000  Uiso   1.00
H278   H     0.31956   0.87392   0.23913   0.00000  Uiso   1.00
Cl279  Cl    0.24806   0.71211   0.11289   0.00000  Uiso   1.00
Cl280  Cl    0.08527   0.95456   0.22045   0.00000  Uiso   1.00
C281   C     0.50110   0.75340   0.16671   0.00000  Uiso   1.00
C282   C     0.49891   0.91327   0.16662   0.00000  Uiso   1.00
C283   C     0.40057   0.83242   0.15495   0.00000  Uiso   1.00
C284   C     0.59943   0.83425   0.17839   0.00000  Uiso   1.00
C285   C     0.34601   0.82637   0.14974   0.00000  Uiso   1.00
C286   C     0.65399   0.84029   0.18359   0.00000  Uiso   1.00
C287   C     0.53502   0.68732   0.14202   0.00000  Uiso   1.00
C288   C     0.46498   0.97934   0.19132   0.00000  Uiso   1.00
C289   C     0.53321   0.97771   0.14209   0.00000  Uiso   1.00
C290   C     0.46679   0.68895   0.19124   0.00000  Uiso   1.00
C291   C     0.49860   0.95739   0.16670   0.00000  Uiso   1.00
C292   C     0.50140   0.70928   0.16663   0.00000  Uiso   1.00
C293   C     0.53333   0.85858   0.02824   0.00000  Uiso   1.00
C294   C     0.46667   0.80808   0.30509   0.00000  Uiso   1.00
C295   C     0.53331   0.85858   0.31363   0.00000  Uiso   1.00
C296   C     0.46669   0.80809   0.01971   0.00000  Uiso   1.00
H297   H     0.55942   0.96013   0.12376   0.00000  Uiso   1.00
H298   H     0.44058   0.70654   0.20958   0.00000  Uiso   1.00
H299   H     0.55998   0.87878   0.04981   0.00000  Uiso   1.00
H300   H     0.44002   0.78789   0.28352   0.00000  Uiso   1.00
H301   H     0.55994   0.87877   0.29888   0.00000  Uiso   1.00
H302   H     0.44006   0.78789   0.03445   0.00000  Uiso   1.00
N303   N     0.49999   0.83332   0.28573   0.00000  Uiso   1.00
N304   N     0.50001   0.83334   0.04760   0.00000  Uiso   1.00
O305   O     0.50000   0.77225   0.20487   0.00000  Uiso   1.00
O306   O     0.50000   0.89442   0.12846   0.00000  Uiso   1.00
O307   O     0.50000   0.77226   0.12843   0.00000  Uiso   1.00
O308   O     0.50000   0.89441   0.20490   0.00000  Uiso   1.00
O309   O     0.42392   0.83333   0.19595   0.00000  Uiso   1.00
O310   O     0.57608   0.83334   0.13739   0.00000  Uiso   1.00
O311   O     0.42392   0.83334   0.11950   0.00000  Uiso   1.00
O312   O     0.57608   0.83333   0.21383   0.00000  Uiso   1.00
Zn313  Zn    0.50000   0.83333   0.21771   0.00000  Uiso   1.00
Zn314  Zn    0.50000   0.83334   0.11563   0.00000  Uiso   1.00
O315   O     0.65447   0.80326   0.11300   0.00000  Uiso   1.00
H316   H     0.34711   0.79274   0.09420   0.00000  Uiso   1.00
O317   O     0.34553   0.86341   0.22033   0.00000  Uiso   1.00
H318   H     0.65289   0.87392   0.23913   0.00000  Uiso   1.00
Cl319  Cl    0.58140   0.71211   0.11289   0.00000  Uiso   1.00
Cl320  Cl    0.41860   0.95456   0.22045   0.00000  Uiso   1.00
C321   C     0.83443   0.75340   0.16671   0.00000  Uiso   1.00
C322   C     0.83224   0.91327   0.16662   0.00000  Uiso   1.00
C323   C     0.73390   0.83242   0.15495   0.00000  Uiso   1.00
C324   C     0.93276   0.83425   0.17839   0.00000  Uiso   1.00
C325   C     0.67934   0.82637   0.14974   0.00000  Uiso   1.00
C326   C     0.98733   0.84029   0.18359   0.00000  Uiso   1.00
C327   C     0.86835   0.68732   0.14202   0.00000  Uiso   1.00
C328   C     0.79832   0.97934   0.19132   0.00000  Uiso   1.00
C329   C     0.86654   0.97771   0.14209   0.00000  Uiso   1.00
C330   C     0.80012   0.68895   0.19124   0.00000  Uiso   1.00
C331   C     0.83194   0.95739   0.16670   0.00000  Uiso   1.00
C332   C     0.83473   0.70928   0.16663   0.00000  Uiso   1.00
C333   C     0.86666   0.85858   0.02824   0.00000  Uiso   1.00
C334   C     0.80000   0.80808   0.30509   0.00000  Uiso   1.00
C335   C     0.86664   0.85858   0.31363   0.00000  Uiso   1.00
C336   C     0.80002   0.80809   0.01971   0.00000  Uiso   1.00
H337   H     0.89275   0.96013   0.12376   0.00000  Uiso   1.00
H338   H     0.77392   0.70654   0.20958   0.00000  Uiso   1.00
H339   H     0.89332   0.87878   0.04981   0.00000  Uiso   1.00
H340   H     0.77335   0.78789   0.28352   0.00000  Uiso   1.00
H341   H     0.89328   0.87877   0.29888   0.00000  Uiso   1.00
H342   H     0.77339   0.78789   0.03445   0.00000  Uiso   1.00
N343   N     0.83332   0.83332   0.28573   0.00000  Uiso   1.00
N344   N     0.83335   0.83334   0.04760   0.00000  Uiso   1.00
O345   O     0.83333   0.77225   0.20487   0.00000  Uiso   1.00
O346   O     0.83334   0.89442   0.12846   0.00000  Uiso   1.00
O347   O     0.83333   0.77226   0.12843   0.00000  Uiso   1.00
O348   O     0.83334   0.89441   0.20490   0.00000  Uiso   1.00
O349   O     0.75725   0.83333   0.19595   0.00000  Uiso   1.00
O350   O     0.90942   0.83334   0.13739   0.00000  Uiso   1.00
O351   O     0.75725   0.83334   0.11950   0.00000  Uiso   1.00
O352   O     0.90942   0.83333   0.21383   0.00000  Uiso   1.00
Zn353  Zn    0.83333   0.83333   0.21771   0.00000  Uiso   1.00
Zn354  Zn    0.83333   0.83334   0.11563   0.00000  Uiso   1.00
O355   O     0.98780   0.80326   0.11300   0.00000  Uiso   1.00
H356   H     0.68044   0.79274   0.09420   0.00000  Uiso   1.00
O357   O     0.67887   0.86341   0.22033   0.00000  Uiso   1.00
H358   H     0.98623   0.87392   0.23913   0.00000  Uiso   1.00
Cl359  Cl    0.91473   0.71211   0.11289   0.00000  Uiso   1.00
Cl360  Cl    0.75194   0.95456   0.22045   0.00000  Uiso   1.00
C361   C     0.16776   0.08673   0.50004   0.00000  Uiso   1.00
C362   C     0.16557   0.24660   0.49996   0.00000  Uiso   1.00
C363   C     0.06724   0.16575   0.48828   0.00000  Uiso   1.00
C364   C     0.26610   0.16758   0.51172   0.00000  Uiso   1.00
C365   C     0.01267   0.15971   0.48307   0.00000  Uiso   1.00
C366   C     0.32066   0.17363   0.51692   0.00000  Uiso   1.00
C367   C     0.20168   0.02066   0.47535   0.00000  Uiso   1.00
C368   C     0.13165   0.31268   0.52465   0.00000  Uiso   1.00
C369   C     0.19988   0.31105   0.47542   0.00000  Uiso   1.00
C370   C     0.13346   0.02229   0.52457   0.00000  Uiso   1.00
C371   C     0.16527   0.29072   0.50003   0.00000  Uiso   1.00
C372   C     0.16806   0.04261   0.49997   0.00000  Uiso   1.00
C373   C     0.20000   0.19192   0.36158   0.00000  Uiso   1.00
C374   C     0.13334   0.14142   0.63842   0.00000  Uiso   1.00
C375   C     0.19998   0.19191   0.64696   0.00000  Uiso   1.00
C376   C     0.13336   0.14142   0.35304   0.00000  Uiso   1.00
H377   H     0.22608   0.29346   0.45709   0.00000  Uiso   1.00
H378   H     0.10725   0.03987   0.54291   0.00000  Uiso   1.00
H379   H     0.22665   0.21211   0.38314   0.00000  Uiso   1.00
H380   H     0.10668   0.12122   0.61685   0.00000  Uiso   1.00
H381   H     0.22661   0.21211   0.63221   0.00000  Uiso   1.00
H382   H     0.10672   0.12123   0.36779   0.00000  Uiso   1.00
N383   N     0.16665   0.16666   0.61907   0.00000  Uiso   1.00
N384   N     0.16668   0.16668   0.38093   0.00000  Uiso   1.00
O385   O     0.16666   0.10558   0.53821   0.00000  Uiso   1.00
O386   O     0.16667   0.22775   0.46179   0.00000  Uiso   1.00
O387   O     0.16666   0.10559   0.46176   0.00000  Uiso   1.00
O388   O     0.16667   0.22774   0.53824   0.00000  Uiso   1.00
O389   O     0.09058   0.16666   0.52928   0.00000  Uiso   1.00
O390   O     0.24275   0.16667   0.47072   0.00000  Uiso   1.00
O391   O     0.09058   0.16667   0.45284   0.00000  Uiso   1.00
O392   O     0.24275   0.16666   0.54716   0.00000  Uiso   1.00
Zn393  Zn    0.16667   0.16666   0.55104   0.00000  Uiso   1.00
Zn394  Zn    0.16667   0.16667   0.44896   0.00000  Uiso   1.00
O395   O     0.32113   0.13659   0.44633   0.00000  Uiso   1.00
H396   H     0.01377   0.12608   0.42754   0.00000  Uiso   1.00
O397   O     0.01220   0.19675   0.55367   0.00000  Uiso   1.00
H398   H     0.31956   0.20726   0.57246   0.00000  Uiso   1.00
Cl399  Cl    0.24806   0.04544   0.44622   0.00000  Uiso   1.00
Cl400  Cl    0.08527   0.28789   0.55378   0.00000  Uiso   1.00
C401   C     0.50110   0.08673   0.50004   0.00000  Uiso   1.00
C402   C     0.49891   0.24660   0.49996   0.00000  Uiso   1.00
C403   C     0.40057   0.16575   0.48828   0.00000  Uiso   1.00
C404   C     0.59943   0.16758   0.51172   0.00000  Uiso   1.00
C405   C     0.34601   0.15971   0.48307   0.00000  Uiso   1.00
C406   C     0.65399   0.17363   0.51692   0.00000  Uiso   1.00
C407   C     0.53502   0.02066   0.47535   0.00000  Uiso   1.00
C408   C     0.46498   0.31268   0.52465   0.00000  Uiso   1.00
C409   C     0.53321   0.31105   0.47542   0.00000  Uiso   1.00
C410   C     0.46679   0.02229   0.52457   0.00000  Uiso   1.00
C411   C     0.49860   0.29072   0.50003   0.00000  Uiso   1.00
C412   C     0.50140   0.04261   0.49997   0.00000  Uiso   1.00
C413   C     0.53333   0.19192   0.36158   0.00000  Uiso   1.00
C414   C     0.46667   0.14142   0.63842   0.00000  Uiso   1.00
C415   C     0.53331   0.19191   0.64696   0.00000  Uiso   1.00
C416   C     0.46669   0.14142   0.35304   0.00000  Uiso   1.00
H417   H     0.55942   0.29346   0.45709   0.00000  Uiso   1.00
H418   H     0.44058   0.03987   0.54291   0.00000  Uiso   1.00
H419   H     0.55998   0.21211   0.38314   0.00000  Uiso   1.00
H420   H     0.44002   0.12122   0.61685   0.00000  Uiso   1.00
H421   H     0.55994   0.21211   0.63221   0.00000  Uiso   1.00
H422   H     0.44006   0.12123   0.36779   0.00000  Uiso   1.00
N423   N     0.49999   0.16666   0.61907   0.00000  Uiso   1.00
N424   N     0.50001   0.16668   0.38093   0.00000  Uiso   1.00
O425   O     0.50000   0.10558   0.53821   0.00000  Uiso   1.00
O426   O     0.50000   0.22775   0.46179   0.00000  Uiso   1.00
O427   O     0.50000   0.10559   0.46176   0.00000  Uiso   1.00
O428   O     0.50000   0.22774   0.53824   0.00000  Uiso   1.00
O429   O     0.42392   0.16666   0.52928   0.00000  Uiso   1.00
O430   O     0.57608   0.16667   0.47072   0.00000  Uiso   1.00
O431   O     0.42392   0.16667   0.45284   0.00000  Uiso   1.00
O432   O     0.57608   0.16666   0.54716   0.00000  Uiso   1.00
Zn433  Zn    0.50000   0.16666   0.55104   0.00000  Uiso   1.00
Zn434  Zn    0.50000   0.16667   0.44896   0.00000  Uiso   1.00
O435   O     0.65447   0.13659   0.44633   0.00000  Uiso   1.00
H436   H     0.34711   0.12608   0.42754   0.00000  Uiso   1.00
O437   O     0.34553   0.19675   0.55367   0.00000  Uiso   1.00
H438   H     0.65289   0.20726   0.57246   0.00000  Uiso   1.00
Cl439  Cl    0.58140   0.04544   0.44622   0.00000  Uiso   1.00
Cl440  Cl    0.41860   0.28789   0.55378   0.00000  Uiso   1.00
C441   C     0.83443   0.08673   0.50004   0.00000  Uiso   1.00
C442   C     0.83224   0.24660   0.49996   0.00000  Uiso   1.00
C443   C     0.73390   0.16575   0.48828   0.00000  Uiso   1.00
C444   C     0.93276   0.16758   0.51172   0.00000  Uiso   1.00
C445   C     0.67934   0.15971   0.48307   0.00000  Uiso   1.00
C446   C     0.98733   0.17363   0.51692   0.00000  Uiso   1.00
C447   C     0.86835   0.02066   0.47535   0.00000  Uiso   1.00
C448   C     0.79832   0.31268   0.52465   0.00000  Uiso   1.00
C449   C     0.86654   0.31105   0.47542   0.00000  Uiso   1.00
C450   C     0.80012   0.02229   0.52457   0.00000  Uiso   1.00
C451   C     0.83194   0.29072   0.50003   0.00000  Uiso   1.00
C452   C     0.83473   0.04261   0.49997   0.00000  Uiso   1.00
C453   C     0.86666   0.19192   0.36158   0.00000  Uiso   1.00
C454   C     0.80000   0.14142   0.63842   0.00000  Uiso   1.00
C455   C     0.86664   0.19191   0.64696   0.00000  Uiso   1.00
C456   C     0.80002   0.14142   0.35304   0.00000  Uiso   1.00
H457   H     0.89275   0.29346   0.45709   0.00000  Uiso   1.00
H458   H     0.77392   0.03987   0.54291   0.00000  Uiso   1.00
H459   H     0.89332   0.21211   0.38314   0.00000  Uiso   1.00
H460   H     0.77335   0.12122   0.61685   0.00000  Uiso   1.00
H461   H     0.89328   0.21211   0.63221   0.00000  Uiso   1.00
H462   H     0.77339   0.12123   0.36779   0.00000  Uiso   1.00
N463   N     0.83332   0.16666   0.61907   0.00000  Uiso   1.00
N464   N     0.83335   0.16668   0.38093   0.00000  Uiso   1.00
O465   O     0.83333   0.10558   0.53821   0.00000  Uiso   1.00
O466   O     0.83334   0.22775   0.46179   0.00000  Uiso   1.00
O467   O     0.83333   0.10559   0.46176   0.00000  Uiso   1.00
O468   O     0.83334   0.22774   0.53824   0.00000  Uiso   1.00
O469   O     0.75725   0.16666   0.52928   0.00000  Uiso   1.00
O470   O     0.90942   0.16667   0.47072   0.00000  Uiso   1.00
O471   O     0.75725   0.16667   0.45284   0.00000  Uiso   1.00
O472   O     0.90942   0.16666   0.54716   0.00000  Uiso   1.00
Zn473  Zn    0.83333   0.16666   0.55104   0.00000  Uiso   1.00
Zn474  Zn    0.83333   0.16667   0.44896   0.00000  Uiso   1.00
O475   O     0.98780   0.13659   0.44633   0.00000  Uiso   1.00
H476   H     0.68044   0.12608   0.42754   0.00000  Uiso   1.00
O477   O     0.67887   0.19675   0.55367   0.00000  Uiso   1.00
H478   H     0.98623   0.20726   0.57246   0.00000  Uiso   1.00
Cl479  Cl    0.91473   0.04544   0.44622   0.00000  Uiso   1.00
Cl480  Cl    0.75194   0.28789   0.55378   0.00000  Uiso   1.00
C481   C     0.16776   0.42006   0.50004   0.00000  Uiso   1.00
C482   C     0.16557   0.57994   0.49996   0.00000  Uiso   1.00
C483   C     0.06724   0.49909   0.48828   0.00000  Uiso   1.00
C484   C     0.26610   0.50092   0.51172   0.00000  Uiso   1.00
C485   C     0.01267   0.49304   0.48307   0.00000  Uiso   1.00
C486   C     0.32066   0.50696   0.51692   0.00000  Uiso   1.00
C487   C     0.20168   0.35399   0.47535   0.00000  Uiso   1.00
C488   C     0.13165   0.64601   0.52465   0.00000  Uiso   1.00
C489   C     0.19988   0.64438   0.47542   0.00000  Uiso   1.00
C490   C     0.13346   0.35562   0.52457   0.00000  Uiso   1.00
C491   C     0.16527   0.62405   0.50003   0.00000  Uiso   1.00
C492   C     0.16806   0.37595   0.49997   0.00000  Uiso   1.00
C493   C     0.20000   0.52525   0.36158   0.00000  Uiso   1.00
C494   C     0.13334   0.47475   0.63842   0.00000  Uiso   1.00
C495   C     0.19998   0.52525   0.64696   0.00000  Uiso   1.00
C496   C     0.13336   0.47475   0.35304   0.00000  Uiso   1.00
H497   H     0.22608   0.62680   0.45709   0.00000  Uiso   1.00
H498   H     0.10725   0.37320   0.54291   0.00000  Uiso   1.00
H499   H     0.22665   0.54545   0.38314   0.00000  Uiso   1.00
H500   H     0.10668   0.45455   0.61685   0.00000  Uiso   1.00
H501   H     0.22661   0.54544   0.63221   0.00000  Uiso   1.00
H502   H     0.10672   0.45456   0.36779   0.00000  Uiso   1.00
N503   N     0.16665   0.49999   0.61907   0.00000  Uiso   1.00
N504   N     0.16668   0.50001   0.38093   0.00000  Uiso   1.00
O505   O     0.16666   0.43892   0.53821   0.00000  Uiso   1.00
O506   O     0.16667   0.56108   0.46179   0.00000  Uiso   1.00
O507   O     0.16666   0.43893   0.46176   0.00000  Uiso   1.00
O508   O     0.16667   0.56107   0.53824   0.00000  Uiso   1.00
O509   O     0.09058   0.50000   0.52928   0.00000  Uiso   1.00
O510   O     0.24275   0.50000   0.47072   0.00000  Uiso   1.00
O511   O     0.09058   0.50000   0.45284   0.00000  Uiso   1.00
O512   O     0.24275   0.50000   0.54716   0.00000  Uiso   1.00
Zn513  Zn    0.16667   0.49999   0.55104   0.00000  Uiso   1.00
Zn514  Zn    0.16667   0.50001   0.44896   0.00000  Uiso   1.00
O515   O     0.32113   0.46992   0.44633   0.00000  Uiso   1.00
H516   H     0.01377   0.45941   0.42754   0.00000  Uiso   1.00
O517   O     0.01220   0.53008   0.55367   0.00000  Uiso   1.00
H518   H     0.31956   0.54059   0.57246   0.00000  Uiso   1.00
Cl519  Cl    0.24806   0.37878   0.44622   0.00000  Uiso   1.00
Cl520  Cl    0.08527   0.62122   0.55378   0.00000  Uiso   1.00
C521   C     0.50110   0.42006   0.50004   0.00000  Uiso   1.00
C522   C     0.49891   0.57994   0.49996   0.00000  Uiso   1.00
C523   C     0.40057   0.49909   0.48828   0.00000  Uiso   1.00
C524   C     0.59943   0.50092   0.51172   0.00000  Uiso   1.00
C525   C     0.34601   0.49304   0.48307   0.00000  Uiso   1.00
C526   C     0.65399   0.50696   0.51692   0.00000  Uiso   1.00
C527   C     0.53502   0.35399   0.47535   0.00000  Uiso   1.00
C528   C     0.46498   0.64601   0.52465   0.00000  Uiso   1.00
C529   C     0.53321   0.64438   0.47542   0.00000  Uiso   1.00
C530   C     0.46679   0.35562   0.52457   0.00000  Uiso   1.00
C531   C     0.49860   0.62405   0.50003   0.00000  Uiso   1.00
C532   C     0.50140   0.37595   0.49997   0.00000  Uiso   1.00
C533   C     0.53333   0.52525   0.36158   0.00000  Uiso   1.00
C534   C     0.46667   0.47475   0.63842   0.00000  Uiso   1.00
C535   C     0.53331   0.52525   0.64696   0.00000  Uiso   1.00
C536   C     0.46669   0.47475   0.35304   0.00000  Uiso   1.00
H537   H     0.55942   0.62680   0.45709   0.00000  Uiso   1.00
H538   H     0.44058   0.37320   0.54291   0.00000  Uiso   1.00
H539   H     0.55998   0.54545   0.38314   0.00000  Uiso   1.00
H540   H     0.44002   0.45455   0.61685   0.00000  Uiso   1.00
H541   H     0.55994   0.54544   0.63221   0.00000  Uiso   1.00
H542   H     0.44006   0.45456   0.36779   0.00000  Uiso   1.00
N543   N     0.49999   0.49999   0.61907   0.00000  Uiso   1.00
N544   N     0.50001   0.50001   0.38093   0.00000  Uiso   1.00
O545   O     0.50000   0.43892   0.53821   0.00000  Uiso   1.00
O546   O     0.50000   0.56108   0.46179   0.00000  Uiso   1.00
O547   O     0.50000   0.43893   0.46176   0.00000  Uiso   1.00
O548   O     0.50000   0.56107   0.53824   0.00000  Uiso   1.00
O549   O     0.42392   0.50000   0.52928   0.00000  Uiso   1.00
O550   O     0.57608   0.50000   0.47072   0.00000  Uiso   1.00
O551   O     0.42392   0.50000   0.45284   0.00000  Uiso   1.00
O552   O     0.57608   0.50000   0.54716   0.00000  Uiso   1.00
Zn553  Zn    0.50000   0.49999   0.55104   0.00000  Uiso   1.00
Zn554  Zn    0.50000   0.50001   0.44896   0.00000  Uiso   1.00
O555   O     0.65447   0.46992   0.44633   0.00000  Uiso   1.00
H556   H     0.34711   0.45941   0.42754   0.00000  Uiso   1.00
O557   O     0.34553   0.53008   0.55367   0.00000  Uiso   1.00
H558   H     0.65289   0.54059   0.57246   0.00000  Uiso   1.00
Cl559  Cl    0.58140   0.37878   0.44622   0.00000  Uiso   1.00
Cl560  Cl    0.41860   0.62122   0.55378   0.00000  Uiso   1.00
C561   C     0.83443   0.42006   0.50004   0.00000  Uiso   1.00
C562   C     0.83224   0.57994   0.49996   0.00000  Uiso   1.00
C563   C     0.73390   0.49909   0.48828   0.00000  Uiso   1.00
C564   C     0.93276   0.50092   0.51172   0.00000  Uiso   1.00
C565   C     0.67934   0.49304   0.48307   0.00000  Uiso   1.00
C566   C     0.98733   0.50696   0.51692   0.00000  Uiso   1.00
C567   C     0.86835   0.35399   0.47535   0.00000  Uiso   1.00
C568   C     0.79832   0.64601   0.52465   0.00000  Uiso   1.00
C569   C     0.86654   0.64438   0.47542   0.00000  Uiso   1.00
C570   C     0.80012   0.35562   0.52457   0.00000  Uiso   1.00
C571   C     0.83194   0.62405   0.50003   0.00000  Uiso   1.00
C572   C     0.83473   0.37595   0.49997   0.00000  Uiso   1.00
C573   C     0.86666   0.52525   0.36158   0.00000  Uiso   1.00
C574   C     0.80000   0.47475   0.63842   0.00000  Uiso   1.00
C575   C     0.86664   0.52525   0.64696   0.00000  Uiso   1.00
C576   C     0.80002   0.47475   0.35304   0.00000  Uiso   1.00
H577   H     0.89275   0.62680   0.45709   0.00000  Uiso   1.00
H578   H     0.77392   0.37320   0.54291   0.00000  Uiso   1.00
H579   H     0.89332   0.54545   0.38314   0.00000  Uiso   1.00
H580   H     0.77335   0.45455   0.61685   0.00000  Uiso   1.00
H581   H     0.89328   0.54544   0.63221   0.00000  Uiso   1.00
H582   H     0.77339   0.45456   0.36779   0.00000  Uiso   1.00
N583   N     0.83332   0.49999   0.61907   0.00000  Uiso   1.00
N584   N     0.83335   0.50001   0.38093   0.00000  Uiso   1.00
O585   O     0.83333   0.43892   0.53821   0.00000  Uiso   1.00
O586   O     0.83334   0.56108   0.46179   0.00000  Uiso   1.00
O587   O     0.83333   0.43893   0.46176   0.00000  Uiso   1.00
O588   O     0.83334   0.56107   0.53824   0.00000  Uiso   1.00
O589   O     0.75725   0.50000   0.52928   0.00000  Uiso   1.00
O590   O     0.90942   0.50000   0.47072   0.00000  Uiso   1.00
O591   O     0.75725   0.50000   0.45284   0.00000  Uiso   1.00
O592   O     0.90942   0.50000   0.54716   0.00000  Uiso   1.00
Zn593  Zn    0.83333   0.49999   0.55104   0.00000  Uiso   1.00
Zn594  Zn    0.83333   0.50001   0.44896   0.00000  Uiso   1.00
O595   O     0.98780   0.46992   0.44633   0.00000  Uiso   1.00
H596   H     0.68044   0.45941   0.42754   0.00000  Uiso   1.00
O597   O     0.67887   0.53008   0.55367   0.00000  Uiso   1.00
H598   H     0.98623   0.54059   0.57246   0.00000  Uiso   1.00
Cl599  Cl    0.91473   0.37878   0.44622   0.00000  Uiso   1.00
Cl600  Cl    0.75194   0.62122   0.55378   0.00000  Uiso   1.00
C601   C     0.16776   0.75340   0.50004   0.00000  Uiso   1.00
C602   C     0.16557   0.91327   0.49996   0.00000  Uiso   1.00
C603   C     0.06724   0.83242   0.48828   0.00000  Uiso   1.00
C604   C     0.26610   0.83425   0.51172   0.00000  Uiso   1.00
C605   C     0.01267   0.82637   0.48307   0.00000  Uiso   1.00
C606   C     0.32066   0.84029   0.51692   0.00000  Uiso   1.00
C607   C     0.20168   0.68732   0.47535   0.00000  Uiso   1.00
C608   C     0.13165   0.97934   0.52465   0.00000  Uiso   1.00
C609   C     0.19988   0.97771   0.47542   0.00000  Uiso   1.00
C610   C     0.13346   0.68895   0.52457   0.00000  Uiso   1.00
C611   C     0.16527   0.95739   0.50003   0.00000  Uiso   1.00
C612   C     0.16806   0.70928   0.49997   0.00000  Uiso   1.00
C613   C     0.20000   0.85858   0.36158   0.00000  Uiso   1.00
C614   C     0.13334   0.80808   0.63842   0.00000  Uiso   1.00
C615   C     0.19998   0.85858   0.64696   0.00000  Uiso   1.00
C616   C     0.13336   0.80809   0.35304   0.00000  Uiso   1.00
H617   H     0.22608   0.96013   0.45709   0.00000  Uiso   1.00
H618   H     0.10725   0.70654   0.54291   0.00000  Uiso   1.00
H619   H     0.22665   0.87878   0.38314   0.00000  Uiso   1.00
H620   H     0.10668   0.78789   0.61685   0.00000  Uiso   1.00
H621   H     0.22661   0.87877   0.63221   0.00000  Uiso   1.00
H622   H     0.10672   0.78789   0.36779   0.00000  Uiso   1.00
N623   N     0.16665   0.83332   0.61907   0.00000  Uiso   1.00
N624   N     0.16668   0.83334   0.38093   0.00000  Uiso   1.00
O625   O     0.16666   0.77225   0.53821   0.00000  Uiso   1.00
O626   O     0.16667   0.89442   0.46179   0.00000  Uiso   1.00
O627   O     0.16666   0.77226   0.46176   0.00000  Uiso   1.00
O628   O     0.16667   0.89441   0.53824   0.00000  Uiso   1.00
O629   O     0.09058   0.83333   0.52928   0.00000  Uiso   1.00
O630   O     0.24275   0.83334   0.47072   0.00000  Uiso   1.00
O631   O     0.09058   0.83334   0.45284   0.00000  Uiso   1.00
O632   O     0.24275   0.83333   0.54716   0.00000  Uiso   1.00
Zn633  Zn    0.16667   0.83333   0.55104   0.00000  Uiso   1.00
Zn634  Zn    0.16667   0.83334   0.44896   0.00000  Uiso   1.00
O635   O     0.32113   0.80326   0.44633   0.00000  Uiso   1.00
H636   H     0.01377   0.79274   0.42754   0.00000  Uiso   1.00
O637   O     0.01220   0.86341   0.55367   0.00000  Uiso   1.00
H638   H     0.31956   0.87392   0.57246   0.00000  Uiso   1.00
Cl639  Cl    0.24806   0.71211   0.44622   0.00000  Uiso   1.00
Cl640  Cl    0.08527   0.95456   0.55378   0.00000  Uiso   1.00
C641   C     0.50110   0.75340   0.50004   0.00000  Uiso   1.00
C642   C     0.49891   0.91327   0.49996   0.00000  Uiso   1.00
C643   C     0.40057   0.83242   0.48828   0.00000  Uiso   1.00
C644   C     0.59943   0.83425   0.51172   0.00000  Uiso   1.00
C645   C     0.34601   0.82637   0.48307   0.00000  Uiso   1.00
C646   C     0.65399   0.84029   0.51692   0.00000  Uiso   1.00
C647   C     0.53502   0.68732   0.47535   0.00000  Uiso   1.00
C648   C     0.46498   0.97934   0.52465   0.00000  Uiso   1.00
C649   C     0.53321   0.97771   0.47542   0.00000  Uiso   1.00
C650   C     0.46679   0.68895   0.52457   0.00000  Uiso   1.00
C651   C     0.49860   0.95739   0.50003   0.00000  Uiso   1.00
C652   C     0.50140   0.70928   0.49997   0.00000  Uiso   1.00
C653   C     0.53333   0.85858   0.36158   0.00000  Uiso   1.00
C654   C     0.46667   0.80808   0.63842   0.00000  Uiso   1.00
C655   C     0.53331   0.85858   0.64696   0.00000  Uiso   1.00
C656   C     0.46669   0.80809   0.35304   0.00000  Uiso   1.00
H657   H     0.55942   0.96013   0.45709   0.00000  Uiso   1.00
H658   H     0.44058   0.70654   0.54291   0.00000  Uiso   1.00
H659   H     0.55998   0.87878   0.38314   0.00000  Uiso   1.00
H660   H     0.44002   0.78789   0.61685   0.00000  Uiso   1.00
H661   H     0.55994   0.87877   0.63221   0.00000  Uiso   1.00
H662   H     0.44006   0.78789   0.36779   0.00000  Uiso   1.00
N663   N     0.49999   0.83332   0.61907   0.00000  Uiso   1.00
N664   N     0.50001   0.83334   0.38093   0.00000  Uiso   1.00
O665   O     0.50000   0.77225   0.53821   0.00000  Uiso   1.00
O666   O     0.50000   0.89442   0.46179   0.00000  Uiso   1.00
O667   O     0.50000   0.77226   0.46176   0.00000  Uiso   1.00
O668   O     0.50000   0.89441   0.53824   0.00000  Uiso   1.00
O669   O     0.42392   0.83333   0.52928   0.00000  Uiso   1.00
O670   O     0.57608   0.83334   0.47072   0.00000  Uiso   1.00
O671   O     0.42392   0.83334   0.45284   0.00000  Uiso   1.00
O672   O     0.57608   0.83333   0.54716   0.00000  Uiso   1.00
Zn673  Zn    0.50000   0.83333   0.55104   0.00000  Uiso   1.00
Zn674  Zn    0.50000   0.83334   0.44896   0.00000  Uiso   1.00
O675   O     0.65447   0.80326   0.44633   0.00000  Uiso   1.00
H676   H     0.34711   0.79274   0.42754   0.00000  Uiso   1.00
O677   O     0.34553   0.86341   0.55367   0.00000  Uiso   1.00
H678   H     0.65289   0.87392   0.57246   0.00000  Uiso   1.00
Cl679  Cl    0.58140   0.71211   0.44622   0.00000  Uiso   1.00
Cl680  Cl    0.41860   0.95456   0.55378   0.00000  Uiso   1.00
C681   C     0.83443   0.75340   0.50004   0.00000  Uiso   1.00
C682   C     0.83224   0.91327   0.49996   0.00000  Uiso   1.00
C683   C     0.73390   0.83242   0.48828   0.00000  Uiso   1.00
C684   C     0.93276   0.83425   0.51172   0.00000  Uiso   1.00
C685   C     0.67934   0.82637   0.48307   0.00000  Uiso   1.00
C686   C     0.98733   0.84029   0.51692   0.00000  Uiso   1.00
C687   C     0.86835   0.68732   0.47535   0.00000  Uiso   1.00
C688   C     0.79832   0.97934   0.52465   0.00000  Uiso   1.00
C689   C     0.86654   0.97771   0.47542   0.00000  Uiso   1.00
C690   C     0.80012   0.68895   0.52457   0.00000  Uiso   1.00
C691   C     0.83194   0.95739   0.50003   0.00000  Uiso   1.00
C692   C     0.83473   0.70928   0.49997   0.00000  Uiso   1.00
C693   C     0.86666   0.85858   0.36158   0.00000  Uiso   1.00
C694   C     0.80000   0.80808   0.63842   0.00000  Uiso   1.00
C695   C     0.86664   0.85858   0.64696   0.00000  Uiso   1.00
C696   C     0.80002   0.80809   0.35304   0.00000  Uiso   1.00
H697   H     0.89275   0.96013   0.45709   0.00000  Uiso   1.00
H698   H     0.77392   0.70654   0.54291   0.00000  Uiso   1.00
H699   H     0.89332   0.87878   0.38314   0.00000  Uiso   1.00
H700   H     0.77335   0.78789   0.61685   0.00000  Uiso   1.00
H701   H     0.89328   0.87877   0.63221   0.00000  Uiso   1.00
H702   H     0.77339   0.78789   0.36779   0.00000  Uiso   1.00
N703   N     0.83332   0.83332   0.61907   0.00000  Uiso   1.00
N704   N     0.83335   0.83334   0.38093   0.00000  Uiso   1.00
O705   O     0.83333   0.77225   0.53821   0.00000  Uiso   1.00
O706   O     0.83334   0.89442   0.46179   0.00000  Uiso   1.00
O707   O     0.83333   0.77226   0.46176   0.00000  Uiso   1.00
O708   O     0.83334   0.89441   0.53824   0.00000  Uiso   1.00
O709   O     0.75725   0.83333   0.52928   0.00000  Uiso   1.00
O710   O     0.90942   0.83334   0.47072   0.00000  Uiso   1.00
O711   O     0.75725   0.83334   0.45284   0.00000  Uiso   1.00
O712   O     0.90942   0.83333   0.54716   0.00000  Uiso   1.00
Zn713  Zn    0.83333   0.83333   0.55104   0.00000  Uiso   1.00
Zn714  Zn    0.83333   0.83334   0.44896   0.00000  Uiso   1.00
O715   O     0.98780   0.80326   0.44633   0.00000  Uiso   1.00
H716   H     0.68044   0.79274   0.42754   0.00000  Uiso   1.00
O717   O     0.67887   0.86341   0.55367   0.00000  Uiso   1.00
H718   H     0.98623   0.87392   0.57246   0.00000  Uiso   1.00
Cl719  Cl    0.91473   0.71211   0.44622   0.00000  Uiso   1.00
Cl720  Cl    0.75194   0.95456   0.55378   0.00000  Uiso   1.00
C721   C     0.16776   0.08673   0.83338   0.00000  Uiso   1.00
C722   C     0.16557   0.24660   0.83329   0.00000  Uiso   1.00
C723   C     0.06724   0.16575   0.82161   0.00000  Uiso   1.00
C724   C     0.26610   0.16758   0.84505   0.00000  Uiso   1.00
C725   C     0.01267   0.15971   0.81641   0.00000  Uiso   1.00
C726   C     0.32066   0.17363   0.85026   0.00000  Uiso   1.00
C727   C     0.20168   0.02066   0.80868   0.00000  Uiso   1.00
C728   C     0.13165   0.31268   0.85798   0.00000  Uiso   1.00
C729   C     0.19988   0.31105   0.80876   0.00000  Uiso   1.00
C730   C     0.13346   0.02229   0.85791   0.00000  Uiso   1.00
C731   C     0.16527   0.29072   0.83337   0.00000  Uiso   1.00
C732   C     0.16806   0.04261   0.83330   0.00000  Uiso   1.00
C733   C     0.20000   0.19192   0.69491   0.00000  Uiso   1.00
C734   C     0.13334   0.14142   0.97176   0.00000  Uiso   1.00
C735   C     0.19998   0.19191   0.98029   0.00000  Uiso   1.00
C736   C     0.13336   0.14142   0.68637   0.00000  Uiso   1.00
H737   H     0.22608   0.29346   0.79042   0.00000  Uiso   1.00
H738   H     0.10725   0.03987   0.87624   0.00000  Uiso   1.00
H739   H     0.22665   0.21211   0.71648   0.00000  Uiso   1.00
H740   H     0.10668   0.12122   0.95019   0.00000  Uiso   1.00
H741   H     0.22661   0.21211   0.96555   0.00000  Uiso   1.00
H742   H     0.10672   0.12123   0.70112   0.00000  Uiso   1.00
N743   N     0.16665   0.16666   0.95240   0.00000  Uiso   1.00
N744   N     0.16668   0.16668   0.71427   0.00000  Uiso   1.00
O745   O     0.16666   0.10558   0.87154   0.00000  Uiso   1.00
O746   O     0.16667   0.22775   0.79513   0.00000  Uiso   1.00
O747   O     0.16666   0.10559   0.79510   0.00000  Uiso   1.00
O748   O     0.16667   0.22774   0.87157   0.00000  Uiso   1.00
O749   O     0.09058   0.16666   0.86261   0.00000  Uiso   1.00
O750   O     0.24275   0.16667   0.80405   0.00000  Uiso   1.00
O751   O     0.09058   0.16667   0.78617   0.00000  Uiso   1.00
O752   O     0.24275   0.16666   0.88050   0.00000  Uiso   1.00
Zn753  Zn    0.16667   0.16666   0.88437   0.00000  Uiso   1.00
Zn754  Zn    0.16667   0.16667   0.78229   0.00000  Uiso   1.00
O755   O     0.32113   0.13659   0.77967   0.00000  Uiso   1.00
H756   H     0.01377   0.12608   0.76087   0.00000  Uiso   1.00
O757   O     0.01220   0.19675   0.88700   0.00000  Uiso   1.00
H758   H     0.31956   0.20726   0.90580   0.00000  Uiso   1.00
Cl759  Cl    0.24806   0.04544   0.77955   0.00000  Uiso   1.00
Cl760  Cl    0.08527   0.28789   0.88711   0.00000  Uiso   1.00
C761   C     0.50110   0.08673   0.83338   0.00000  Uiso   1.00
C762   C     0.49891   0.24660   0.83329   0.00000  Uiso   1.00
C763   C     0.40057   0.16575   0.82161   0.00000  Uiso   1.00
C764   C     0.59943   0.16758   0.84505   0.00000  Uiso   1.00
C765   C     0.34601   0.15971   0.81641   0.00000  Uiso   1.00
C766   C     0.65399   0.17363   0.85026   0.00000  Uiso   1.00
C767   C     0.53502   0.02066   0.80868   0.00000  Uiso   1.00
C768   C     0.46498   0.31268   0.85798   0.00000  Uiso   1.00
C769   C     0.53321   0.31105   0.80876   0.00000  Uiso   1.00
C770   C     0.46679   0.02229   0.85791   0.00000  Uiso   1.00
C771   C     0.49860   0.29072   0.83337   0.00000  Uiso   1.00
C772   C     0.50140   0.04261   0.83330   0.00000  Uiso   1.00
C773   C     0.53333   0.19192   0.69491   0.00000  Uiso   1.00
C774   C     0.46667   0.14142   0.97176   0.00000  Uiso   1.00
C775   C     0.53331   0.19191   0.98029   0.00000  Uiso   1.00
C776   C     0.46669   0.14142   0.68637   0.00000  Uiso   1.00
H777   H     0.55942   0.29346   0.79042   0.00000  Uiso   1.00
H778   H     0.44058   0.03987   0.87624   0.00000  Uiso   1.00
H779   H     0.55998   0.21211   0.71648   0.00000  Uiso   1.00
H780   H     0.44002   0.12122   0.95019   0.00000  Uiso   1.00
H781   H     0.55994   0.21211   0.96555   0.00000  Uiso   1.00
H782   H     0.44006   0.12123   0.70112   0.00000  Uiso   1.00
N783   N     0.49999   0.16666   0.95240   0.00000  Uiso   1.00
N784   N     0.50001   0.16668   0.71427   0.00000  Uiso   1.00
O785   O     0.50000   0.10558   0.87154   0.00000  Uiso   1.00
O786   O     0.50000   0.22775   0.79513   0.00000  Uiso   1.00
O787   O     0.50000   0.10559   0.79510   0.00000  Uiso   1.00
O788   O     0.50000   0.22774   0.87157   0.00000  Uiso   1.00
O789   O     0.42392   0.16666   0.86261   0.00000  Uiso   1.00
O790   O     0.57608   0.16667   0.80405   0.00000  Uiso   1.00
O791   O     0.42392   0.16667   0.78617   0.00000  Uiso   1.00
O792   O     0.57608   0.16666   0.88050   0.00000  Uiso   1.00
Zn793  Zn    0.50000   0.16666   0.88437   0.00000  Uiso   1.00
Zn794  Zn    0.50000   0.16667   0.78229   0.00000  Uiso   1.00
O795   O     0.65447   0.13659   0.77967   0.00000  Uiso   1.00
H796   H     0.34711   0.12608   0.76087   0.00000  Uiso   1.00
O797   O     0.34553   0.19675   0.88700   0.00000  Uiso   1.00
H798   H     0.65289   0.20726   0.90580   0.00000  Uiso   1.00
Cl799  Cl    0.58140   0.04544   0.77955   0.00000  Uiso   1.00
Cl800  Cl    0.41860   0.28789   0.88711   0.00000  Uiso   1.00
C801   C     0.83443   0.08673   0.83338   0.00000  Uiso   1.00
C802   C     0.83224   0.24660   0.83329   0.00000  Uiso   1.00
C803   C     0.73390   0.16575   0.82161   0.00000  Uiso   1.00
C804   C     0.93276   0.16758   0.84505   0.00000  Uiso   1.00
C805   C     0.67934   0.15971   0.81641   0.00000  Uiso   1.00
C806   C     0.98733   0.17363   0.85026   0.00000  Uiso   1.00
C807   C     0.86835   0.02066   0.80868   0.00000  Uiso   1.00
C808   C     0.79832   0.31268   0.85798   0.00000  Uiso   1.00
C809   C     0.86654   0.31105   0.80876   0.00000  Uiso   1.00
C810   C     0.80012   0.02229   0.85791   0.00000  Uiso   1.00
C811   C     0.83194   0.29072   0.83337   0.00000  Uiso   1.00
C812   C     0.83473   0.04261   0.83330   0.00000  Uiso   1.00
C813   C     0.86666   0.19192   0.69491   0.00000  Uiso   1.00
C814   C     0.80000   0.14142   0.97176   0.00000  Uiso   1.00
C815   C     0.86664   0.19191   0.98029   0.00000  Uiso   1.00
C816   C     0.80002   0.14142   0.68637   0.00000  Uiso   1.00
H817   H     0.89275   0.29346   0.79042   0.00000  Uiso   1.00
H818   H     0.77392   0.03987   0.87624   0.00000  Uiso   1.00
H819   H     0.89332   0.21211   0.71648   0.00000  Uiso   1.00
H820   H     0.77335   0.12122   0.95019   0.00000  Uiso   1.00
H821   H     0.89328   0.21211   0.96555   0.00000  Uiso   1.00
H822   H     0.77339   0.12123   0.70112   0.00000  Uiso   1.00
N823   N     0.83332   0.16666   0.95240   0.00000  Uiso   1.00
N824   N     0.83335   0.16668   0.71427   0.00000  Uiso   1.00
O825   O     0.83333   0.10558   0.87154   0.00000  Uiso   1.00
O826   O     0.83334   0.22775   0.79513   0.00000  Uiso   1.00
O827   O     0.83333   0.10559   0.79510   0.00000  Uiso   1.00
O828   O     0.83334   0.22774   0.87157   0.00000  Uiso   1.00
O829   O     0.75725   0.16666   0.86261   0.00000  Uiso   1.00
O830   O     0.90942   0.16667   0.80405   0.00000  Uiso   1.00
O831   O     0.75725   0.16667   0.78617   0.00000  Uiso   1.00
O832   O     0.90942   0.16666   0.88050   0.00000  Uiso   1.00
Zn833  Zn    0.83333   0.16666   0.88437   0.00000  Uiso   1.00
Zn834  Zn    0.83333   0.16667   0.78229   0.00000  Uiso   1.00
O835   O     0.98780   0.13659   0.77967   0.00000  Uiso   1.00
H836   H     0.68044   0.12608   0.76087   0.00000  Uiso   1.00
O837   O     0.67887   0.19675   0.88700   0.00000  Uiso   1.00
H838   H     0.98623   0.20726   0.90580   0.00000  Uiso   1.00
Cl839  Cl    0.91473   0.04544   0.77955   0.00000  Uiso   1.00
Cl840  Cl    0.75194   0.28789   0.88711   0.00000  Uiso   1.00
C841   C     0.16776   0.42006   0.83338   0.00000  Uiso   1.00
C842   C     0.16557   0.57994   0.83329   0.00000  Uiso   1.00
C843   C     0.06724   0.49909   0.82161   0.00000  Uiso   1.00
C844   C     0.26610   0.50092   0.84505   0.00000  Uiso   1.00
C845   C     0.01267   0.49304   0.81641   0.00000  Uiso   1.00
C846   C     0.32066   0.50696   0.85026   0.00000  Uiso   1.00
C847   C     0.20168   0.35399   0.80868   0.00000  Uiso   1.00
C848   C     0.13165   0.64601   0.85798   0.00000  Uiso   1.00
C849   C     0.19988   0.64438   0.80876   0.00000  Uiso   1.00
C850   C     0.13346   0.35562   0.85791   0.00000  Uiso   1.00
C851   C     0.16527   0.62405   0.83337   0.00000  Uiso   1.00
C852   C     0.16806   0.37595   0.83330   0.00000  Uiso   1.00
C853   C     0.20000   0.52525   0.69491   0.00000  Uiso   1.00
C854   C     0.13334   0.47475   0.97176   0.00000  Uiso   1.00
C855   C     0.19998   0.52525   0.98029   0.00000  Uiso   1.00
C856   C     0.13336   0.47475   0.68637   0.00000  Uiso   1.00
H857   H     0.22608   0.62680   0.79042   0.00000  Uiso   1.00
H858   H     0.10725   0.37320   0.87624   0.00000  Uiso   1.00
H859   H     0.22665   0.54545   0.71648   0.00000  Uiso   1.00
H860   H     0.10668   0.45455   0.95019   0.00000  Uiso   1.00
H861   H     0.22661   0.54544   0.96555   0.00000  Uiso   1.00
H862   H     0.10672   0.45456   0.70112   0.00000  Uiso   1.00
N863   N     0.16665   0.49999   0.95240   0.00000  Uiso   1.00
N864   N     0.16668   0.50001   0.71427   0.00000  Uiso   1.00
O865   O     0.16666   0.43892   0.87154   0.00000  Uiso   1.00
O866   O     0.16667   0.56108   0.79513   0.00000  Uiso   1.00
O867   O     0.16666   0.43893   0.79510   0.00000  Uiso   1.00
O868   O     0.16667   0.56107   0.87157   0.00000  Uiso   1.00
O869   O     0.09058   0.50000   0.86261   0.00000  Uiso   1.00
O870   O     0.24275   0.50000   0.80405   0.00000  Uiso   1.00
O871   O     0.09058   0.50000   0.78617   0.00000  Uiso   1.00
O872   O     0.24275   0.50000   0.88050   0.00000  Uiso   1.00
Zn873  Zn    0.16667   0.49999   0.88437   0.00000  Uiso   1.00
Zn874  Zn    0.16667   0.50001   0.78229   0.00000  Uiso   1.00
O875   O     0.32113   0.46992   0.77967   0.00000  Uiso   1.00
H876   H     0.01377   0.45941   0.76087   0.00000  Uiso   1.00
O877   O     0.01220   0.53008   0.88700   0.00000  Uiso   1.00
H878   H     0.31956   0.54059   0.90580   0.00000  Uiso   1.00
Cl879  Cl    0.24806   0.37878   0.77955   0.00000  Uiso   1.00
Cl880  Cl    0.08527   0.62122   0.88711   0.00000  Uiso   1.00
C881   C     0.50110   0.42006   0.83338   0.00000  Uiso   1.00
C882   C     0.49891   0.57994   0.83329   0.00000  Uiso   1.00
C883   C     0.40057   0.49909   0.82161   0.00000  Uiso   1.00
C884   C     0.59943   0.50092   0.84505   0.00000  Uiso   1.00
C885   C     0.34601   0.49304   0.81641   0.00000  Uiso   1.00
C886   C     0.65399   0.50696   0.85026   0.00000  Uiso   1.00
C887   C     0.53502   0.35399   0.80868   0.00000  Uiso   1.00
C888   C     0.46498   0.64601   0.85798   0.00000  Uiso   1.00
C889   C     0.53321   0.64438   0.80876   0.00000  Uiso   1.00
C890   C     0.46679   0.35562   0.85791   0.00000  Uiso   1.00
C891   C     0.49860   0.62405   0.83337   0.00000  Uiso   1.00
C892   C     0.50140   0.37595   0.83330   0.00000  Uiso   1.00
C893   C     0.53333   0.52525   0.69491   0.00000  Uiso   1.00
C894   C     0.46667   0.47475   0.97176   0.00000  Uiso   1.00
C895   C     0.53331   0.52525   0.98029   0.00000  Uiso   1.00
C896   C     0.46669   0.47475   0.68637   0.00000  Uiso   1.00
H897   H     0.55942   0.62680   0.79042   0.00000  Uiso   1.00
H898   H     0.44058   0.37320   0.87624   0.00000  Uiso   1.00
H899   H     0.55998   0.54545   0.71648   0.00000  Uiso   1.00
H900   H     0.44002   0.45455   0.95019   0.00000  Uiso   1.00
H901   H     0.55994   0.54544   0.96555   0.00000  Uiso   1.00
H902   H     0.44006   0.45456   0.70112   0.00000  Uiso   1.00
N903   N     0.49999   0.49999   0.95240   0.00000  Uiso   1.00
N904   N     0.50001   0.50001   0.71427   0.00000  Uiso   1.00
O905   O     0.50000   0.43892   0.87154   0.00000  Uiso   1.00
O906   O     0.50000   0.56108   0.79513   0.00000  Uiso   1.00
O907   O     0.50000   0.43893   0.79510   0.00000  Uiso   1.00
O908   O     0.50000   0.56107   0.87157   0.00000  Uiso   1.00
O909   O     0.42392   0.50000   0.86261   0.00000  Uiso   1.00
O910   O     0.57608   0.50000   0.80405   0.00000  Uiso   1.00
O911   O     0.42392   0.50000   0.78617   0.00000  Uiso   1.00
O912   O     0.57608   0.50000   0.88050   0.00000  Uiso   1.00
Zn913  Zn    0.50000   0.49999   0.88437   0.00000  Uiso   1.00
Zn914  Zn    0.50000   0.50001   0.78229   0.00000  Uiso   1.00
O915   O     0.65447   0.46992   0.77967   0.00000  Uiso   1.00
H916   H     0.34711   0.45941   0.76087   0.00000  Uiso   1.00
O917   O     0.34553   0.53008   0.88700   0.00000  Uiso   1.00
H918   H     0.65289   0.54059   0.90580   0.00000  Uiso   1.00
Cl919  Cl    0.58140   0.37878   0.77955   0.00000  Uiso   1.00
Cl920  Cl    0.41860   0.62122   0.88711   0.00000  Uiso   1.00
C921   C     0.83443   0.42006   0.83338   0.00000  Uiso   1.00
C922   C     0.83224   0.57994   0.83329   0.00000  Uiso   1.00
C923   C     0.73390   0.49909   0.82161   0.00000  Uiso   1.00
C924   C     0.93276   0.50092   0.84505   0.00000  Uiso   1.00
C925   C     0.67934   0.49304   0.81641   0.00000  Uiso   1.00
C926   C     0.98733   0.50696   0.85026   0.00000  Uiso   1.00
C927   C     0.86835   0.35399   0.80868   0.00000  Uiso   1.00
C928   C     0.79832   0.64601   0.85798   0.00000  Uiso   1.00
C929   C     0.86654   0.64438   0.80876   0.00000  Uiso   1.00
C930   C     0.80012   0.35562   0.85791   0.00000  Uiso   1.00
C931   C     0.83194   0.62405   0.83337   0.00000  Uiso   1.00
C932   C     0.83473   0.37595   0.83330   0.00000  Uiso   1.00
C933   C     0.86666   0.52525   0.69491   0.00000  Uiso   1.00
C934   C     0.80000   0.47475   0.97176   0.00000  Uiso   1.00
C935   C     0.86664   0.52525   0.98029   0.00000  Uiso   1.00
C936   C     0.80002   0.47475   0.68637   0.00000  Uiso   1.00
H937   H     0.89275   0.62680   0.79042   0.00000  Uiso   1.00
H938   H     0.77392   0.37320   0.87624   0.00000  Uiso   1.00
H939   H     0.89332   0.54545   0.71648   0.00000  Uiso   1.00
H940   H     0.77335   0.45455   0.95019   0.00000  Uiso   1.00
H941   H     0.89328   0.54544   0.96555   0.00000  Uiso   1.00
H942   H     0.77339   0.45456   0.70112   0.00000  Uiso   1.00
N943   N     0.83332   0.49999   0.95240   0.00000  Uiso   1.00
N944   N     0.83335   0.50001   0.71427   0.00000  Uiso   1.00
O945   O     0.83333   0.43892   0.87154   0.00000  Uiso   1.00
O946   O     0.83334   0.56108   0.79513   0.00000  Uiso   1.00
O947   O     0.83333   0.43893   0.79510   0.00000  Uiso   1.00
O948   O     0.83334   0.56107   0.87157   0.00000  Uiso   1.00
O949   O     0.75725   0.50000   0.86261   0.00000  Uiso   1.00
O950   O     0.90942   0.50000   0.80405   0.00000  Uiso   1.00
O951   O     0.75725   0.50000   0.78617   0.00000  Uiso   1.00
O952   O     0.90942   0.50000   0.88050   0.00000  Uiso   1.00
Zn953  Zn    0.83333   0.49999   0.88437   0.00000  Uiso   1.00
Zn954  Zn    0.83333   0.50001   0.78229   0.00000  Uiso   1.00
O955   O     0.98780   0.46992   0.77967   0.00000  Uiso   1.00
H956   H     0.68044   0.45941   0.76087   0.00000  Uiso   1.00
O957   O     0.67887   0.53008   0.88700   0.00000  Uiso   1.00
H958   H     0.98623   0.54059   0.90580   0.00000  Uiso   1.00
Cl959  Cl    0.91473   0.37878   0.77955   0.00000  Uiso   1.00
Cl960  Cl    0.75194   0.62122   0.88711   0.00000  Uiso   1.00
C961   C     0.16776   0.75340   0.83338   0.00000  Uiso   1.00
C962   C     0.16557   0.91327   0.83329   0.00000  Uiso   1.00
C963   C     0.06724   0.83242   0.82161   0.00000  Uiso   1.00
C964   C     0.26610   0.83425   0.84505   0.00000  Uiso   1.00
C965   C     0.01267   0.82637   0.81641   0.00000  Uiso   1.00
C966   C     0.32066   0.84029   0.85026   0.00000  Uiso   1.00
C967   C     0.20168   0.68732   0.80868   0.00000  Uiso   1.00
C968   C     0.13165   0.97934   0.85798   0.00000  Uiso   1.00
C969   C     0.19988   0.97771   0.80876   0.00000  Uiso   1.00
C970   C     0.13346   0.68895   0.85791   0.00000  Uiso   1.00
C971   C     0.16527   0.95739   0.83337   0.00000  Uiso   1.00
C972   C     0.16806   0.70928   0.83330   0.00000  Uiso   1.00
C973   C     0.20000   0.85858   0.69491   0.00000  Uiso   1.00
C974   C     0.13334   0.80808   0.97176   0.00000  Uiso   1.00
C975   C     0.19998   0.85858   0.98029   0.00000  Uiso   1.00
C976   C     0.13336   0.80809   0.68637   0.00000  Uiso   1.00
H977   H     0.22608   0.96013   0.79042   0.00000  Uiso   1.00
H978   H     0.10725   0.70654   0.87624   0.00000  Uiso   1.00
H979   H     0.22665   0.87878   0.71648   0.00000  Uiso   1.00
H980   H     0.10668   0.78789   0.95019   0.00000  Uiso   1.00
H981   H     0.22661   0.87877   0.96555   0.00000  Uiso   1.00
H982   H     0.10672   0.78789   0.70112   0.00000  Uiso   1.00
N983   N     0.16665   0.83332   0.95240   0.00000  Uiso   1.00
N984   N     0.16668   0.83334   0.71427   0.00000  Uiso   1.00
O985   O     0.16666   0.77225   0.87154   0.00000  Uiso   1.00
O986   O     0.16667   0.89442   0.79513   0.00000  Uiso   1.00
O987   O     0.16666   0.77226   0.79510   0.00000  Uiso   1.00
O988   O     0.16667   0.89441   0.87157   0.00000  Uiso   1.00
O989   O     0.09058   0.83333   0.86261   0.00000  Uiso   1.00
O990   O     0.24275   0.83334   0.80405   0.00000  Uiso   1.00
O991   O     0.09058   0.83334   0.78617   0.00000  Uiso   1.00
O992   O     0.24275   0.83333   0.88050   0.00000  Uiso   1.00
Zn993  Zn    0.16667   0.83333   0.88437   0.00000  Uiso   1.00
Zn994  Zn    0.16667   0.83334   0.78229   0.00000  Uiso   1.00
O995   O     0.32113   0.80326   0.77967   0.00000  Uiso   1.00
H996   H     0.01377   0.79274   0.76087   0.00000  Uiso   1.00
O997   O     0.01220   0.86341   0.88700   0.00000  Uiso   1.00
H998   H     0.31956   0.87392   0.90580   0.00000  Uiso   1.00
Cl999  Cl    0.24806   0.71211   0.77955   0.00000  Uiso   1.00
Cl1000 Cl    0.08527   0.95456   0.88711   0.00000  Uiso   1.00
C1001  C     0.50110   0.75340   0.83338   0.00000  Uiso   1.00
C1002  C     0.49891   0.91327   0.83329   0.00000  Uiso   1.00
C1003  C     0.40057   0.83242   0.82161   0.00000  Uiso   1.00
C1004  C     0.59943   0.83425   0.84505   0.00000  Uiso   1.00
C1005  C     0.34601   0.82637   0.81641   0.00000  Uiso   1.00
C1006  C     0.65399   0.84029   0.85026   0.00000  Uiso   1.00
C1007  C     0.53502   0.68732   0.80868   0.00000  Uiso   1.00
C1008  C     0.46498   0.97934   0.85798   0.00000  Uiso   1.00
C1009  C     0.53321   0.97771   0.80876   0.00000  Uiso   1.00
C1010  C     0.46679   0.68895   0.85791   0.00000  Uiso   1.00
C1011  C     0.49860   0.95739   0.83337   0.00000  Uiso   1.00
C1012  C     0.50140   0.70928   0.83330   0.00000  Uiso   1.00
C1013  C     0.53333   0.85858   0.69491   0.00000  Uiso   1.00
C1014  C     0.46667   0.80808   0.97176   0.00000  Uiso   1.00
C1015  C     0.53331   0.85858   0.98029   0.00000  Uiso   1.00
C1016  C     0.46669   0.80809   0.68637   0.00000  Uiso   1.00
H1017  H     0.55942   0.96013   0.79042   0.00000  Uiso   1.00
H1018  H     0.44058   0.70654   0.87624   0.00000  Uiso   1.00
H1019  H     0.55998   0.87878   0.71648   0.00000  Uiso   1.00
H1020  H     0.44002   0.78789   0.95019   0.00000  Uiso   1.00
H1021  H     0.55994   0.87877   0.96555   0.00000  Uiso   1.00
H1022  H     0.44006   0.78789   0.70112   0.00000  Uiso   1.00
N1023  N     0.49999   0.83332   0.95240   0.00000  Uiso   1.00
N1024  N     0.50001   0.83334   0.71427   0.00000  Uiso   1.00
O1025  O     0.50000   0.77225   0.87154   0.00000  Uiso   1.00
O1026  O     0.50000   0.89442   0.79513   0.00000  Uiso   1.00
O1027  O     0.50000   0.77226   0.79510   0.00000  Uiso   1.00
O1028  O     0.50000   0.89441   0.87157   0.00000  Uiso   1.00
O1029  O     0.42392   0.83333   0.86261   0.00000  Uiso   1.00
O1030  O     0.57608   0.83334   0.80405   0.00000  Uiso   1.00
O1031  O     0.42392   0.83334   0.78617   0.00000  Uiso   1.00
O1032  O     0.57608   0.83333   0.88050   0.00000  Uiso   1.00
Zn1033 Zn    0.50000   0.83333   0.88437   0.00000  Uiso   1.00
Zn1034 Zn    0.50000   0.83334   0.78229   0.00000  Uiso   1.00
O1035  O     0.65447   0.80326   0.77967   0.00000  Uiso   1.00
H1036  H     0.34711   0.79274   0.76087   0.00000  Uiso   1.00
O1037  O     0.34553   0.86341   0.88700   0.00000  Uiso   1.00
H1038  H     0.65289   0.87392   0.90580   0.00000  Uiso   1.00
Cl1039 Cl    0.58140   0.71211   0.77955   0.00000  Uiso   1.00
Cl1040 Cl    0.41860   0.95456   0.88711   0.00000  Uiso   1.00
C1041  C     0.83443   0.75340   0.83338   0.00000  Uiso   1.00
C1042  C     0.83224   0.91327   0.83329   0.00000  Uiso   1.00
C1043  C     0.73390   0.83242   0.82161   0.00000  Uiso   1.00
C1044  C     0.93276   0.83425   0.84505   0.00000  Uiso   1.00
C1045  C     0.67934   0.82637   0.81641   0.00000  Uiso   1.00
C1046  C     0.98733   0.84029   0.85026   0.00000  Uiso   1.00
C1047  C     0.86835   0.68732   0.80868   0.00000  Uiso   1.00
C1048  C     0.79832   0.97934   0.85798   0.00000  Uiso   1.00
C1049  C     0.86654   0.97771   0.80876   0.00000  Uiso   1.00
C1050  C     0.80012   0.68895   0.85791   0.00000  Uiso   1.00
C1051  C     0.83194   0.95739   0.83337   0.00000  Uiso   1.00
C1052  C     0.83473   0.70928   0.83330   0.00000  Uiso   1.00
C1053  C     0.86666   0.85858   0.69491   0.00000  Uiso   1.00
C1054  C     0.80000   0.80808   0.97176   0.00000  Uiso   1.00
C1055  C     0.86664   0.85858   0.98029   0.00000  Uiso   1.00
C1056  C     0.80002   0.80809   0.68637   0.00000  Uiso   1.00
H1057  H     0.89275   0.96013   0.79042   0.00000  Uiso   1.00
H1058  H     0.77392   0.70654   0.87624   0.00000  Uiso   1.00
H1059  H     0.89332   0.87878   0.71648   0.00000  Uiso   1.00
H1060  H     0.77335   0.78789   0.95019   0.00000  Uiso   1.00
H1061  H     0.89328   0.87877   0.96555   0.00000  Uiso   1.00
H1062  H     0.77339   0.78789   0.70112   0.00000  Uiso   1.00
N1063  N     0.83332   0.83332   0.95240   0.00000  Uiso   1.00
N1064  N     0.83335   0.83334   0.71427   0.00000  Uiso   1.00
O1065  O     0.83333   0.77225   0.87154   0.00000  Uiso   1.00
O1066  O     0.83334   0.89442   0.79513   0.00000  Uiso   1.00
O1067  O     0.83333   0.77226   0.79510   0.00000  Uiso   1.00
O1068  O     0.83334   0.89441   0.87157   0.00000  Uiso   1.00
O1069  O     0.75725   0.83333   0.86261   0.00000  Uiso   1.00
O1070  O     0.90942   0.83334   0.80405   0.00000  Uiso   1.00
O1071  O     0.75725   0.83334   0.78617   0.00000  Uiso   1.00
O1072  O     0.90942   0.83333   0.88050   0.00000  Uiso   1.00
Zn1073 Zn    0.83333   0.83333   0.88437   0.00000  Uiso   1.00
Zn1074 Zn    0.83333   0.83334   0.78229   0.00000  Uiso   1.00
O1075  O     0.98780   0.80326   0.77967   0.00000  Uiso   1.00
H1076  H     0.68044   0.79274   0.76087   0.00000  Uiso   1.00
O1077  O     0.67887   0.86341   0.88700   0.00000  Uiso   1.00
H1078  H     0.98623   0.87392   0.90580   0.00000  Uiso   1.00
Cl1079 Cl    0.91473   0.71211   0.77955   0.00000  Uiso   1.00
Cl1080 Cl    0.75194   0.95456   0.88711   0.00000  Uiso   1.00
loop_
_geom_bond_atom_site_label_1
_geom_bond_atom_site_label_2
_geom_bond_distance
_geom_bond_site_symmetry_2
_ccdc_geom_bond_type
C1     O25     1.281   .     A
C1     C12     1.410   .     S
C1     O27     1.280   .     A
C2     O28     1.280   .     A
C2     C11     1.410   .     S
C2     O26     1.281   .     A
C3     O31     1.283   .     A
C3     O29     1.274   .     A
C3     C5      1.414   .     S
C4     O32     1.283   .     A
C4     C6      1.414   .     S
C4     O30     1.274   .     A
C5     C86     1.349   1_455 S
C5     O115    1.390   1_455 S
C6     C45     1.349   .     S
C6     O77     1.390   .     S
C7     C12     1.401   .     A
C7     Cl39    1.765   .     S
C7     C249    1.373   1_545 S
C8     C11     1.401   .     A
C8     Cl40    1.765   .     S
C8     C130    1.373   .     S
C9     C11     1.395   .     A
C9     H17     1.085   .     S
C9     C127    1.373   .     S
C10    C12     1.395   .     A
C10    H18     1.085   .     S
C10    C248    1.373   1_545 S
C13    H19     1.082   .     S
C13    N24     1.366   .     A
C13    C735    1.417   1_554 S
C14    N23     1.366   .     A
C14    H20     1.082   .     S
C14    C376    1.417   .     S
C15    N23     1.366   .     A
C15    H21     1.082   .     S
C15    C373    1.417   .     S
C16    N24     1.366   .     A
C16    H22     1.082   .     S
C16    C734    1.417   1_554 S
N23    Zn33    2.010   .     S
N24    Zn34    2.010   .     S
O25    Zn33    1.988   .     S
O26    Zn34    1.988   .     S
O27    Zn34    1.989   .     S
O28    Zn33    1.989   .     S
O29    Zn33    1.985   .     S
O30    Zn34    1.985   .     S
O31    Zn34    1.993   .     S
O32    Zn33    1.993   .     S
O35    C45     1.390   .     S
O35    H76     0.991   .     S
H36    O115    0.991   1_455 S
O37    C86     1.390   1_455 S
O37    H118    0.991   1_455 S
H38    O77     0.991   .     S
C41    O65     1.281   .     A
C41    C52     1.410   .     S
C41    O67     1.280   .     A
C42    O68     1.280   .     A
C42    C51     1.410   .     S
C42    O66     1.281   .     A
C43    O71     1.283   .     A
C43    O69     1.274   .     A
C43    C45     1.414   .     S
C44    O72     1.283   .     A
C44    C46     1.414   .     S
C44    O70     1.274   .     A
C46    C85     1.349   .     S
C46    O117    1.390   .     S
C47    C52     1.401   .     A
C47    Cl79    1.765   .     S
C47    C289    1.373   1_545 S
C48    C51     1.401   .     A
C48    Cl80    1.765   .     S
C48    C170    1.373   .     S
C49    C51     1.395   .     A
C49    H57     1.085   .     S
C49    C167    1.373   .     S
C50    C52     1.395   .     A
C50    H58     1.085   .     S
C50    C288    1.373   1_545 S
C53    H59     1.082   .     S
C53    N64     1.366   .     A
C53    C775    1.417   1_554 S
C54    N63     1.366   .     A
C54    H60     1.082   .     S
C54    C416    1.417   .     S
C55    N63     1.366   .     A
C55    H61     1.082   .     S
C55    C413    1.417   .     S
C56    N64     1.366   .     A
C56    H62     1.082   .     S
C56    C774    1.417   1_554 S
N63    Zn73    2.010   .     S
N64    Zn74    2.010   .     S
O65    Zn73    1.988   .     S
O66    Zn74    1.988   .     S
O67    Zn74    1.989   .     S
O68    Zn73    1.989   .     S
O69    Zn73    1.985   .     S
O70    Zn74    1.985   .     S
O71    Zn74    1.993   .     S
O72    Zn73    1.993   .     S
O75    C85     1.390   .     S
O75    H116    0.991   .     S
H78    O117    0.991   .     S
C81    O105    1.281   .     A
C81    C92     1.410   .     S
C81    O107    1.280   .     A
C82    O108    1.280   .     A
C82    C91     1.410   .     S
C82    O106    1.281   .     A
C83    O111    1.283   .     A
C83    O109    1.274   .     A
C83    C85     1.414   .     S
C84    O112    1.283   .     A
C84    C86     1.414   .     S
C84    O110    1.274   .     A
C86    C5      1.349   1_655 S
C86    O37     1.390   1_655 S
C87    C92     1.401   .     A
C87    Cl119   1.765   .     S
C87    C329    1.373   1_545 S
C88    C91     1.401   .     A
C88    Cl120   1.765   .     S
C88    C210    1.373   .     S
C89    C91     1.395   .     A
C89    H97     1.085   .     S
C89    C207    1.373   .     S
C90    C92     1.395   .     A
C90    H98     1.085   .     S
C90    C328    1.373   1_545 S
C93    H99     1.082   .     S
C93    N104    1.366   .     A
C93    C815    1.417   1_554 S
C94    N103    1.366   .     A
C94    H100    1.082   .     S
C94    C456    1.417   .     S
C95    N103    1.366   .     A
C95    H101    1.082   .     S
C95    C453    1.417   .     S
C96    N104    1.366   .     A
C96    H102    1.082   .     S
C96    C814    1.417   1_554 S
N103   Zn113   2.010   .     S
N104   Zn114   2.010   .     S
O105   Zn113   1.988   .     S
O106   Zn114   1.988   .     S
O107   Zn114   1.989   .     S
O108   Zn113   1.989   .     S
O109   Zn113   1.985   .     S
O110   Zn114   1.985   .     S
O111   Zn114   1.993   .     S
O112   Zn113   1.993   .     S
O115   C5      1.390   1_655 S
O115   H36     0.991   1_655 S
H118   O37     0.991   1_655 S
C121   O145    1.281   .     A
C121   C132    1.410   .     S
C121   O147    1.280   .     A
C122   O148    1.280   .     A
C122   C131    1.410   .     S
C122   O146    1.281   .     A
C123   O151    1.283   .     A
C123   O149    1.274   .     A
C123   C125    1.414   .     S
C124   O152    1.283   .     A
C124   C126    1.414   .     S
C124   O150    1.274   .     A
C125   C206    1.349   1_455 S
C125   O235    1.390   1_455 S
C126   C165    1.349   .     S
C126   O197    1.390   .     S
C127   C132    1.401   .     A
C127   Cl159   1.765   .     S
C128   C131    1.401   .     A
C128   Cl160   1.765   .     S
C128   C250    1.373   .     S
C129   C131    1.395   .     A
C129   H137    1.085   .     S
C129   C247    1.373   .     S
C130   C132    1.395   .     A
C130   H138    1.085   .     S
C133   H139    1.082   .     S
C133   N144    1.366   .     A
C133   C855    1.417   1_554 S
C134   N143    1.366   .     A
C134   H140    1.082   .     S
C134   C496    1.417   .     S
C135   N143    1.366   .     A
C135   H141    1.082   .     S
C135   C493    1.417   .     S
C136   N144    1.366   .     A
C136   H142    1.082   .     S
C136   C854    1.417   1_554 S
N143   Zn153   2.010   .     S
N144   Zn154   2.010   .     S
O145   Zn153   1.988   .     S
O146   Zn154   1.988   .     S
O147   Zn154   1.989   .     S
O148   Zn153   1.989   .     S
O149   Zn153   1.985   .     S
O150   Zn154   1.985   .     S
O151   Zn154   1.993   .     S
O152   Zn153   1.993   .     S
O155   C165    1.390   .     S
O155   H196    0.991   .     S
H156   O235    0.991   1_455 S
O157   C206    1.390   1_455 S
O157   H238    0.991   1_455 S
H158   O197    0.991   .     S
C161   O185    1.281   .     A
C161   C172    1.410   .     S
C161   O187    1.280   .     A
C162   O188    1.280   .     A
C162   C171    1.410   .     S
C162   O186    1.281   .     A
C163   O191    1.283   .     A
C163   O189    1.274   .     A
C163   C165    1.414   .     S
C164   O192    1.283   .     A
C164   C166    1.414   .     S
C164   O190    1.274   .     A
C166   C205    1.349   .     S
C166   O237    1.390   .     S
C167   C172    1.401   .     A
C167   Cl199   1.765   .     S
C168   C171    1.401   .     A
C168   Cl200   1.765   .     S
C168   C290    1.373   .     S
C169   C171    1.395   .     A
C169   H177    1.085   .     S
C169   C287    1.373   .     S
C170   C172    1.395   .     A
C170   H178    1.085   .     S
C173   H179    1.082   .     S
C173   N184    1.366   .     A
C173   C895    1.417   1_554 S
C174   N183    1.366   .     A
C174   H180    1.082   .     S
C174   C536    1.417   .     S
C175   N183    1.366   .     A
C175   H181    1.082   .     S
C175   C533    1.417   .     S
C176   N184    1.366   .     A
C176   H182    1.082   .     S
C176   C894    1.417   1_554 S
N183   Zn193   2.010   .     S
N184   Zn194   2.010   .     S
O185   Zn193   1.988   .     S
O186   Zn194   1.988   .     S
O187   Zn194   1.989   .     S
O188   Zn193   1.989   .     S
O189   Zn193   1.985   .     S
O190   Zn194   1.985   .     S
O191   Zn194   1.993   .     S
O192   Zn193   1.993   .     S
O195   C205    1.390   .     S
O195   H236    0.991   .     S
H198   O237    0.991   .     S
C201   O225    1.281   .     A
C201   C212    1.410   .     S
C201   O227    1.280   .     A
C202   O228    1.280   .     A
C202   C211    1.410   .     S
C202   O226    1.281   .     A
C203   O231    1.283   .     A
C203   O229    1.274   .     A
C203   C205    1.414   .     S
C204   O232    1.283   .     A
C204   C206    1.414   .     S
C204   O230    1.274   .     A
C206   C125    1.349   1_655 S
C206   O157    1.390   1_655 S
C207   C212    1.401   .     A
C207   Cl239   1.765   .     S
C208   C211    1.401   .     A
C208   Cl240   1.765   .     S
C208   C330    1.373   .     S
C209   C211    1.395   .     A
C209   H217    1.085   .     S
C209   C327    1.373   .     S
C210   C212    1.395   .     A
C210   H218    1.085   .     S
C213   H219    1.082   .     S
C213   N224    1.366   .     A
C213   C935    1.417   1_554 S
C214   N223    1.366   .     A
C214   H220    1.082   .     S
C214   C576    1.417   .     S
C215   N223    1.366   .     A
C215   H221    1.082   .     S
C215   C573    1.417   .     S
C216   N224    1.366   .     A
C216   H222    1.082   .     S
C216   C934    1.417   1_554 S
N223   Zn233   2.010   .     S
N224   Zn234   2.010   .     S
O225   Zn233   1.988   .     S
O226   Zn234   1.988   .     S
O227   Zn234   1.989   .     S
O228   Zn233   1.989   .     S
O229   Zn233   1.985   .     S
O230   Zn234   1.985   .     S
O231   Zn234   1.993   .     S
O232   Zn233   1.993   .     S
O235   C125    1.390   1_655 S
O235   H156    0.991   1_655 S
H238   O157    0.991   1_655 S
C241   O265    1.281   .     A
C241   C252    1.410   .     S
C241   O267    1.280   .     A
C242   O268    1.280   .     A
C242   C251    1.410   .     S
C242   O266    1.281   .     A
C243   O271    1.283   .     A
C243   O269    1.274   .     A
C243   C245    1.414   .     S
C244   O272    1.283   .     A
C244   C246    1.414   .     S
C244   O270    1.274   .     A
C245   C326    1.349   1_455 S
C245   O355    1.390   1_455 S
C246   C285    1.349   .     S
C246   O317    1.390   .     S
C247   C252    1.401   .     A
C247   Cl279   1.765   .     S
C248   C251    1.401   .     A
C248   Cl280   1.765   .     S
C248   C10     1.373   1_565 S
C249   C251    1.395   .     A
C249   H257    1.085   .     S
C249   C7      1.373   1_565 S
C250   C252    1.395   .     A
C250   H258    1.085   .     S
C253   H259    1.082   .     S
C253   N264    1.366   .     A
C253   C975    1.417   1_554 S
C254   N263    1.366   .     A
C254   H260    1.082   .     S
C254   C616    1.417   .     S
C255   N263    1.366   .     A
C255   H261    1.082   .     S
C255   C613    1.417   .     S
C256   N264    1.366   .     A
C256   H262    1.082   .     S
C256   C974    1.417   1_554 S
N263   Zn273   2.010   .     S
N264   Zn274   2.010   .     S
O265   Zn273   1.988   .     S
O266   Zn274   1.988   .     S
O267   Zn274   1.989   .     S
O268   Zn273   1.989   .     S
O269   Zn273   1.985   .     S
O270   Zn274   1.985   .     S
O271   Zn274   1.993   .     S
O272   Zn273   1.993   .     S
O275   C285    1.390   .     S
O275   H316    0.991   .     S
H276   O355    0.991   1_455 S
O277   C326    1.390   1_455 S
O277   H358    0.991   1_455 S
H278   O317    0.991   .     S
C281   O305    1.281   .     A
C281   C292    1.410   .     S
C281   O307    1.280   .     A
C282   O308    1.280   .     A
C282   C291    1.410   .     S
C282   O306    1.281   .     A
C283   O311    1.283   .     A
C283   O309    1.274   .     A
C283   C285    1.414   .     S
C284   O312    1.283   .     A
C284   C286    1.414   .     S
C284   O310    1.274   .     A
C286   C325    1.349   .     S
C286   O357    1.390   .     S
C287   C292    1.401   .     A
C287   Cl319   1.765   .     S
C288   C291    1.401   .     A
C288   Cl320   1.765   .     S
C288   C50     1.373   1_565 S
C289   C291    1.395   .     A
C289   H297    1.085   .     S
C289   C47     1.373   1_565 S
C290   C292    1.395   .     A
C290   H298    1.085   .     S
C293   H299    1.082   .     S
C293   N304    1.366   .     A
C293   C1015   1.417   1_554 S
C294   N303    1.366   .     A
C294   H300    1.082   .     S
C294   C656    1.417   .     S
C295   N303    1.366   .     A
C295   H301    1.082   .     S
C295   C653    1.417   .     S
C296   N304    1.366   .     A
C296   H302    1.082   .     S
C296   C1014   1.417   1_554 S
N303   Zn313   2.010   .     S
N304   Zn314   2.010   .     S
O305   Zn313   1.988   .     S
O306   Zn314   1.988   .     S
O307   Zn314   1.989   .     S
O308   Zn313   1.989   .     S
O309   Zn313   1.985   .     S
O310   Zn314   1.985   .     S
O311   Zn314   1.993   .     S
O312   Zn313   1.993   .     S
O315   C325    1.390   .     S
O315   H356    0.991   .     S
H318   O357    0.991   .     S
C321   O345    1.281   .     A
C321   C332    1.410   .     S
C321   O347    1.280   .     A
C322   O348    1.280   .     A
C322   C331    1.410   .     S
C322   O346    1.281   .     A
C323   O351    1.283   .     A
C323   O349    1.274   .     A
C323   C325    1.414   .     S
C324   O352    1.283   .     A
C324   C326    1.414   .     S
C324   O350    1.274   .     A
C326   C245    1.349   1_655 S
C326   O277    1.390   1_655 S
C327   C332    1.401   .     A
C327   Cl359   1.765   .     S
C328   C331    1.401   .     A
C328   Cl360   1.765   .     S
C328   C90     1.373   1_565 S
C329   C331    1.395   .     A
C329   H337    1.085   .     S
C329   C87     1.373   1_565 S
C330   C332    1.395   .     A
C330   H338    1.085   .     S
C333   H339    1.082   .     S
C333   N344    1.366   .     A
C333   C1055   1.417   1_554 S
C334   N343    1.366   .     A
C334   H340    1.082   .     S
C334   C696    1.417   .     S
C335   N343    1.366   .     A
C335   H341    1.082   .     S
C335   C693    1.417   .     S
C336   N344    1.366   .     A
C336   H342    1.082   .     S
C336   C1054   1.417   1_554 S
N343   Zn353   2.010   .     S
N344   Zn354   2.010   .     S
O345   Zn353   1.988   .     S
O346   Zn354   1.988   .     S
O347   Zn354   1.989   .     S
O348   Zn353   1.989   .     S
O349   Zn353   1.985   .     S
O350   Zn354   1.985   .     S
O351   Zn354   1.993   .     S
O352   Zn353   1.993   .     S
O355   C245    1.390   1_655 S
O355   H276    0.991   1_655 S
H358   O277    0.991   1_655 S
C361   O385    1.281   .     A
C361   C372    1.410   .     S
C361   O387    1.280   .     A
C362   O388    1.280   .     A
C362   C371    1.410   .     S
C362   O386    1.281   .     A
C363   O391    1.283   .     A
C363   O389    1.274   .     A
C363   C365    1.414   .     S
C364   O392    1.283   .     A
C364   C366    1.414   .     S
C364   O390    1.274   .     A
C365   C446    1.349   1_455 S
C365   O475    1.390   1_455 S
C366   C405    1.349   .     S
C366   O437    1.390   .     S
C367   C372    1.401   .     A
C367   Cl399   1.765   .     S
C367   C609    1.373   1_545 S
C368   C371    1.401   .     A
C368   Cl400   1.765   .     S
C368   C490    1.373   .     S
C369   C371    1.395   .     A
C369   H377    1.085   .     S
C369   C487    1.373   .     S
C370   C372    1.395   .     A
C370   H378    1.085   .     S
C370   C608    1.373   1_545 S
C373   H379    1.082   .     S
C373   N384    1.366   .     A
C374   N383    1.366   .     A
C374   H380    1.082   .     S
C374   C736    1.417   .     S
C375   N383    1.366   .     A
C375   H381    1.082   .     S
C375   C733    1.417   .     S
C376   N384    1.366   .     A
C376   H382    1.082   .     S
N383   Zn393   2.010   .     S
N384   Zn394   2.010   .     S
O385   Zn393   1.988   .     S
O386   Zn394   1.988   .     S
O387   Zn394   1.989   .     S
O388   Zn393   1.989   .     S
O389   Zn393   1.985   .     S
O390   Zn394   1.985   .     S
O391   Zn394   1.993   .     S
O392   Zn393   1.993   .     S
O395   C405    1.390   .     S
O395   H436    0.991   .     S
H396   O475    0.991   1_455 S
O397   C446    1.390   1_455 S
O397   H478    0.991   1_455 S
H398   O437    0.991   .     S
C401   O425    1.281   .     A
C401   C412    1.410   .     S
C401   O427    1.280   .     A
C402   O428    1.280   .     A
C402   C411    1.410   .     S
C402   O426    1.281   .     A
C403   O431    1.283   .     A
C403   O429    1.274   .     A
C403   C405    1.414   .     S
C404   O432    1.283   .     A
C404   C406    1.414   .     S
C404   O430    1.274   .     A
C406   C445    1.349   .     S
C406   O477    1.390   .     S
C407   C412    1.401   .     A
C407   Cl439   1.765   .     S
C407   C649    1.373   1_545 S
C408   C411    1.401   .     A
C408   Cl440   1.765   .     S
C408   C530    1.373   .     S
C409   C411    1.395   .     A
C409   H417    1.085   .     S
C409   C527    1.373   .     S
C410   C412    1.395   .     A
C410   H418    1.085   .     S
C410   C648    1.373   1_545 S
C413   H419    1.082   .     S
C413   N424    1.366   .     A
C414   N423    1.366   .     A
C414   H420    1.082   .     S
C414   C776    1.417   .     S
C415   N423    1.366   .     A
C415   H421    1.082   .     S
C415   C773    1.417   .     S
C416   N424    1.366   .     A
C416   H422    1.082   .     S
N423   Zn433   2.010   .     S
N424   Zn434   2.010   .     S
O425   Zn433   1.988   .     S
O426   Zn434   1.988   .     S
O427   Zn434   1.989   .     S
O428   Zn433   1.989   .     S
O429   Zn433   1.985   .     S
O430   Zn434   1.985   .     S
O431   Zn434   1.993   .     S
O432   Zn433   1.993   .     S
O435   C445    1.390   .     S
O435   H476    0.991   .     S
H438   O477    0.991   .     S
C441   O465    1.281   .     A
C441   C452    1.410   .     S
C441   O467    1.280   .     A
C442   O468    1.280   .     A
C442   C451    1.410   .     S
C442   O466    1.281   .     A
C443   O471    1.283   .     A
C443   O469    1.274   .     A
C443   C445    1.414   .     S
C444   O472    1.283   .     A
C444   C446    1.414   .     S
C444   O470    1.274   .     A
C446   C365    1.349   1_655 S
C446   O397    1.390   1_655 S
C447   C452    1.401   .     A
C447   Cl479   1.765   .     S
C447   C689    1.373   1_545 S
C448   C451    1.401   .     A
C448   Cl480   1.765   .     S
C448   C570    1.373   .     S
C449   C451    1.395   .     A
C449   H457    1.085   .     S
C449   C567    1.373   .     S
C450   C452    1.395   .     A
C450   H458    1.085   .     S
C450   C688    1.373   1_545 S
C453   H459    1.082   .     S
C453   N464    1.366   .     A
C454   N463    1.366   .     A
C454   H460    1.082   .     S
C454   C816    1.417   .     S
C455   N463    1.366   .     A
C455   H461    1.082   .     S
C455   C813    1.417   .     S
C456   N464    1.366   .     A
C456   H462    1.082   .     S
N463   Zn473   2.010   .     S
N464   Zn474   2.010   .     S
O465   Zn473   1.988   .     S
O466   Zn474   1.988   .     S
O467   Zn474   1.989   .     S
O468   Zn473   1.989   .     S
O469   Zn473   1.985   .     S
O470   Zn474   1.985   .     S
O471   Zn474   1.993   .     S
O472   Zn473   1.993   .     S
O475   C365    1.390   1_655 S
O475   H396    0.991   1_655 S
H478   O397    0.991   1_655 S
C481   O505    1.281   .     A
C481   C492    1.410   .     S
C481   O507    1.280   .     A
C482   O508    1.280   .     A
C482   C491    1.410   .     S
C482   O506    1.281   .     A
C483   O511    1.283   .     A
C483   O509    1.274   .     A
C483   C485    1.414   .     S
C484   O512    1.283   .     A
C484   C486    1.414   .     S
C484   O510    1.274   .     A
C485   C566    1.349   1_455 S
C485   O595    1.390   1_455 S
C486   C525    1.349   .     S
C486   O557    1.390   .     S
C487   C492    1.401   .     A
C487   Cl519   1.765   .     S
C488   C491    1.401   .     A
C488   Cl520   1.765   .     S
C488   C610    1.373   .     S
C489   C491    1.395   .     A
C489   H497    1.085   .     S
C489   C607    1.373   .     S
C490   C492    1.395   .     A
C490   H498    1.085   .     S
C493   H499    1.082   .     S
C493   N504    1.366   .     A
C494   N503    1.366   .     A
C494   H500    1.082   .     S
C494   C856    1.417   .     S
C495   N503    1.366   .     A
C495   H501    1.082   .     S
C495   C853    1.417   .     S
C496   N504    1.366   .     A
C496   H502    1.082   .     S
N503   Zn513   2.010   .     S
N504   Zn514   2.010   .     S
O505   Zn513   1.988   .     S
O506   Zn514   1.988   .     S
O507   Zn514   1.989   .     S
O508   Zn513   1.989   .     S
O509   Zn513   1.985   .     S
O510   Zn514   1.985   .     S
O511   Zn514   1.993   .     S
O512   Zn513   1.993   .     S
O515   C525    1.390   .     S
O515   H556    0.991   .     S
H516   O595    0.991   1_455 S
O517   C566    1.390   1_455 S
O517   H598    0.991   1_455 S
H518   O557    0.991   .     S
C521   O545    1.281   .     A
C521   C532    1.410   .     S
C521   O547    1.280   .     A
C522   O548    1.280   .     A
C522   C531    1.410   .     S
C522   O546    1.281   .     A
C523   O551    1.283   .     A
C523   O549    1.274   .     A
C523   C525    1.414   .     S
C524   O552    1.283   .     A
C524   C526    1.414   .     S
C524   O550    1.274   .     A
C526   C565    1.349   .     S
C526   O597    1.390   .     S
C527   C532    1.401   .     A
C527   Cl559   1.765   .     S
C528   C531    1.401   .     A
C528   Cl560   1.765   .     S
C528   C650    1.373   .     S
C529   C531    1.395   .     A
C529   H537    1.085   .     S
C529   C647    1.373   .     S
C530   C532    1.395   .     A
C530   H538    1.085   .     S
C533   H539    1.082   .     S
C533   N544    1.366   .     A
C534   N543    1.366   .     A
C534   H540    1.082   .     S
C534   C896    1.417   .     S
C535   N543    1.366   .     A
C535   H541    1.082   .     S
C535   C893    1.417   .     S
C536   N544    1.366   .     A
C536   H542    1.082   .     S
N543   Zn553   2.010   .     S
N544   Zn554   2.010   .     S
O545   Zn553   1.988   .     S
O546   Zn554   1.988   .     S
O547   Zn554   1.989   .     S
O548   Zn553   1.989   .     S
O549   Zn553   1.985   .     S
O550   Zn554   1.985   .     S
O551   Zn554   1.993   .     S
O552   Zn553   1.993   .     S
O555   C565    1.390   .     S
O555   H596    0.991   .     S
H558   O597    0.991   .     S
C561   O585    1.281   .     A
C561   C572    1.410   .     S
C561   O587    1.280   .     A
C562   O588    1.280   .     A
C562   C571    1.410   .     S
C562   O586    1.281   .     A
C563   O591    1.283   .     A
C563   O589    1.274   .     A
C563   C565    1.414   .     S
C564   O592    1.283   .     A
C564   C566    1.414   .     S
C564   O590    1.274   .     A
C566   C485    1.349   1_655 S
C566   O517    1.390   1_655 S
C567   C572    1.401   .     A
C567   Cl599   1.765   .     S
C568   C571    1.401   .     A
C568   Cl600   1.765   .     S
C568   C690    1.373   .     S
C569   C571    1.395   .     A
C569   H577    1.085   .     S
C569   C687    1.373   .     S
C570   C572    1.395   .     A
C570   H578    1.085   .     S
C573   H579    1.082   .     S
C573   N584    1.366   .     A
C574   N583    1.366   .     A
C574   H580    1.082   .     S
C574   C936    1.417   .     S
C575   N583    1.366   .     A
C575   H581    1.082   .     S
C575   C933    1.417   .     S
C576   N584    1.366   .     A
C576   H582    1.082   .     S
N583   Zn593   2.010   .     S
N584   Zn594   2.010   .     S
O585   Zn593   1.988   .     S
O586   Zn594   1.988   .     S
O587   Zn594   1.989   .     S
O588   Zn593   1.989   .     S
O589   Zn593   1.985   .     S
O590   Zn594   1.985   .     S
O591   Zn594   1.993   .     S
O592   Zn593   1.993   .     S
O595   C485    1.390   1_655 S
O595   H516    0.991   1_655 S
H598   O517    0.991   1_655 S
C601   O625    1.281   .     A
C601   C612    1.410   .     S
C601   O627    1.280   .     A
C602   O628    1.280   .     A
C602   C611    1.410   .     S
C602   O626    1.281   .     A
C603   O631    1.283   .     A
C603   O629    1.274   .     A
C603   C605    1.414   .     S
C604   O632    1.283   .     A
C604   C606    1.414   .     S
C604   O630    1.274   .     A
C605   C686    1.349   1_455 S
C605   O715    1.390   1_455 S
C606   C645    1.349   .     S
C606   O677    1.390   .     S
C607   C612    1.401   .     A
C607   Cl639   1.765   .     S
C608   C611    1.401   .     A
C608   Cl640   1.765   .     S
C608   C370    1.373   1_565 S
C609   C611    1.395   .     A
C609   H617    1.085   .     S
C609   C367    1.373   1_565 S
C610   C612    1.395   .     A
C610   H618    1.085   .     S
C613   H619    1.082   .     S
C613   N624    1.366   .     A
C614   N623    1.366   .     A
C614   H620    1.082   .     S
C614   C976    1.417   .     S
C615   N623    1.366   .     A
C615   H621    1.082   .     S
C615   C973    1.417   .     S
C616   N624    1.366   .     A
C616   H622    1.082   .     S
N623   Zn633   2.010   .     S
N624   Zn634   2.010   .     S
O625   Zn633   1.988   .     S
O626   Zn634   1.988   .     S
O627   Zn634   1.989   .     S
O628   Zn633   1.989   .     S
O629   Zn633   1.985   .     S
O630   Zn634   1.985   .     S
O631   Zn634   1.993   .     S
O632   Zn633   1.993   .     S
O635   C645    1.390   .     S
O635   H676    0.991   .     S
H636   O715    0.991   1_455 S
O637   C686    1.390   1_455 S
O637   H718    0.991   1_455 S
H638   O677    0.991   .     S
C641   O665    1.281   .     A
C641   C652    1.410   .     S
C641   O667    1.280   .     A
C642   O668    1.280   .     A
C642   C651    1.410   .     S
C642   O666    1.281   .     A
C643   O671    1.283   .     A
C643   O669    1.274   .     A
C643   C645    1.414   .     S
C644   O672    1.283   .     A
C644   C646    1.414   .     S
C644   O670    1.274   .     A
C646   C685    1.349   .     S
C646   O717    1.390   .     S
C647   C652    1.401   .     A
C647   Cl679   1.765   .     S
C648   C651    1.401   .     A
C648   Cl680   1.765   .     S
C648   C410    1.373   1_565 S
C649   C651    1.395   .     A
C649   H657    1.085   .     S
C649   C407    1.373   1_565 S
C650   C652    1.395   .     A
C650   H658    1.085   .     S
C653   H659    1.082   .     S
C653   N664    1.366   .     A
C654   N663    1.366   .     A
C654   H660    1.082   .     S
C654   C1016   1.417   .     S
C655   N663    1.366   .     A
C655   H661    1.082   .     S
C655   C1013   1.417   .     S
C656   N664    1.366   .     A
C656   H662    1.082   .     S
N663   Zn673   2.010   .     S
N664   Zn674   2.010   .     S
O665   Zn673   1.988   .     S
O666   Zn674   1.988   .     S
O667   Zn674   1.989   .     S
O668   Zn673   1.989   .     S
O669   Zn673   1.985   .     S
O670   Zn674   1.985   .     S
O671   Zn674   1.993   .     S
O672   Zn673   1.993   .     S
O675   C685    1.390   .     S
O675   H716    0.991   .     S
H678   O717    0.991   .     S
C681   O705    1.281   .     A
C681   C692    1.410   .     S
C681   O707    1.280   .     A
C682   O708    1.280   .     A
C682   C691    1.410   .     S
C682   O706    1.281   .     A
C683   O711    1.283   .     A
C683   O709    1.274   .     A
C683   C685    1.414   .     S
C684   O712    1.283   .     A
C684   C686    1.414   .     S
C684   O710    1.274   .     A
C686   C605    1.349   1_655 S
C686   O637    1.390   1_655 S
C687   C692    1.401   .     A
C687   Cl719   1.765   .     S
C688   C691    1.401   .     A
C688   Cl720   1.765   .     S
C688   C450    1.373   1_565 S
C689   C691    1.395   .     A
C689   H697    1.085   .     S
C689   C447    1.373   1_565 S
C690   C692    1.395   .     A
C690   H698    1.085   .     S
C693   H699    1.082   .     S
C693   N704    1.366   .     A
C694   N703    1.366   .     A
C694   H700    1.082   .     S
C694   C1056   1.417   .     S
C695   N703    1.366   .     A
C695   H701    1.082   .     S
C695   C1053   1.417   .     S
C696   N704    1.366   .     A
C696   H702    1.082   .     S
N703   Zn713   2.010   .     S
N704   Zn714   2.010   .     S
O705   Zn713   1.988   .     S
O706   Zn714   1.988   .     S
O707   Zn714   1.989   .     S
O708   Zn713   1.989   .     S
O709   Zn713   1.985   .     S
O710   Zn714   1.985   .     S
O711   Zn714   1.993   .     S
O712   Zn713   1.993   .     S
O715   C605    1.390   1_655 S
O715   H636    0.991   1_655 S
H718   O637    0.991   1_655 S
C721   O745    1.281   .     A
C721   C732    1.410   .     S
C721   O747    1.280   .     A
C722   O748    1.280   .     A
C722   C731    1.410   .     S
C722   O746    1.281   .     A
C723   O751    1.283   .     A
C723   O749    1.274   .     A
C723   C725    1.414   .     S
C724   O752    1.283   .     A
C724   C726    1.414   .     S
C724   O750    1.274   .     A
C725   C806    1.349   1_455 S
C725   O835    1.390   1_455 S
C726   C765    1.349   .     S
C726   O797    1.390   .     S
C727   C732    1.401   .     A
C727   Cl759   1.765   .     S
C727   C969    1.373   1_545 S
C728   C731    1.401   .     A
C728   Cl760   1.765   .     S
C728   C850    1.373   .     S
C729   C731    1.395   .     A
C729   H737    1.085   .     S
C729   C847    1.373   .     S
C730   C732    1.395   .     A
C730   H738    1.085   .     S
C730   C968    1.373   1_545 S
C733   H739    1.082   .     S
C733   N744    1.366   .     A
C734   N743    1.366   .     A
C734   H740    1.082   .     S
C734   C16     1.417   1_556 S
C735   N743    1.366   .     A
C735   H741    1.082   .     S
C735   C13     1.417   1_556 S
C736   N744    1.366   .     A
C736   H742    1.082   .     S
N743   Zn753   2.010   .     S
N744   Zn754   2.010   .     S
O745   Zn753   1.988   .     S
O746   Zn754   1.988   .     S
O747   Zn754   1.989   .     S
O748   Zn753   1.989   .     S
O749   Zn753   1.985   .     S
O750   Zn754   1.985   .     S
O751   Zn754   1.993   .     S
O752   Zn753   1.993   .     S
O755   C765    1.390   .     S
O755   H796    0.991   .     S
H756   O835    0.991   1_455 S
O757   C806    1.390   1_455 S
O757   H838    0.991   1_455 S
H758   O797    0.991   .     S
C761   O785    1.281   .     A
C761   C772    1.410   .     S
C761   O787    1.280   .     A
C762   O788    1.280   .     A
C762   C771    1.410   .     S
C762   O786    1.281   .     A
C763   O791    1.283   .     A
C763   O789    1.274   .     A
C763   C765    1.414   .     S
C764   O792    1.283   .     A
C764   C766    1.414   .     S
C764   O790    1.274   .     A
C766   C805    1.349   .     S
C766   O837    1.390   .     S
C767   C772    1.401   .     A
C767   Cl799   1.765   .     S
C767   C1009   1.373   1_545 S
C768   C771    1.401   .     A
C768   Cl800   1.765   .     S
C768   C890    1.373   .     S
C769   C771    1.395   .     A
C769   H777    1.085   .     S
C769   C887    1.373   .     S
C770   C772    1.395   .     A
C770   H778    1.085   .     S
C770   C1008   1.373   1_545 S
C773   H779    1.082   .     S
C773   N784    1.366   .     A
C774   N783    1.366   .     A
C774   H780    1.082   .     S
C774   C56     1.417   1_556 S
C775   N783    1.366   .     A
C775   H781    1.082   .     S
C775   C53     1.417   1_556 S
C776   N784    1.366   .     A
C776   H782    1.082   .     S
N783   Zn793   2.010   .     S
N784   Zn794   2.010   .     S
O785   Zn793   1.988   .     S
O786   Zn794   1.988   .     S
O787   Zn794   1.989   .     S
O788   Zn793   1.989   .     S
O789   Zn793   1.985   .     S
O790   Zn794   1.985   .     S
O791   Zn794   1.993   .     S
O792   Zn793   1.993   .     S
O795   C805    1.390   .     S
O795   H836    0.991   .     S
H798   O837    0.991   .     S
C801   O825    1.281   .     A
C801   C812    1.410   .     S
C801   O827    1.280   .     A
C802   O828    1.280   .     A
C802   C811    1.410   .     S
C802   O826    1.281   .     A
C803   O831    1.283   .     A
C803   O829    1.274   .     A
C803   C805    1.414   .     S
C804   O832    1.283   .     A
C804   C806    1.414   .     S
C804   O830    1.274   .     A
C806   C725    1.349   1_655 S
C806   O757    1.390   1_655 S
C807   C812    1.401   .     A
C807   Cl839   1.765   .     S
C807   C1049   1.373   1_545 S
C808   C811    1.401   .     A
C808   Cl840   1.765   .     S
C808   C930    1.373   .     S
C809   C811    1.395   .     A
C809   H817    1.085   .     S
C809   C927    1.373   .     S
C810   C812    1.395   .     A
C810   H818    1.085   .     S
C810   C1048   1.373   1_545 S
C813   H819    1.082   .     S
C813   N824    1.366   .     A
C814   N823    1.366   .     A
C814   H820    1.082   .     S
C814   C96     1.417   1_556 S
C815   N823    1.366   .     A
C815   H821    1.082   .     S
C815   C93     1.417   1_556 S
C816   N824    1.366   .     A
C816   H822    1.082   .     S
N823   Zn833   2.010   .     S
N824   Zn834   2.010   .     S
O825   Zn833   1.988   .     S
O826   Zn834   1.988   .     S
O827   Zn834   1.989   .     S
O828   Zn833   1.989   .     S
O829   Zn833   1.985   .     S
O830   Zn834   1.985   .     S
O831   Zn834   1.993   .     S
O832   Zn833   1.993   .     S
O835   C725    1.390   1_655 S
O835   H756    0.991   1_655 S
H838   O757    0.991   1_655 S
C841   O865    1.281   .     A
C841   C852    1.410   .     S
C841   O867    1.280   .     A
C842   O868    1.280   .     A
C842   C851    1.410   .     S
C842   O866    1.281   .     A
C843   O871    1.283   .     A
C843   O869    1.274   .     A
C843   C845    1.414   .     S
C844   O872    1.283   .     A
C844   C846    1.414   .     S
C844   O870    1.274   .     A
C845   C926    1.349   1_455 S
C845   O955    1.390   1_455 S
C846   C885    1.349   .     S
C846   O917    1.390   .     S
C847   C852    1.401   .     A
C847   Cl879   1.765   .     S
C848   C851    1.401   .     A
C848   Cl880   1.765   .     S
C848   C970    1.373   .     S
C849   C851    1.395   .     A
C849   H857    1.085   .     S
C849   C967    1.373   .     S
C850   C852    1.395   .     A
C850   H858    1.085   .     S
C853   H859    1.082   .     S
C853   N864    1.366   .     A
C854   N863    1.366   .     A
C854   H860    1.082   .     S
C854   C136    1.417   1_556 S
C855   N863    1.366   .     A
C855   H861    1.082   .     S
C855   C133    1.417   1_556 S
C856   N864    1.366   .     A
C856   H862    1.082   .     S
N863   Zn873   2.010   .     S
N864   Zn874   2.010   .     S
O865   Zn873   1.988   .     S
O866   Zn874   1.988   .     S
O867   Zn874   1.989   .     S
O868   Zn873   1.989   .     S
O869   Zn873   1.985   .     S
O870   Zn874   1.985   .     S
O871   Zn874   1.993   .     S
O872   Zn873   1.993   .     S
O875   C885    1.390   .     S
O875   H916    0.991   .     S
H876   O955    0.991   1_455 S
O877   C926    1.390   1_455 S
O877   H958    0.991   1_455 S
H878   O917    0.991   .     S
C881   O905    1.281   .     A
C881   C892    1.410   .     S
C881   O907    1.280   .     A
C882   O908    1.280   .     A
C882   C891    1.410   .     S
C882   O906    1.281   .     A
C883   O911    1.283   .     A
C883   O909    1.274   .     A
C883   C885    1.414   .     S
C884   O912    1.283   .     A
C884   C886    1.414   .     S
C884   O910    1.274   .     A
C886   C925    1.349   .     S
C886   O957    1.390   .     S
C887   C892    1.401   .     A
C887   Cl919   1.765   .     S
C888   C891    1.401   .     A
C888   Cl920   1.765   .     S
C888   C1010   1.373   .     S
C889   C891    1.395   .     A
C889   H897    1.085   .     S
C889   C1007   1.373   .     S
C890   C892    1.395   .     A
C890   H898    1.085   .     S
C893   H899    1.082   .     S
C893   N904    1.366   .     A
C894   N903    1.366   .     A
C894   H900    1.082   .     S
C894   C176    1.417   1_556 S
C895   N903    1.366   .     A
C895   H901    1.082   .     S
C895   C173    1.417   1_556 S
C896   N904    1.366   .     A
C896   H902    1.082   .     S
N903   Zn913   2.010   .     S
N904   Zn914   2.010   .     S
O905   Zn913   1.988   .     S
O906   Zn914   1.988   .     S
O907   Zn914   1.989   .     S
O908   Zn913   1.989   .     S
O909   Zn913   1.985   .     S
O910   Zn914   1.985   .     S
O911   Zn914   1.993   .     S
O912   Zn913   1.993   .     S
O915   C925    1.390   .     S
O915   H956    0.991   .     S
H918   O957    0.991   .     S
C921   O945    1.281   .     A
C921   C932    1.410   .     S
C921   O947    1.280   .     A
C922   O948    1.280   .     A
C922   C931    1.410   .     S
C922   O946    1.281   .     A
C923   O951    1.283   .     A
C923   O949    1.274   .     A
C923   C925    1.414   .     S
C924   O952    1.283   .     A
C924   C926    1.414   .     S
C924   O950    1.274   .     A
C926   C845    1.349   1_655 S
C926   O877    1.390   1_655 S
C927   C932    1.401   .     A
C927   Cl959   1.765   .     S
C928   C931    1.401   .     A
C928   Cl960   1.765   .     S
C928   C1050   1.373   .     S
C929   C931    1.395   .     A
C929   H937    1.085   .     S
C929   C1047   1.373   .     S
C930   C932    1.395   .     A
C930   H938    1.085   .     S
C933   H939    1.082   .     S
C933   N944    1.366   .     A
C934   N943    1.366   .     A
C934   H940    1.082   .     S
C934   C216    1.417   1_556 S
C935   N943    1.366   .     A
C935   H941    1.082   .     S
C935   C213    1.417   1_556 S
C936   N944    1.366   .     A
C936   H942    1.082   .     S
N943   Zn953   2.010   .     S
N944   Zn954   2.010   .     S
O945   Zn953   1.988   .     S
O946   Zn954   1.988   .     S
O947   Zn954   1.989   .     S
O948   Zn953   1.989   .     S
O949   Zn953   1.985   .     S
O950   Zn954   1.985   .     S
O951   Zn954   1.993   .     S
O952   Zn953   1.993   .     S
O955   C845    1.390   1_655 S
O955   H876    0.991   1_655 S
H958   O877    0.991   1_655 S
C961   O985    1.281   .     A
C961   C972    1.410   .     S
C961   O987    1.280   .     A
C962   O988    1.280   .     A
C962   C971    1.410   .     S
C962   O986    1.281   .     A
C963   O991    1.283   .     A
C963   O989    1.274   .     A
C963   C965    1.414   .     S
C964   O992    1.283   .     A
C964   C966    1.414   .     S
C964   O990    1.274   .     A
C965   C1046   1.349   1_455 S
C965   O1075   1.390   1_455 S
C966   C1005   1.349   .     S
C966   O1037   1.390   .     S
C967   C972    1.401   .     A
C967   Cl999   1.765   .     S
C968   C971    1.401   .     A
C968   Cl1000  1.765   .     S
C968   C730    1.373   1_565 S
C969   C971    1.395   .     A
C969   H977    1.085   .     S
C969   C727    1.373   1_565 S
C970   C972    1.395   .     A
C970   H978    1.085   .     S
C973   H979    1.082   .     S
C973   N984    1.366   .     A
C974   N983    1.366   .     A
C974   H980    1.082   .     S
C974   C256    1.417   1_556 S
C975   N983    1.366   .     A
C975   H981    1.082   .     S
C975   C253    1.417   1_556 S
C976   N984    1.366   .     A
C976   H982    1.082   .     S
N983   Zn993   2.010   .     S
N984   Zn994   2.010   .     S
O985   Zn993   1.988   .     S
O986   Zn994   1.988   .     S
O987   Zn994   1.989   .     S
O988   Zn993   1.989   .     S
O989   Zn993   1.985   .     S
O990   Zn994   1.985   .     S
O991   Zn994   1.993   .     S
O992   Zn993   1.993   .     S
O995   C1005   1.390   .     S
O995   H1036   0.991   .     S
H996   O1075   0.991   1_455 S
O997   C1046   1.390   1_455 S
O997   H1078   0.991   1_455 S
H998   O1037   0.991   .     S
C1001  O1025   1.281   .     A
C1001  C1012   1.410   .     S
C1001  O1027   1.280   .     A
C1002  O1028   1.280   .     A
C1002  C1011   1.410   .     S
C1002  O1026   1.281   .     A
C1003  O1031   1.283   .     A
C1003  O1029   1.274   .     A
C1003  C1005   1.414   .     S
C1004  O1032   1.283   .     A
C1004  C1006   1.414   .     S
C1004  O1030   1.274   .     A
C1006  C1045   1.349   .     S
C1006  O1077   1.390   .     S
C1007  C1012   1.401   .     A
C1007  Cl1039  1.765   .     S
C1008  C1011   1.401   .     A
C1008  Cl1040  1.765   .     S
C1008  C770    1.373   1_565 S
C1009  C1011   1.395   .     A
C1009  H1017   1.085   .     S
C1009  C767    1.373   1_565 S
C1010  C1012   1.395   .     A
C1010  H1018   1.085   .     S
C1013  H1019   1.082   .     S
C1013  N1024   1.366   .     A
C1014  N1023   1.366   .     A
C1014  H1020   1.082   .     S
C1014  C296    1.417   1_556 S
C1015  N1023   1.366   .     A
C1015  H1021   1.082   .     S
C1015  C293    1.417   1_556 S
C1016  N1024   1.366   .     A
C1016  H1022   1.082   .     S
N1023  Zn1033  2.010   .     S
N1024  Zn1034  2.010   .     S
O1025  Zn1033  1.988   .     S
O1026  Zn1034  1.988   .     S
O1027  Zn1034  1.989   .     S
O1028  Zn1033  1.989   .     S
O1029  Zn1033  1.985   .     S
O1030  Zn1034  1.985   .     S
O1031  Zn1034  1.993   .     S
O1032  Zn1033  1.993   .     S
O1035  C1045   1.390   .     S
O1035  H1076   0.991   .     S
H1038  O1077   0.991   .     S
C1041  O1065   1.281   .     A
C1041  C1052   1.410   .     S
C1041  O1067   1.280   .     A
C1042  O1068   1.280   .     A
C1042  C1051   1.410   .     S
C1042  O1066   1.281   .     A
C1043  O1071   1.283   .     A
C1043  O1069   1.274   .     A
C1043  C1045   1.414   .     S
C1044  O1072   1.283   .     A
C1044  C1046   1.414   .     S
C1044  O1070   1.274   .     A
C1046  C965    1.349   1_655 S
C1046  O997    1.390   1_655 S
C1047  C1052   1.401   .     A
C1047  Cl1079  1.765   .     S
C1048  C1051   1.401   .     A
C1048  Cl1080  1.765   .     S
C1048  C810    1.373   1_565 S
C1049  C1051   1.395   .     A
C1049  H1057   1.085   .     S
C1049  C807    1.373   1_565 S
C1050  C1052   1.395   .     A
C1050  H1058   1.085   .     S
C1053  H1059   1.082   .     S
C1053  N1064   1.366   .     A
C1054  N1063   1.366   .     A
C1054  H1060   1.082   .     S
C1054  C336    1.417   1_556 S
C1055  N1063   1.366   .     A
C1055  H1061   1.082   .     S
C1055  C333    1.417   1_556 S
C1056  N1064   1.366   .     A
C1056  H1062   1.082   .     S
N1063  Zn1073  2.010   .     S
N1064  Zn1074  2.010   .     S
O1065  Zn1073  1.988   .     S
O1066  Zn1074  1.988   .     S
O1067  Zn1074  1.989   .     S
O1068  Zn1073  1.989   .     S
O1069  Zn1073  1.985   .     S
O1070  Zn1074  1.985   .     S
O1071  Zn1074  1.993   .     S
O1072  Zn1073  1.993   .     S
O1075  C965    1.390   1_655 S
O1075  H996    0.991   1_655 S
H1078  O997    0.991   1_655 S
