data_str_m3_o1_o10_pcu_sym.218
_audit_creation_date              2020-01-03
_audit_creation_method            'Materials Studio'
_symmetry_space_group_name_H-M    'P1'
_symmetry_Int_Tables_number       1
_symmetry_cell_setting            triclinic
loop_
_symmetry_equiv_pos_as_xyz
  x,y,z
_cell_length_a                    25.7229
_cell_length_b                    31.9541
_cell_length_c                    29.5562
_cell_angle_alpha                 89.8008
_cell_angle_beta                  98.8822
_cell_angle_gamma                 90.1208
loop_
_atom_site_label
_atom_site_type_symbol
_atom_site_fract_x
_atom_site_fract_y
_atom_site_fract_z
_atom_site_U_iso_or_equiv
_atom_site_adp_type
_atom_site_occupancy
C1     C     0.16863   0.08683   0.16703   0.00000  Uiso   1.00
C2     C     0.16620   0.24651   0.16649   0.00000  Uiso   1.00
C3     C     0.06701   0.16689   0.15464   0.00000  Uiso   1.00
C4     C     0.26631   0.16730   0.17867   0.00000  Uiso   1.00
C5     C     0.01190   0.16732   0.14816   0.00000  Uiso   1.00
C6     C     0.32140   0.16872   0.18503   0.00000  Uiso   1.00
C7     C     0.12547   0.02257   0.14127   0.00000  Uiso   1.00
C8     C     0.21021   0.31094   0.19093   0.00000  Uiso   1.00
C9     C     0.12358   0.31229   0.14078   0.00000  Uiso   1.00
C10    C     0.21106   0.02090   0.19268   0.00000  Uiso   1.00
C11    C     0.16632   0.29066   0.16612   0.00000  Uiso   1.00
C12    C     0.16864   0.04265   0.16724   0.00000  Uiso   1.00
C13    C     0.20071   0.19159   0.02844   0.00000  Uiso   1.00
C14    C     0.13257   0.14179   0.30489   0.00000  Uiso   1.00
C15    C     0.20072   0.19156   0.31384   0.00000  Uiso   1.00
C16    C     0.13258   0.14181   0.01950   0.00000  Uiso   1.00
H17    H     0.32444   0.16589   0.11323   0.00000  Uiso   1.00
H18    H     0.00888   0.17041   0.21994   0.00000  Uiso   1.00
H19    H     0.22796   0.21152   0.05015   0.00000  Uiso   1.00
H20    H     0.10534   0.12187   0.28318   0.00000  Uiso   1.00
H21    H     0.22800   0.21143   0.29930   0.00000  Uiso   1.00
H22    H     0.10533   0.12191   0.03407   0.00000  Uiso   1.00
N23    N     0.16665   0.16666   0.28573   0.00000  Uiso   1.00
N24    N     0.16668   0.16668   0.04760   0.00000  Uiso   1.00
O25    O     0.16666   0.10558   0.20487   0.00000  Uiso   1.00
O26    O     0.16667   0.22775   0.12846   0.00000  Uiso   1.00
O27    O     0.16666   0.10559   0.12843   0.00000  Uiso   1.00
O28    O     0.16667   0.22774   0.20490   0.00000  Uiso   1.00
O29    O     0.09058   0.16666   0.19595   0.00000  Uiso   1.00
O30    O     0.24275   0.16667   0.13739   0.00000  Uiso   1.00
O31    O     0.09058   0.16667   0.11950   0.00000  Uiso   1.00
O32    O     0.24275   0.16666   0.21383   0.00000  Uiso   1.00
Zn33   Zn    0.16667   0.16666   0.21771   0.00000  Uiso   1.00
Zn34   Zn    0.16667   0.16667   0.11563   0.00000  Uiso   1.00
N35    N     0.08366   0.04742   0.11670   0.00000  Uiso   1.00
H36    H     0.04852   0.04102   0.12888   0.00000  Uiso   1.00
H37    H     0.07945   0.04054   0.08185   0.00000  Uiso   1.00
N38    N     0.25499   0.28783   0.21327   0.00000  Uiso   1.00
H39    H     0.26867   0.26823   0.18942   0.00000  Uiso   1.00
H40    H     0.24379   0.26973   0.23964   0.00000  Uiso   1.00
C41    C     0.07584   0.28917   0.11518   0.00000  Uiso   1.00
C42    C     0.08080   0.28185   0.06462   0.00000  Uiso   1.00
C43    C     0.03542   0.25512   0.04089   0.00000  Uiso   1.00
H44    H     0.03555   0.22390   0.05751   0.00000  Uiso   1.00
H45    H     0.33052   0.27075   0.04238   0.00000  Uiso   1.00
H46    H     0.03976   0.25067   0.00441   0.00000  Uiso   1.00
H47    H     0.08069   0.31211   0.04616   0.00000  Uiso   1.00
H48    H     0.11839   0.26592   0.06167   0.00000  Uiso   1.00
H49    H     0.07026   0.25871   0.13197   0.00000  Uiso   1.00
H50    H     0.03897   0.30646   0.11732   0.00000  Uiso   1.00
C51    C     0.25796   0.04281   0.22090   0.00000  Uiso   1.00
C52    C     0.30208   0.05079   0.19254   0.00000  Uiso   1.00
C53    C     0.01827   0.06694   0.22274   0.00000  Uiso   1.00
H54    H     0.00894   0.09455   0.24271   0.00000  Uiso   1.00
H55    H     0.03532   0.04206   0.24686   0.00000  Uiso   1.00
H56    H     0.04808   0.07633   0.20123   0.00000  Uiso   1.00
H57    H     0.31186   0.02132   0.17584   0.00000  Uiso   1.00
H58    H     0.28877   0.07423   0.16536   0.00000  Uiso   1.00
H59    H     0.24679   0.07269   0.23552   0.00000  Uiso   1.00
H60    H     0.27326   0.02347   0.25139   0.00000  Uiso   1.00
C61    C     0.50196   0.08683   0.16703   0.00000  Uiso   1.00
C62    C     0.49954   0.24651   0.16649   0.00000  Uiso   1.00
C63    C     0.40034   0.16689   0.15464   0.00000  Uiso   1.00
C64    C     0.59965   0.16730   0.17867   0.00000  Uiso   1.00
C65    C     0.34523   0.16732   0.14816   0.00000  Uiso   1.00
C66    C     0.65474   0.16872   0.18503   0.00000  Uiso   1.00
C67    C     0.45881   0.02257   0.14127   0.00000  Uiso   1.00
C68    C     0.54354   0.31094   0.19093   0.00000  Uiso   1.00
C69    C     0.45691   0.31229   0.14078   0.00000  Uiso   1.00
C70    C     0.54439   0.02090   0.19268   0.00000  Uiso   1.00
C71    C     0.49965   0.29066   0.16612   0.00000  Uiso   1.00
C72    C     0.50198   0.04265   0.16724   0.00000  Uiso   1.00
C73    C     0.53405   0.19159   0.02844   0.00000  Uiso   1.00
C74    C     0.46591   0.14179   0.30489   0.00000  Uiso   1.00
C75    C     0.53405   0.19156   0.31384   0.00000  Uiso   1.00
C76    C     0.46591   0.14181   0.01950   0.00000  Uiso   1.00
H77    H     0.65778   0.16589   0.11323   0.00000  Uiso   1.00
H78    H     0.34221   0.17041   0.21994   0.00000  Uiso   1.00
H79    H     0.56129   0.21152   0.05015   0.00000  Uiso   1.00
H80    H     0.43867   0.12187   0.28318   0.00000  Uiso   1.00
H81    H     0.56133   0.21143   0.29930   0.00000  Uiso   1.00
H82    H     0.43866   0.12191   0.03407   0.00000  Uiso   1.00
N83    N     0.49999   0.16666   0.28573   0.00000  Uiso   1.00
N84    N     0.50001   0.16668   0.04760   0.00000  Uiso   1.00
O85    O     0.50000   0.10558   0.20487   0.00000  Uiso   1.00
O86    O     0.50000   0.22775   0.12846   0.00000  Uiso   1.00
O87    O     0.50000   0.10559   0.12843   0.00000  Uiso   1.00
O88    O     0.50000   0.22774   0.20490   0.00000  Uiso   1.00
O89    O     0.42392   0.16666   0.19595   0.00000  Uiso   1.00
O90    O     0.57608   0.16667   0.13739   0.00000  Uiso   1.00
O91    O     0.42392   0.16667   0.11950   0.00000  Uiso   1.00
O92    O     0.57608   0.16666   0.21383   0.00000  Uiso   1.00
Zn93   Zn    0.50000   0.16666   0.21771   0.00000  Uiso   1.00
Zn94   Zn    0.50000   0.16667   0.11563   0.00000  Uiso   1.00
N95    N     0.41699   0.04742   0.11670   0.00000  Uiso   1.00
H96    H     0.38185   0.04102   0.12888   0.00000  Uiso   1.00
H97    H     0.41278   0.04054   0.08185   0.00000  Uiso   1.00
N98    N     0.58832   0.28783   0.21327   0.00000  Uiso   1.00
H99    H     0.60200   0.26823   0.18942   0.00000  Uiso   1.00
H100   H     0.57712   0.26973   0.23964   0.00000  Uiso   1.00
C101   C     0.40917   0.28917   0.11518   0.00000  Uiso   1.00
C102   C     0.41413   0.28185   0.06462   0.00000  Uiso   1.00
C103   C     0.36875   0.25512   0.04089   0.00000  Uiso   1.00
H104   H     0.36888   0.22390   0.05751   0.00000  Uiso   1.00
H105   H     0.66385   0.27075   0.04238   0.00000  Uiso   1.00
H106   H     0.37309   0.25067   0.00441   0.00000  Uiso   1.00
H107   H     0.41402   0.31211   0.04616   0.00000  Uiso   1.00
H108   H     0.45172   0.26592   0.06167   0.00000  Uiso   1.00
H109   H     0.40360   0.25871   0.13197   0.00000  Uiso   1.00
H110   H     0.37231   0.30646   0.11732   0.00000  Uiso   1.00
C111   C     0.59129   0.04281   0.22090   0.00000  Uiso   1.00
C112   C     0.63542   0.05079   0.19254   0.00000  Uiso   1.00
C113   C     0.35161   0.06694   0.22274   0.00000  Uiso   1.00
H114   H     0.34228   0.09455   0.24271   0.00000  Uiso   1.00
H115   H     0.36866   0.04206   0.24686   0.00000  Uiso   1.00
H116   H     0.38142   0.07633   0.20123   0.00000  Uiso   1.00
H117   H     0.64519   0.02132   0.17584   0.00000  Uiso   1.00
H118   H     0.62211   0.07423   0.16536   0.00000  Uiso   1.00
H119   H     0.58012   0.07269   0.23552   0.00000  Uiso   1.00
H120   H     0.60659   0.02347   0.25139   0.00000  Uiso   1.00
C121   C     0.83530   0.08683   0.16703   0.00000  Uiso   1.00
C122   C     0.83287   0.24651   0.16649   0.00000  Uiso   1.00
C123   C     0.73367   0.16689   0.15464   0.00000  Uiso   1.00
C124   C     0.93298   0.16730   0.17867   0.00000  Uiso   1.00
C125   C     0.67856   0.16732   0.14816   0.00000  Uiso   1.00
C126   C     0.98807   0.16872   0.18503   0.00000  Uiso   1.00
C127   C     0.79214   0.02257   0.14127   0.00000  Uiso   1.00
C128   C     0.87687   0.31094   0.19093   0.00000  Uiso   1.00
C129   C     0.79025   0.31229   0.14078   0.00000  Uiso   1.00
C130   C     0.87773   0.02090   0.19268   0.00000  Uiso   1.00
C131   C     0.83299   0.29066   0.16612   0.00000  Uiso   1.00
C132   C     0.83531   0.04265   0.16724   0.00000  Uiso   1.00
C133   C     0.86738   0.19159   0.02844   0.00000  Uiso   1.00
C134   C     0.79924   0.14179   0.30489   0.00000  Uiso   1.00
C135   C     0.86739   0.19156   0.31384   0.00000  Uiso   1.00
C136   C     0.79924   0.14181   0.01950   0.00000  Uiso   1.00
H137   H     0.99111   0.16589   0.11323   0.00000  Uiso   1.00
H138   H     0.67554   0.17041   0.21994   0.00000  Uiso   1.00
H139   H     0.89463   0.21152   0.05015   0.00000  Uiso   1.00
H140   H     0.77201   0.12187   0.28318   0.00000  Uiso   1.00
H141   H     0.89466   0.21143   0.29930   0.00000  Uiso   1.00
H142   H     0.77200   0.12191   0.03407   0.00000  Uiso   1.00
N143   N     0.83332   0.16666   0.28573   0.00000  Uiso   1.00
N144   N     0.83335   0.16668   0.04760   0.00000  Uiso   1.00
O145   O     0.83333   0.10558   0.20487   0.00000  Uiso   1.00
O146   O     0.83334   0.22775   0.12846   0.00000  Uiso   1.00
O147   O     0.83333   0.10559   0.12843   0.00000  Uiso   1.00
O148   O     0.83334   0.22774   0.20490   0.00000  Uiso   1.00
O149   O     0.75725   0.16666   0.19595   0.00000  Uiso   1.00
O150   O     0.90942   0.16667   0.13739   0.00000  Uiso   1.00
O151   O     0.75725   0.16667   0.11950   0.00000  Uiso   1.00
O152   O     0.90942   0.16666   0.21383   0.00000  Uiso   1.00
Zn153  Zn    0.83333   0.16666   0.21771   0.00000  Uiso   1.00
Zn154  Zn    0.83333   0.16667   0.11563   0.00000  Uiso   1.00
N155   N     0.75032   0.04742   0.11670   0.00000  Uiso   1.00
H156   H     0.71518   0.04102   0.12888   0.00000  Uiso   1.00
H157   H     0.74612   0.04054   0.08185   0.00000  Uiso   1.00
N158   N     0.92166   0.28783   0.21327   0.00000  Uiso   1.00
H159   H     0.93533   0.26823   0.18942   0.00000  Uiso   1.00
H160   H     0.91045   0.26973   0.23964   0.00000  Uiso   1.00
C161   C     0.74250   0.28917   0.11518   0.00000  Uiso   1.00
C162   C     0.74746   0.28185   0.06462   0.00000  Uiso   1.00
C163   C     0.70209   0.25512   0.04089   0.00000  Uiso   1.00
H164   H     0.70221   0.22390   0.05751   0.00000  Uiso   1.00
H165   H     0.99719   0.27075   0.04238   0.00000  Uiso   1.00
H166   H     0.70643   0.25067   0.00441   0.00000  Uiso   1.00
H167   H     0.74736   0.31211   0.04616   0.00000  Uiso   1.00
H168   H     0.78506   0.26592   0.06167   0.00000  Uiso   1.00
H169   H     0.73693   0.25871   0.13197   0.00000  Uiso   1.00
H170   H     0.70564   0.30646   0.11732   0.00000  Uiso   1.00
C171   C     0.92462   0.04281   0.22090   0.00000  Uiso   1.00
C172   C     0.96875   0.05079   0.19254   0.00000  Uiso   1.00
C173   C     0.68494   0.06694   0.22274   0.00000  Uiso   1.00
H174   H     0.67561   0.09455   0.24271   0.00000  Uiso   1.00
H175   H     0.70199   0.04206   0.24686   0.00000  Uiso   1.00
H176   H     0.71475   0.07633   0.20123   0.00000  Uiso   1.00
H177   H     0.97852   0.02132   0.17584   0.00000  Uiso   1.00
H178   H     0.95544   0.07423   0.16536   0.00000  Uiso   1.00
H179   H     0.91346   0.07269   0.23552   0.00000  Uiso   1.00
H180   H     0.93992   0.02347   0.25139   0.00000  Uiso   1.00
C181   C     0.16863   0.42016   0.16703   0.00000  Uiso   1.00
C182   C     0.16620   0.57984   0.16649   0.00000  Uiso   1.00
C183   C     0.06701   0.50022   0.15464   0.00000  Uiso   1.00
C184   C     0.26631   0.50064   0.17867   0.00000  Uiso   1.00
C185   C     0.01190   0.50065   0.14816   0.00000  Uiso   1.00
C186   C     0.32140   0.50205   0.18503   0.00000  Uiso   1.00
C187   C     0.12547   0.35590   0.14127   0.00000  Uiso   1.00
C188   C     0.21021   0.64427   0.19093   0.00000  Uiso   1.00
C189   C     0.12358   0.64562   0.14078   0.00000  Uiso   1.00
C190   C     0.21106   0.35423   0.19268   0.00000  Uiso   1.00
C191   C     0.16632   0.62399   0.16612   0.00000  Uiso   1.00
C192   C     0.16864   0.37598   0.16724   0.00000  Uiso   1.00
C193   C     0.20071   0.52492   0.02844   0.00000  Uiso   1.00
C194   C     0.13257   0.47512   0.30489   0.00000  Uiso   1.00
C195   C     0.20072   0.52489   0.31384   0.00000  Uiso   1.00
C196   C     0.13258   0.47514   0.01950   0.00000  Uiso   1.00
H197   H     0.32444   0.49923   0.11323   0.00000  Uiso   1.00
H198   H     0.00888   0.50374   0.21994   0.00000  Uiso   1.00
H199   H     0.22796   0.54485   0.05015   0.00000  Uiso   1.00
H200   H     0.10534   0.45520   0.28318   0.00000  Uiso   1.00
H201   H     0.22800   0.54477   0.29930   0.00000  Uiso   1.00
H202   H     0.10533   0.45524   0.03407   0.00000  Uiso   1.00
N203   N     0.16665   0.49999   0.28573   0.00000  Uiso   1.00
N204   N     0.16668   0.50001   0.04760   0.00000  Uiso   1.00
O205   O     0.16666   0.43892   0.20487   0.00000  Uiso   1.00
O206   O     0.16667   0.56108   0.12846   0.00000  Uiso   1.00
O207   O     0.16666   0.43893   0.12843   0.00000  Uiso   1.00
O208   O     0.16667   0.56107   0.20490   0.00000  Uiso   1.00
O209   O     0.09058   0.50000   0.19595   0.00000  Uiso   1.00
O210   O     0.24275   0.50000   0.13739   0.00000  Uiso   1.00
O211   O     0.09058   0.50000   0.11950   0.00000  Uiso   1.00
O212   O     0.24275   0.50000   0.21383   0.00000  Uiso   1.00
Zn213  Zn    0.16667   0.49999   0.21771   0.00000  Uiso   1.00
Zn214  Zn    0.16667   0.50001   0.11563   0.00000  Uiso   1.00
N215   N     0.08366   0.38075   0.11670   0.00000  Uiso   1.00
H216   H     0.04852   0.37435   0.12888   0.00000  Uiso   1.00
H217   H     0.07945   0.37387   0.08185   0.00000  Uiso   1.00
N218   N     0.25499   0.62116   0.21327   0.00000  Uiso   1.00
H219   H     0.26867   0.60156   0.18942   0.00000  Uiso   1.00
H220   H     0.24379   0.60306   0.23964   0.00000  Uiso   1.00
C221   C     0.07584   0.62250   0.11518   0.00000  Uiso   1.00
C222   C     0.08080   0.61518   0.06462   0.00000  Uiso   1.00
C223   C     0.03542   0.58845   0.04089   0.00000  Uiso   1.00
H224   H     0.03555   0.55723   0.05751   0.00000  Uiso   1.00
H225   H     0.33052   0.60408   0.04238   0.00000  Uiso   1.00
H226   H     0.03976   0.58400   0.00441   0.00000  Uiso   1.00
H227   H     0.08069   0.64545   0.04616   0.00000  Uiso   1.00
H228   H     0.11839   0.59925   0.06167   0.00000  Uiso   1.00
H229   H     0.07026   0.59204   0.13197   0.00000  Uiso   1.00
H230   H     0.03897   0.63979   0.11732   0.00000  Uiso   1.00
C231   C     0.25796   0.37614   0.22090   0.00000  Uiso   1.00
C232   C     0.30208   0.38412   0.19254   0.00000  Uiso   1.00
C233   C     0.01827   0.40028   0.22274   0.00000  Uiso   1.00
H234   H     0.00894   0.42788   0.24271   0.00000  Uiso   1.00
H235   H     0.03532   0.37540   0.24686   0.00000  Uiso   1.00
H236   H     0.04808   0.40967   0.20123   0.00000  Uiso   1.00
H237   H     0.31186   0.35465   0.17584   0.00000  Uiso   1.00
H238   H     0.28877   0.40756   0.16536   0.00000  Uiso   1.00
H239   H     0.24679   0.40603   0.23552   0.00000  Uiso   1.00
H240   H     0.27326   0.35680   0.25139   0.00000  Uiso   1.00
C241   C     0.50196   0.42016   0.16703   0.00000  Uiso   1.00
C242   C     0.49954   0.57984   0.16649   0.00000  Uiso   1.00
C243   C     0.40034   0.50022   0.15464   0.00000  Uiso   1.00
C244   C     0.59965   0.50064   0.17867   0.00000  Uiso   1.00
C245   C     0.34523   0.50065   0.14816   0.00000  Uiso   1.00
C246   C     0.65474   0.50205   0.18503   0.00000  Uiso   1.00
C247   C     0.45881   0.35590   0.14127   0.00000  Uiso   1.00
C248   C     0.54354   0.64427   0.19093   0.00000  Uiso   1.00
C249   C     0.45691   0.64562   0.14078   0.00000  Uiso   1.00
C250   C     0.54439   0.35423   0.19268   0.00000  Uiso   1.00
C251   C     0.49965   0.62399   0.16612   0.00000  Uiso   1.00
C252   C     0.50198   0.37598   0.16724   0.00000  Uiso   1.00
C253   C     0.53405   0.52492   0.02844   0.00000  Uiso   1.00
C254   C     0.46591   0.47512   0.30489   0.00000  Uiso   1.00
C255   C     0.53405   0.52489   0.31384   0.00000  Uiso   1.00
C256   C     0.46591   0.47514   0.01950   0.00000  Uiso   1.00
H257   H     0.65778   0.49923   0.11323   0.00000  Uiso   1.00
H258   H     0.34221   0.50374   0.21994   0.00000  Uiso   1.00
H259   H     0.56129   0.54485   0.05015   0.00000  Uiso   1.00
H260   H     0.43867   0.45520   0.28318   0.00000  Uiso   1.00
H261   H     0.56133   0.54477   0.29930   0.00000  Uiso   1.00
H262   H     0.43866   0.45524   0.03407   0.00000  Uiso   1.00
N263   N     0.49999   0.49999   0.28573   0.00000  Uiso   1.00
N264   N     0.50001   0.50001   0.04760   0.00000  Uiso   1.00
O265   O     0.50000   0.43892   0.20487   0.00000  Uiso   1.00
O266   O     0.50000   0.56108   0.12846   0.00000  Uiso   1.00
O267   O     0.50000   0.43893   0.12843   0.00000  Uiso   1.00
O268   O     0.50000   0.56107   0.20490   0.00000  Uiso   1.00
O269   O     0.42392   0.50000   0.19595   0.00000  Uiso   1.00
O270   O     0.57608   0.50000   0.13739   0.00000  Uiso   1.00
O271   O     0.42392   0.50000   0.11950   0.00000  Uiso   1.00
O272   O     0.57608   0.50000   0.21383   0.00000  Uiso   1.00
Zn273  Zn    0.50000   0.49999   0.21771   0.00000  Uiso   1.00
Zn274  Zn    0.50000   0.50001   0.11563   0.00000  Uiso   1.00
N275   N     0.41699   0.38075   0.11670   0.00000  Uiso   1.00
H276   H     0.38185   0.37435   0.12888   0.00000  Uiso   1.00
H277   H     0.41278   0.37387   0.08185   0.00000  Uiso   1.00
N278   N     0.58832   0.62116   0.21327   0.00000  Uiso   1.00
H279   H     0.60200   0.60156   0.18942   0.00000  Uiso   1.00
H280   H     0.57712   0.60306   0.23964   0.00000  Uiso   1.00
C281   C     0.40917   0.62250   0.11518   0.00000  Uiso   1.00
C282   C     0.41413   0.61518   0.06462   0.00000  Uiso   1.00
C283   C     0.36875   0.58845   0.04089   0.00000  Uiso   1.00
H284   H     0.36888   0.55723   0.05751   0.00000  Uiso   1.00
H285   H     0.66385   0.60408   0.04238   0.00000  Uiso   1.00
H286   H     0.37309   0.58400   0.00441   0.00000  Uiso   1.00
H287   H     0.41402   0.64545   0.04616   0.00000  Uiso   1.00
H288   H     0.45172   0.59925   0.06167   0.00000  Uiso   1.00
H289   H     0.40360   0.59204   0.13197   0.00000  Uiso   1.00
H290   H     0.37231   0.63979   0.11732   0.00000  Uiso   1.00
C291   C     0.59129   0.37614   0.22090   0.00000  Uiso   1.00
C292   C     0.63542   0.38412   0.19254   0.00000  Uiso   1.00
C293   C     0.35161   0.40028   0.22274   0.00000  Uiso   1.00
H294   H     0.34228   0.42788   0.24271   0.00000  Uiso   1.00
H295   H     0.36866   0.37540   0.24686   0.00000  Uiso   1.00
H296   H     0.38142   0.40967   0.20123   0.00000  Uiso   1.00
H297   H     0.64519   0.35465   0.17584   0.00000  Uiso   1.00
H298   H     0.62211   0.40756   0.16536   0.00000  Uiso   1.00
H299   H     0.58012   0.40603   0.23552   0.00000  Uiso   1.00
H300   H     0.60659   0.35680   0.25139   0.00000  Uiso   1.00
C301   C     0.83530   0.42016   0.16703   0.00000  Uiso   1.00
C302   C     0.83287   0.57984   0.16649   0.00000  Uiso   1.00
C303   C     0.73367   0.50022   0.15464   0.00000  Uiso   1.00
C304   C     0.93298   0.50064   0.17867   0.00000  Uiso   1.00
C305   C     0.67856   0.50065   0.14816   0.00000  Uiso   1.00
C306   C     0.98807   0.50205   0.18503   0.00000  Uiso   1.00
C307   C     0.79214   0.35590   0.14127   0.00000  Uiso   1.00
C308   C     0.87687   0.64427   0.19093   0.00000  Uiso   1.00
C309   C     0.79025   0.64562   0.14078   0.00000  Uiso   1.00
C310   C     0.87773   0.35423   0.19268   0.00000  Uiso   1.00
C311   C     0.83299   0.62399   0.16612   0.00000  Uiso   1.00
C312   C     0.83531   0.37598   0.16724   0.00000  Uiso   1.00
C313   C     0.86738   0.52492   0.02844   0.00000  Uiso   1.00
C314   C     0.79924   0.47512   0.30489   0.00000  Uiso   1.00
C315   C     0.86739   0.52489   0.31384   0.00000  Uiso   1.00
C316   C     0.79924   0.47514   0.01950   0.00000  Uiso   1.00
H317   H     0.99111   0.49923   0.11323   0.00000  Uiso   1.00
H318   H     0.67554   0.50374   0.21994   0.00000  Uiso   1.00
H319   H     0.89463   0.54485   0.05015   0.00000  Uiso   1.00
H320   H     0.77201   0.45520   0.28318   0.00000  Uiso   1.00
H321   H     0.89466   0.54477   0.29930   0.00000  Uiso   1.00
H322   H     0.77200   0.45524   0.03407   0.00000  Uiso   1.00
N323   N     0.83332   0.49999   0.28573   0.00000  Uiso   1.00
N324   N     0.83335   0.50001   0.04760   0.00000  Uiso   1.00
O325   O     0.83333   0.43892   0.20487   0.00000  Uiso   1.00
O326   O     0.83334   0.56108   0.12846   0.00000  Uiso   1.00
O327   O     0.83333   0.43893   0.12843   0.00000  Uiso   1.00
O328   O     0.83334   0.56107   0.20490   0.00000  Uiso   1.00
O329   O     0.75725   0.50000   0.19595   0.00000  Uiso   1.00
O330   O     0.90942   0.50000   0.13739   0.00000  Uiso   1.00
O331   O     0.75725   0.50000   0.11950   0.00000  Uiso   1.00
O332   O     0.90942   0.50000   0.21383   0.00000  Uiso   1.00
Zn333  Zn    0.83333   0.49999   0.21771   0.00000  Uiso   1.00
Zn334  Zn    0.83333   0.50001   0.11563   0.00000  Uiso   1.00
N335   N     0.75032   0.38075   0.11670   0.00000  Uiso   1.00
H336   H     0.71518   0.37435   0.12888   0.00000  Uiso   1.00
H337   H     0.74612   0.37387   0.08185   0.00000  Uiso   1.00
N338   N     0.92166   0.62116   0.21327   0.00000  Uiso   1.00
H339   H     0.93533   0.60156   0.18942   0.00000  Uiso   1.00
H340   H     0.91045   0.60306   0.23964   0.00000  Uiso   1.00
C341   C     0.74250   0.62250   0.11518   0.00000  Uiso   1.00
C342   C     0.74746   0.61518   0.06462   0.00000  Uiso   1.00
C343   C     0.70209   0.58845   0.04089   0.00000  Uiso   1.00
H344   H     0.70221   0.55723   0.05751   0.00000  Uiso   1.00
H345   H     0.99719   0.60408   0.04238   0.00000  Uiso   1.00
H346   H     0.70643   0.58400   0.00441   0.00000  Uiso   1.00
H347   H     0.74736   0.64545   0.04616   0.00000  Uiso   1.00
H348   H     0.78506   0.59925   0.06167   0.00000  Uiso   1.00
H349   H     0.73693   0.59204   0.13197   0.00000  Uiso   1.00
H350   H     0.70564   0.63979   0.11732   0.00000  Uiso   1.00
C351   C     0.92462   0.37614   0.22090   0.00000  Uiso   1.00
C352   C     0.96875   0.38412   0.19254   0.00000  Uiso   1.00
C353   C     0.68494   0.40028   0.22274   0.00000  Uiso   1.00
H354   H     0.67561   0.42788   0.24271   0.00000  Uiso   1.00
H355   H     0.70199   0.37540   0.24686   0.00000  Uiso   1.00
H356   H     0.71475   0.40967   0.20123   0.00000  Uiso   1.00
H357   H     0.97852   0.35465   0.17584   0.00000  Uiso   1.00
H358   H     0.95544   0.40756   0.16536   0.00000  Uiso   1.00
H359   H     0.91346   0.40603   0.23552   0.00000  Uiso   1.00
H360   H     0.93992   0.35680   0.25139   0.00000  Uiso   1.00
C361   C     0.16863   0.75350   0.16703   0.00000  Uiso   1.00
C362   C     0.16620   0.91318   0.16649   0.00000  Uiso   1.00
C363   C     0.06701   0.83355   0.15464   0.00000  Uiso   1.00
C364   C     0.26631   0.83397   0.17867   0.00000  Uiso   1.00
C365   C     0.01190   0.83398   0.14816   0.00000  Uiso   1.00
C366   C     0.32140   0.83539   0.18503   0.00000  Uiso   1.00
C367   C     0.12547   0.68924   0.14127   0.00000  Uiso   1.00
C368   C     0.21021   0.97761   0.19093   0.00000  Uiso   1.00
C369   C     0.12358   0.97895   0.14078   0.00000  Uiso   1.00
C370   C     0.21106   0.68757   0.19268   0.00000  Uiso   1.00
C371   C     0.16632   0.95732   0.16612   0.00000  Uiso   1.00
C372   C     0.16864   0.70931   0.16724   0.00000  Uiso   1.00
C373   C     0.20071   0.85825   0.02844   0.00000  Uiso   1.00
C374   C     0.13257   0.80846   0.30489   0.00000  Uiso   1.00
C375   C     0.20072   0.85822   0.31384   0.00000  Uiso   1.00
C376   C     0.13258   0.80848   0.01950   0.00000  Uiso   1.00
H377   H     0.32444   0.83256   0.11323   0.00000  Uiso   1.00
H378   H     0.00888   0.83708   0.21994   0.00000  Uiso   1.00
H379   H     0.22796   0.87818   0.05015   0.00000  Uiso   1.00
H380   H     0.10534   0.78853   0.28318   0.00000  Uiso   1.00
H381   H     0.22800   0.87810   0.29930   0.00000  Uiso   1.00
H382   H     0.10533   0.78857   0.03407   0.00000  Uiso   1.00
N383   N     0.16665   0.83332   0.28573   0.00000  Uiso   1.00
N384   N     0.16668   0.83334   0.04760   0.00000  Uiso   1.00
O385   O     0.16666   0.77225   0.20487   0.00000  Uiso   1.00
O386   O     0.16667   0.89442   0.12846   0.00000  Uiso   1.00
O387   O     0.16666   0.77226   0.12843   0.00000  Uiso   1.00
O388   O     0.16667   0.89441   0.20490   0.00000  Uiso   1.00
O389   O     0.09058   0.83333   0.19595   0.00000  Uiso   1.00
O390   O     0.24275   0.83334   0.13739   0.00000  Uiso   1.00
O391   O     0.09058   0.83334   0.11950   0.00000  Uiso   1.00
O392   O     0.24275   0.83333   0.21383   0.00000  Uiso   1.00
Zn393  Zn    0.16667   0.83333   0.21771   0.00000  Uiso   1.00
Zn394  Zn    0.16667   0.83334   0.11563   0.00000  Uiso   1.00
N395   N     0.08366   0.71408   0.11670   0.00000  Uiso   1.00
H396   H     0.04852   0.70768   0.12888   0.00000  Uiso   1.00
H397   H     0.07945   0.70721   0.08185   0.00000  Uiso   1.00
N398   N     0.25499   0.95449   0.21327   0.00000  Uiso   1.00
H399   H     0.26867   0.93489   0.18942   0.00000  Uiso   1.00
H400   H     0.24379   0.93640   0.23964   0.00000  Uiso   1.00
C401   C     0.07584   0.95584   0.11518   0.00000  Uiso   1.00
C402   C     0.08080   0.94852   0.06462   0.00000  Uiso   1.00
C403   C     0.03542   0.92179   0.04089   0.00000  Uiso   1.00
H404   H     0.03555   0.89056   0.05751   0.00000  Uiso   1.00
H405   H     0.33052   0.93741   0.04238   0.00000  Uiso   1.00
H406   H     0.03976   0.91733   0.00441   0.00000  Uiso   1.00
H407   H     0.08069   0.97878   0.04616   0.00000  Uiso   1.00
H408   H     0.11839   0.93258   0.06167   0.00000  Uiso   1.00
H409   H     0.07026   0.92537   0.13197   0.00000  Uiso   1.00
H410   H     0.03897   0.97312   0.11732   0.00000  Uiso   1.00
C411   C     0.25796   0.70948   0.22090   0.00000  Uiso   1.00
C412   C     0.30208   0.71746   0.19254   0.00000  Uiso   1.00
C413   C     0.01827   0.73361   0.22274   0.00000  Uiso   1.00
H414   H     0.00894   0.76121   0.24271   0.00000  Uiso   1.00
H415   H     0.03532   0.70873   0.24686   0.00000  Uiso   1.00
H416   H     0.04808   0.74300   0.20123   0.00000  Uiso   1.00
H417   H     0.31186   0.68799   0.17584   0.00000  Uiso   1.00
H418   H     0.28877   0.74090   0.16536   0.00000  Uiso   1.00
H419   H     0.24679   0.73936   0.23552   0.00000  Uiso   1.00
H420   H     0.27326   0.69014   0.25139   0.00000  Uiso   1.00
C421   C     0.50196   0.75350   0.16703   0.00000  Uiso   1.00
C422   C     0.49954   0.91318   0.16649   0.00000  Uiso   1.00
C423   C     0.40034   0.83355   0.15464   0.00000  Uiso   1.00
C424   C     0.59965   0.83397   0.17867   0.00000  Uiso   1.00
C425   C     0.34523   0.83398   0.14816   0.00000  Uiso   1.00
C426   C     0.65474   0.83539   0.18503   0.00000  Uiso   1.00
C427   C     0.45881   0.68924   0.14127   0.00000  Uiso   1.00
C428   C     0.54354   0.97761   0.19093   0.00000  Uiso   1.00
C429   C     0.45691   0.97895   0.14078   0.00000  Uiso   1.00
C430   C     0.54439   0.68757   0.19268   0.00000  Uiso   1.00
C431   C     0.49965   0.95732   0.16612   0.00000  Uiso   1.00
C432   C     0.50198   0.70931   0.16724   0.00000  Uiso   1.00
C433   C     0.53405   0.85825   0.02844   0.00000  Uiso   1.00
C434   C     0.46591   0.80846   0.30489   0.00000  Uiso   1.00
C435   C     0.53405   0.85822   0.31384   0.00000  Uiso   1.00
C436   C     0.46591   0.80848   0.01950   0.00000  Uiso   1.00
H437   H     0.65778   0.83256   0.11323   0.00000  Uiso   1.00
H438   H     0.34221   0.83708   0.21994   0.00000  Uiso   1.00
H439   H     0.56129   0.87818   0.05015   0.00000  Uiso   1.00
H440   H     0.43867   0.78853   0.28318   0.00000  Uiso   1.00
H441   H     0.56133   0.87810   0.29930   0.00000  Uiso   1.00
H442   H     0.43866   0.78857   0.03407   0.00000  Uiso   1.00
N443   N     0.49999   0.83332   0.28573   0.00000  Uiso   1.00
N444   N     0.50001   0.83334   0.04760   0.00000  Uiso   1.00
O445   O     0.50000   0.77225   0.20487   0.00000  Uiso   1.00
O446   O     0.50000   0.89442   0.12846   0.00000  Uiso   1.00
O447   O     0.50000   0.77226   0.12843   0.00000  Uiso   1.00
O448   O     0.50000   0.89441   0.20490   0.00000  Uiso   1.00
O449   O     0.42392   0.83333   0.19595   0.00000  Uiso   1.00
O450   O     0.57608   0.83334   0.13739   0.00000  Uiso   1.00
O451   O     0.42392   0.83334   0.11950   0.00000  Uiso   1.00
O452   O     0.57608   0.83333   0.21383   0.00000  Uiso   1.00
Zn453  Zn    0.50000   0.83333   0.21771   0.00000  Uiso   1.00
Zn454  Zn    0.50000   0.83334   0.11563   0.00000  Uiso   1.00
N455   N     0.41699   0.71408   0.11670   0.00000  Uiso   1.00
H456   H     0.38185   0.70768   0.12888   0.00000  Uiso   1.00
H457   H     0.41278   0.70721   0.08185   0.00000  Uiso   1.00
N458   N     0.58832   0.95449   0.21327   0.00000  Uiso   1.00
H459   H     0.60200   0.93489   0.18942   0.00000  Uiso   1.00
H460   H     0.57712   0.93640   0.23964   0.00000  Uiso   1.00
C461   C     0.40917   0.95584   0.11518   0.00000  Uiso   1.00
C462   C     0.41413   0.94852   0.06462   0.00000  Uiso   1.00
C463   C     0.36875   0.92179   0.04089   0.00000  Uiso   1.00
H464   H     0.36888   0.89056   0.05751   0.00000  Uiso   1.00
H465   H     0.66385   0.93741   0.04238   0.00000  Uiso   1.00
H466   H     0.37309   0.91733   0.00441   0.00000  Uiso   1.00
H467   H     0.41402   0.97878   0.04616   0.00000  Uiso   1.00
H468   H     0.45172   0.93258   0.06167   0.00000  Uiso   1.00
H469   H     0.40360   0.92537   0.13197   0.00000  Uiso   1.00
H470   H     0.37231   0.97312   0.11732   0.00000  Uiso   1.00
C471   C     0.59129   0.70948   0.22090   0.00000  Uiso   1.00
C472   C     0.63542   0.71746   0.19254   0.00000  Uiso   1.00
C473   C     0.35161   0.73361   0.22274   0.00000  Uiso   1.00
H474   H     0.34228   0.76121   0.24271   0.00000  Uiso   1.00
H475   H     0.36866   0.70873   0.24686   0.00000  Uiso   1.00
H476   H     0.38142   0.74300   0.20123   0.00000  Uiso   1.00
H477   H     0.64519   0.68799   0.17584   0.00000  Uiso   1.00
H478   H     0.62211   0.74090   0.16536   0.00000  Uiso   1.00
H479   H     0.58012   0.73936   0.23552   0.00000  Uiso   1.00
H480   H     0.60659   0.69014   0.25139   0.00000  Uiso   1.00
C481   C     0.83530   0.75350   0.16703   0.00000  Uiso   1.00
C482   C     0.83287   0.91318   0.16649   0.00000  Uiso   1.00
C483   C     0.73367   0.83355   0.15464   0.00000  Uiso   1.00
C484   C     0.93298   0.83397   0.17867   0.00000  Uiso   1.00
C485   C     0.67856   0.83398   0.14816   0.00000  Uiso   1.00
C486   C     0.98807   0.83539   0.18503   0.00000  Uiso   1.00
C487   C     0.79214   0.68924   0.14127   0.00000  Uiso   1.00
C488   C     0.87687   0.97761   0.19093   0.00000  Uiso   1.00
C489   C     0.79025   0.97895   0.14078   0.00000  Uiso   1.00
C490   C     0.87773   0.68757   0.19268   0.00000  Uiso   1.00
C491   C     0.83299   0.95732   0.16612   0.00000  Uiso   1.00
C492   C     0.83531   0.70931   0.16724   0.00000  Uiso   1.00
C493   C     0.86738   0.85825   0.02844   0.00000  Uiso   1.00
C494   C     0.79924   0.80846   0.30489   0.00000  Uiso   1.00
C495   C     0.86739   0.85822   0.31384   0.00000  Uiso   1.00
C496   C     0.79924   0.80848   0.01950   0.00000  Uiso   1.00
H497   H     0.99111   0.83256   0.11323   0.00000  Uiso   1.00
H498   H     0.67554   0.83708   0.21994   0.00000  Uiso   1.00
H499   H     0.89463   0.87818   0.05015   0.00000  Uiso   1.00
H500   H     0.77201   0.78853   0.28318   0.00000  Uiso   1.00
H501   H     0.89466   0.87810   0.29930   0.00000  Uiso   1.00
H502   H     0.77200   0.78857   0.03407   0.00000  Uiso   1.00
N503   N     0.83332   0.83332   0.28573   0.00000  Uiso   1.00
N504   N     0.83335   0.83334   0.04760   0.00000  Uiso   1.00
O505   O     0.83333   0.77225   0.20487   0.00000  Uiso   1.00
O506   O     0.83334   0.89442   0.12846   0.00000  Uiso   1.00
O507   O     0.83333   0.77226   0.12843   0.00000  Uiso   1.00
O508   O     0.83334   0.89441   0.20490   0.00000  Uiso   1.00
O509   O     0.75725   0.83333   0.19595   0.00000  Uiso   1.00
O510   O     0.90942   0.83334   0.13739   0.00000  Uiso   1.00
O511   O     0.75725   0.83334   0.11950   0.00000  Uiso   1.00
O512   O     0.90942   0.83333   0.21383   0.00000  Uiso   1.00
Zn513  Zn    0.83333   0.83333   0.21771   0.00000  Uiso   1.00
Zn514  Zn    0.83333   0.83334   0.11563   0.00000  Uiso   1.00
N515   N     0.75032   0.71408   0.11670   0.00000  Uiso   1.00
H516   H     0.71518   0.70768   0.12888   0.00000  Uiso   1.00
H517   H     0.74612   0.70721   0.08185   0.00000  Uiso   1.00
N518   N     0.92166   0.95449   0.21327   0.00000  Uiso   1.00
H519   H     0.93533   0.93489   0.18942   0.00000  Uiso   1.00
H520   H     0.91045   0.93640   0.23964   0.00000  Uiso   1.00
C521   C     0.74250   0.95584   0.11518   0.00000  Uiso   1.00
C522   C     0.74746   0.94852   0.06462   0.00000  Uiso   1.00
C523   C     0.70209   0.92179   0.04089   0.00000  Uiso   1.00
H524   H     0.70221   0.89056   0.05751   0.00000  Uiso   1.00
H525   H     0.99719   0.93741   0.04238   0.00000  Uiso   1.00
H526   H     0.70643   0.91733   0.00441   0.00000  Uiso   1.00
H527   H     0.74736   0.97878   0.04616   0.00000  Uiso   1.00
H528   H     0.78506   0.93258   0.06167   0.00000  Uiso   1.00
H529   H     0.73693   0.92537   0.13197   0.00000  Uiso   1.00
H530   H     0.70564   0.97312   0.11732   0.00000  Uiso   1.00
C531   C     0.92462   0.70948   0.22090   0.00000  Uiso   1.00
C532   C     0.96875   0.71746   0.19254   0.00000  Uiso   1.00
C533   C     0.68494   0.73361   0.22274   0.00000  Uiso   1.00
H534   H     0.67561   0.76121   0.24271   0.00000  Uiso   1.00
H535   H     0.70199   0.70873   0.24686   0.00000  Uiso   1.00
H536   H     0.71475   0.74300   0.20123   0.00000  Uiso   1.00
H537   H     0.97852   0.68799   0.17584   0.00000  Uiso   1.00
H538   H     0.95544   0.74090   0.16536   0.00000  Uiso   1.00
H539   H     0.91346   0.73936   0.23552   0.00000  Uiso   1.00
H540   H     0.93992   0.69014   0.25139   0.00000  Uiso   1.00
C541   C     0.16863   0.08683   0.50037   0.00000  Uiso   1.00
C542   C     0.16620   0.24651   0.49982   0.00000  Uiso   1.00
C543   C     0.06701   0.16689   0.48797   0.00000  Uiso   1.00
C544   C     0.26631   0.16730   0.51201   0.00000  Uiso   1.00
C545   C     0.01190   0.16732   0.48149   0.00000  Uiso   1.00
C546   C     0.32140   0.16872   0.51837   0.00000  Uiso   1.00
C547   C     0.12547   0.02257   0.47460   0.00000  Uiso   1.00
C548   C     0.21021   0.31094   0.52426   0.00000  Uiso   1.00
C549   C     0.12358   0.31229   0.47412   0.00000  Uiso   1.00
C550   C     0.21106   0.02090   0.52602   0.00000  Uiso   1.00
C551   C     0.16632   0.29066   0.49946   0.00000  Uiso   1.00
C552   C     0.16864   0.04265   0.50057   0.00000  Uiso   1.00
C553   C     0.20071   0.19159   0.36178   0.00000  Uiso   1.00
C554   C     0.13257   0.14179   0.63822   0.00000  Uiso   1.00
C555   C     0.20072   0.19156   0.64717   0.00000  Uiso   1.00
C556   C     0.13258   0.14181   0.35283   0.00000  Uiso   1.00
H557   H     0.32444   0.16589   0.44656   0.00000  Uiso   1.00
H558   H     0.00888   0.17041   0.55327   0.00000  Uiso   1.00
H559   H     0.22796   0.21152   0.38349   0.00000  Uiso   1.00
H560   H     0.10534   0.12187   0.61651   0.00000  Uiso   1.00
H561   H     0.22800   0.21143   0.63263   0.00000  Uiso   1.00
H562   H     0.10533   0.12191   0.36740   0.00000  Uiso   1.00
N563   N     0.16665   0.16666   0.61907   0.00000  Uiso   1.00
N564   N     0.16668   0.16668   0.38093   0.00000  Uiso   1.00
O565   O     0.16666   0.10558   0.53821   0.00000  Uiso   1.00
O566   O     0.16667   0.22775   0.46179   0.00000  Uiso   1.00
O567   O     0.16666   0.10559   0.46176   0.00000  Uiso   1.00
O568   O     0.16667   0.22774   0.53824   0.00000  Uiso   1.00
O569   O     0.09058   0.16666   0.52928   0.00000  Uiso   1.00
O570   O     0.24275   0.16667   0.47072   0.00000  Uiso   1.00
O571   O     0.09058   0.16667   0.45284   0.00000  Uiso   1.00
O572   O     0.24275   0.16666   0.54716   0.00000  Uiso   1.00
Zn573  Zn    0.16667   0.16666   0.55104   0.00000  Uiso   1.00
Zn574  Zn    0.16667   0.16667   0.44896   0.00000  Uiso   1.00
N575   N     0.08366   0.04742   0.45003   0.00000  Uiso   1.00
H576   H     0.04852   0.04102   0.46221   0.00000  Uiso   1.00
H577   H     0.07945   0.04054   0.41518   0.00000  Uiso   1.00
N578   N     0.25499   0.28783   0.54660   0.00000  Uiso   1.00
H579   H     0.26867   0.26823   0.52275   0.00000  Uiso   1.00
H580   H     0.24379   0.26973   0.57297   0.00000  Uiso   1.00
C581   C     0.07584   0.28917   0.44851   0.00000  Uiso   1.00
C582   C     0.08080   0.28185   0.39796   0.00000  Uiso   1.00
C583   C     0.03542   0.25512   0.37422   0.00000  Uiso   1.00
H584   H     0.03555   0.22390   0.39084   0.00000  Uiso   1.00
H585   H     0.33052   0.27075   0.37571   0.00000  Uiso   1.00
H586   H     0.03976   0.25067   0.33774   0.00000  Uiso   1.00
H587   H     0.08069   0.31211   0.37949   0.00000  Uiso   1.00
H588   H     0.11839   0.26592   0.39500   0.00000  Uiso   1.00
H589   H     0.07026   0.25871   0.46530   0.00000  Uiso   1.00
H590   H     0.03897   0.30646   0.45066   0.00000  Uiso   1.00
C591   C     0.25796   0.04281   0.55424   0.00000  Uiso   1.00
C592   C     0.30208   0.05079   0.52587   0.00000  Uiso   1.00
C593   C     0.01827   0.06694   0.55607   0.00000  Uiso   1.00
H594   H     0.00894   0.09455   0.57604   0.00000  Uiso   1.00
H595   H     0.03532   0.04206   0.58019   0.00000  Uiso   1.00
H596   H     0.04808   0.07633   0.53456   0.00000  Uiso   1.00
H597   H     0.31186   0.02132   0.50918   0.00000  Uiso   1.00
H598   H     0.28877   0.07423   0.49870   0.00000  Uiso   1.00
H599   H     0.24679   0.07269   0.56885   0.00000  Uiso   1.00
H600   H     0.27326   0.02347   0.58472   0.00000  Uiso   1.00
C601   C     0.50196   0.08683   0.50037   0.00000  Uiso   1.00
C602   C     0.49954   0.24651   0.49982   0.00000  Uiso   1.00
C603   C     0.40034   0.16689   0.48797   0.00000  Uiso   1.00
C604   C     0.59965   0.16730   0.51201   0.00000  Uiso   1.00
C605   C     0.34523   0.16732   0.48149   0.00000  Uiso   1.00
C606   C     0.65474   0.16872   0.51837   0.00000  Uiso   1.00
C607   C     0.45881   0.02257   0.47460   0.00000  Uiso   1.00
C608   C     0.54354   0.31094   0.52426   0.00000  Uiso   1.00
C609   C     0.45691   0.31229   0.47412   0.00000  Uiso   1.00
C610   C     0.54439   0.02090   0.52602   0.00000  Uiso   1.00
C611   C     0.49965   0.29066   0.49946   0.00000  Uiso   1.00
C612   C     0.50198   0.04265   0.50057   0.00000  Uiso   1.00
C613   C     0.53405   0.19159   0.36178   0.00000  Uiso   1.00
C614   C     0.46591   0.14179   0.63822   0.00000  Uiso   1.00
C615   C     0.53405   0.19156   0.64717   0.00000  Uiso   1.00
C616   C     0.46591   0.14181   0.35283   0.00000  Uiso   1.00
H617   H     0.65778   0.16589   0.44656   0.00000  Uiso   1.00
H618   H     0.34221   0.17041   0.55327   0.00000  Uiso   1.00
H619   H     0.56129   0.21152   0.38349   0.00000  Uiso   1.00
H620   H     0.43867   0.12187   0.61651   0.00000  Uiso   1.00
H621   H     0.56133   0.21143   0.63263   0.00000  Uiso   1.00
H622   H     0.43866   0.12191   0.36740   0.00000  Uiso   1.00
N623   N     0.49999   0.16666   0.61907   0.00000  Uiso   1.00
N624   N     0.50001   0.16668   0.38093   0.00000  Uiso   1.00
O625   O     0.50000   0.10558   0.53821   0.00000  Uiso   1.00
O626   O     0.50000   0.22775   0.46179   0.00000  Uiso   1.00
O627   O     0.50000   0.10559   0.46176   0.00000  Uiso   1.00
O628   O     0.50000   0.22774   0.53824   0.00000  Uiso   1.00
O629   O     0.42392   0.16666   0.52928   0.00000  Uiso   1.00
O630   O     0.57608   0.16667   0.47072   0.00000  Uiso   1.00
O631   O     0.42392   0.16667   0.45284   0.00000  Uiso   1.00
O632   O     0.57608   0.16666   0.54716   0.00000  Uiso   1.00
Zn633  Zn    0.50000   0.16666   0.55104   0.00000  Uiso   1.00
Zn634  Zn    0.50000   0.16667   0.44896   0.00000  Uiso   1.00
N635   N     0.41699   0.04742   0.45003   0.00000  Uiso   1.00
H636   H     0.38185   0.04102   0.46221   0.00000  Uiso   1.00
H637   H     0.41278   0.04054   0.41518   0.00000  Uiso   1.00
N638   N     0.58832   0.28783   0.54660   0.00000  Uiso   1.00
H639   H     0.60200   0.26823   0.52275   0.00000  Uiso   1.00
H640   H     0.57712   0.26973   0.57297   0.00000  Uiso   1.00
C641   C     0.40917   0.28917   0.44851   0.00000  Uiso   1.00
C642   C     0.41413   0.28185   0.39796   0.00000  Uiso   1.00
C643   C     0.36875   0.25512   0.37422   0.00000  Uiso   1.00
H644   H     0.36888   0.22390   0.39084   0.00000  Uiso   1.00
H645   H     0.66385   0.27075   0.37571   0.00000  Uiso   1.00
H646   H     0.37309   0.25067   0.33774   0.00000  Uiso   1.00
H647   H     0.41402   0.31211   0.37949   0.00000  Uiso   1.00
H648   H     0.45172   0.26592   0.39500   0.00000  Uiso   1.00
H649   H     0.40360   0.25871   0.46530   0.00000  Uiso   1.00
H650   H     0.37231   0.30646   0.45066   0.00000  Uiso   1.00
C651   C     0.59129   0.04281   0.55424   0.00000  Uiso   1.00
C652   C     0.63542   0.05079   0.52587   0.00000  Uiso   1.00
C653   C     0.35161   0.06694   0.55607   0.00000  Uiso   1.00
H654   H     0.34228   0.09455   0.57604   0.00000  Uiso   1.00
H655   H     0.36866   0.04206   0.58019   0.00000  Uiso   1.00
H656   H     0.38142   0.07633   0.53456   0.00000  Uiso   1.00
H657   H     0.64519   0.02132   0.50918   0.00000  Uiso   1.00
H658   H     0.62211   0.07423   0.49870   0.00000  Uiso   1.00
H659   H     0.58012   0.07269   0.56885   0.00000  Uiso   1.00
H660   H     0.60659   0.02347   0.58472   0.00000  Uiso   1.00
C661   C     0.83530   0.08683   0.50037   0.00000  Uiso   1.00
C662   C     0.83287   0.24651   0.49982   0.00000  Uiso   1.00
C663   C     0.73367   0.16689   0.48797   0.00000  Uiso   1.00
C664   C     0.93298   0.16730   0.51201   0.00000  Uiso   1.00
C665   C     0.67856   0.16732   0.48149   0.00000  Uiso   1.00
C666   C     0.98807   0.16872   0.51837   0.00000  Uiso   1.00
C667   C     0.79214   0.02257   0.47460   0.00000  Uiso   1.00
C668   C     0.87687   0.31094   0.52426   0.00000  Uiso   1.00
C669   C     0.79025   0.31229   0.47412   0.00000  Uiso   1.00
C670   C     0.87773   0.02090   0.52602   0.00000  Uiso   1.00
C671   C     0.83299   0.29066   0.49946   0.00000  Uiso   1.00
C672   C     0.83531   0.04265   0.50057   0.00000  Uiso   1.00
C673   C     0.86738   0.19159   0.36178   0.00000  Uiso   1.00
C674   C     0.79924   0.14179   0.63822   0.00000  Uiso   1.00
C675   C     0.86739   0.19156   0.64717   0.00000  Uiso   1.00
C676   C     0.79924   0.14181   0.35283   0.00000  Uiso   1.00
H677   H     0.99111   0.16589   0.44656   0.00000  Uiso   1.00
H678   H     0.67554   0.17041   0.55327   0.00000  Uiso   1.00
H679   H     0.89463   0.21152   0.38349   0.00000  Uiso   1.00
H680   H     0.77201   0.12187   0.61651   0.00000  Uiso   1.00
H681   H     0.89466   0.21143   0.63263   0.00000  Uiso   1.00
H682   H     0.77200   0.12191   0.36740   0.00000  Uiso   1.00
N683   N     0.83332   0.16666   0.61907   0.00000  Uiso   1.00
N684   N     0.83335   0.16668   0.38093   0.00000  Uiso   1.00
O685   O     0.83333   0.10558   0.53821   0.00000  Uiso   1.00
O686   O     0.83334   0.22775   0.46179   0.00000  Uiso   1.00
O687   O     0.83333   0.10559   0.46176   0.00000  Uiso   1.00
O688   O     0.83334   0.22774   0.53824   0.00000  Uiso   1.00
O689   O     0.75725   0.16666   0.52928   0.00000  Uiso   1.00
O690   O     0.90942   0.16667   0.47072   0.00000  Uiso   1.00
O691   O     0.75725   0.16667   0.45284   0.00000  Uiso   1.00
O692   O     0.90942   0.16666   0.54716   0.00000  Uiso   1.00
Zn693  Zn    0.83333   0.16666   0.55104   0.00000  Uiso   1.00
Zn694  Zn    0.83333   0.16667   0.44896   0.00000  Uiso   1.00
N695   N     0.75032   0.04742   0.45003   0.00000  Uiso   1.00
H696   H     0.71518   0.04102   0.46221   0.00000  Uiso   1.00
H697   H     0.74612   0.04054   0.41518   0.00000  Uiso   1.00
N698   N     0.92166   0.28783   0.54660   0.00000  Uiso   1.00
H699   H     0.93533   0.26823   0.52275   0.00000  Uiso   1.00
H700   H     0.91045   0.26973   0.57297   0.00000  Uiso   1.00
C701   C     0.74250   0.28917   0.44851   0.00000  Uiso   1.00
C702   C     0.74746   0.28185   0.39796   0.00000  Uiso   1.00
C703   C     0.70209   0.25512   0.37422   0.00000  Uiso   1.00
H704   H     0.70221   0.22390   0.39084   0.00000  Uiso   1.00
H705   H     0.99719   0.27075   0.37571   0.00000  Uiso   1.00
H706   H     0.70643   0.25067   0.33774   0.00000  Uiso   1.00
H707   H     0.74736   0.31211   0.37949   0.00000  Uiso   1.00
H708   H     0.78506   0.26592   0.39500   0.00000  Uiso   1.00
H709   H     0.73693   0.25871   0.46530   0.00000  Uiso   1.00
H710   H     0.70564   0.30646   0.45066   0.00000  Uiso   1.00
C711   C     0.92462   0.04281   0.55424   0.00000  Uiso   1.00
C712   C     0.96875   0.05079   0.52587   0.00000  Uiso   1.00
C713   C     0.68494   0.06694   0.55607   0.00000  Uiso   1.00
H714   H     0.67561   0.09455   0.57604   0.00000  Uiso   1.00
H715   H     0.70199   0.04206   0.58019   0.00000  Uiso   1.00
H716   H     0.71475   0.07633   0.53456   0.00000  Uiso   1.00
H717   H     0.97852   0.02132   0.50918   0.00000  Uiso   1.00
H718   H     0.95544   0.07423   0.49870   0.00000  Uiso   1.00
H719   H     0.91346   0.07269   0.56885   0.00000  Uiso   1.00
H720   H     0.93992   0.02347   0.58472   0.00000  Uiso   1.00
C721   C     0.16863   0.42016   0.50037   0.00000  Uiso   1.00
C722   C     0.16620   0.57984   0.49982   0.00000  Uiso   1.00
C723   C     0.06701   0.50022   0.48797   0.00000  Uiso   1.00
C724   C     0.26631   0.50064   0.51201   0.00000  Uiso   1.00
C725   C     0.01190   0.50065   0.48149   0.00000  Uiso   1.00
C726   C     0.32140   0.50205   0.51837   0.00000  Uiso   1.00
C727   C     0.12547   0.35590   0.47460   0.00000  Uiso   1.00
C728   C     0.21021   0.64427   0.52426   0.00000  Uiso   1.00
C729   C     0.12358   0.64562   0.47412   0.00000  Uiso   1.00
C730   C     0.21106   0.35423   0.52602   0.00000  Uiso   1.00
C731   C     0.16632   0.62399   0.49946   0.00000  Uiso   1.00
C732   C     0.16864   0.37598   0.50057   0.00000  Uiso   1.00
C733   C     0.20071   0.52492   0.36178   0.00000  Uiso   1.00
C734   C     0.13257   0.47512   0.63822   0.00000  Uiso   1.00
C735   C     0.20072   0.52489   0.64717   0.00000  Uiso   1.00
C736   C     0.13258   0.47514   0.35283   0.00000  Uiso   1.00
H737   H     0.32444   0.49923   0.44656   0.00000  Uiso   1.00
H738   H     0.00888   0.50374   0.55327   0.00000  Uiso   1.00
H739   H     0.22796   0.54485   0.38349   0.00000  Uiso   1.00
H740   H     0.10534   0.45520   0.61651   0.00000  Uiso   1.00
H741   H     0.22800   0.54477   0.63263   0.00000  Uiso   1.00
H742   H     0.10533   0.45524   0.36740   0.00000  Uiso   1.00
N743   N     0.16665   0.49999   0.61907   0.00000  Uiso   1.00
N744   N     0.16668   0.50001   0.38093   0.00000  Uiso   1.00
O745   O     0.16666   0.43892   0.53821   0.00000  Uiso   1.00
O746   O     0.16667   0.56108   0.46179   0.00000  Uiso   1.00
O747   O     0.16666   0.43893   0.46176   0.00000  Uiso   1.00
O748   O     0.16667   0.56107   0.53824   0.00000  Uiso   1.00
O749   O     0.09058   0.50000   0.52928   0.00000  Uiso   1.00
O750   O     0.24275   0.50000   0.47072   0.00000  Uiso   1.00
O751   O     0.09058   0.50000   0.45284   0.00000  Uiso   1.00
O752   O     0.24275   0.50000   0.54716   0.00000  Uiso   1.00
Zn753  Zn    0.16667   0.49999   0.55104   0.00000  Uiso   1.00
Zn754  Zn    0.16667   0.50001   0.44896   0.00000  Uiso   1.00
N755   N     0.08366   0.38075   0.45003   0.00000  Uiso   1.00
H756   H     0.04852   0.37435   0.46221   0.00000  Uiso   1.00
H757   H     0.07945   0.37387   0.41518   0.00000  Uiso   1.00
N758   N     0.25499   0.62116   0.54660   0.00000  Uiso   1.00
H759   H     0.26867   0.60156   0.52275   0.00000  Uiso   1.00
H760   H     0.24379   0.60306   0.57297   0.00000  Uiso   1.00
C761   C     0.07584   0.62250   0.44851   0.00000  Uiso   1.00
C762   C     0.08080   0.61518   0.39796   0.00000  Uiso   1.00
C763   C     0.03542   0.58845   0.37422   0.00000  Uiso   1.00
H764   H     0.03555   0.55723   0.39084   0.00000  Uiso   1.00
H765   H     0.33052   0.60408   0.37571   0.00000  Uiso   1.00
H766   H     0.03976   0.58400   0.33774   0.00000  Uiso   1.00
H767   H     0.08069   0.64545   0.37949   0.00000  Uiso   1.00
H768   H     0.11839   0.59925   0.39500   0.00000  Uiso   1.00
H769   H     0.07026   0.59204   0.46530   0.00000  Uiso   1.00
H770   H     0.03897   0.63979   0.45066   0.00000  Uiso   1.00
C771   C     0.25796   0.37614   0.55424   0.00000  Uiso   1.00
C772   C     0.30208   0.38412   0.52587   0.00000  Uiso   1.00
C773   C     0.01827   0.40028   0.55607   0.00000  Uiso   1.00
H774   H     0.00894   0.42788   0.57604   0.00000  Uiso   1.00
H775   H     0.03532   0.37540   0.58019   0.00000  Uiso   1.00
H776   H     0.04808   0.40967   0.53456   0.00000  Uiso   1.00
H777   H     0.31186   0.35465   0.50918   0.00000  Uiso   1.00
H778   H     0.28877   0.40756   0.49870   0.00000  Uiso   1.00
H779   H     0.24679   0.40603   0.56885   0.00000  Uiso   1.00
H780   H     0.27326   0.35680   0.58472   0.00000  Uiso   1.00
C781   C     0.50196   0.42016   0.50037   0.00000  Uiso   1.00
C782   C     0.49954   0.57984   0.49982   0.00000  Uiso   1.00
C783   C     0.40034   0.50022   0.48797   0.00000  Uiso   1.00
C784   C     0.59965   0.50064   0.51201   0.00000  Uiso   1.00
C785   C     0.34523   0.50065   0.48149   0.00000  Uiso   1.00
C786   C     0.65474   0.50205   0.51837   0.00000  Uiso   1.00
C787   C     0.45881   0.35590   0.47460   0.00000  Uiso   1.00
C788   C     0.54354   0.64427   0.52426   0.00000  Uiso   1.00
C789   C     0.45691   0.64562   0.47412   0.00000  Uiso   1.00
C790   C     0.54439   0.35423   0.52602   0.00000  Uiso   1.00
C791   C     0.49965   0.62399   0.49946   0.00000  Uiso   1.00
C792   C     0.50198   0.37598   0.50057   0.00000  Uiso   1.00
C793   C     0.53405   0.52492   0.36178   0.00000  Uiso   1.00
C794   C     0.46591   0.47512   0.63822   0.00000  Uiso   1.00
C795   C     0.53405   0.52489   0.64717   0.00000  Uiso   1.00
C796   C     0.46591   0.47514   0.35283   0.00000  Uiso   1.00
H797   H     0.65778   0.49923   0.44656   0.00000  Uiso   1.00
H798   H     0.34221   0.50374   0.55327   0.00000  Uiso   1.00
H799   H     0.56129   0.54485   0.38349   0.00000  Uiso   1.00
H800   H     0.43867   0.45520   0.61651   0.00000  Uiso   1.00
H801   H     0.56133   0.54477   0.63263   0.00000  Uiso   1.00
H802   H     0.43866   0.45524   0.36740   0.00000  Uiso   1.00
N803   N     0.49999   0.49999   0.61907   0.00000  Uiso   1.00
N804   N     0.50001   0.50001   0.38093   0.00000  Uiso   1.00
O805   O     0.50000   0.43892   0.53821   0.00000  Uiso   1.00
O806   O     0.50000   0.56108   0.46179   0.00000  Uiso   1.00
O807   O     0.50000   0.43893   0.46176   0.00000  Uiso   1.00
O808   O     0.50000   0.56107   0.53824   0.00000  Uiso   1.00
O809   O     0.42392   0.50000   0.52928   0.00000  Uiso   1.00
O810   O     0.57608   0.50000   0.47072   0.00000  Uiso   1.00
O811   O     0.42392   0.50000   0.45284   0.00000  Uiso   1.00
O812   O     0.57608   0.50000   0.54716   0.00000  Uiso   1.00
Zn813  Zn    0.50000   0.49999   0.55104   0.00000  Uiso   1.00
Zn814  Zn    0.50000   0.50001   0.44896   0.00000  Uiso   1.00
N815   N     0.41699   0.38075   0.45003   0.00000  Uiso   1.00
H816   H     0.38185   0.37435   0.46221   0.00000  Uiso   1.00
H817   H     0.41278   0.37387   0.41518   0.00000  Uiso   1.00
N818   N     0.58832   0.62116   0.54660   0.00000  Uiso   1.00
H819   H     0.60200   0.60156   0.52275   0.00000  Uiso   1.00
H820   H     0.57712   0.60306   0.57297   0.00000  Uiso   1.00
C821   C     0.40917   0.62250   0.44851   0.00000  Uiso   1.00
C822   C     0.41413   0.61518   0.39796   0.00000  Uiso   1.00
C823   C     0.36875   0.58845   0.37422   0.00000  Uiso   1.00
H824   H     0.36888   0.55723   0.39084   0.00000  Uiso   1.00
H825   H     0.66385   0.60408   0.37571   0.00000  Uiso   1.00
H826   H     0.37309   0.58400   0.33774   0.00000  Uiso   1.00
H827   H     0.41402   0.64545   0.37949   0.00000  Uiso   1.00
H828   H     0.45172   0.59925   0.39500   0.00000  Uiso   1.00
H829   H     0.40360   0.59204   0.46530   0.00000  Uiso   1.00
H830   H     0.37231   0.63979   0.45066   0.00000  Uiso   1.00
C831   C     0.59129   0.37614   0.55424   0.00000  Uiso   1.00
C832   C     0.63542   0.38412   0.52587   0.00000  Uiso   1.00
C833   C     0.35161   0.40028   0.55607   0.00000  Uiso   1.00
H834   H     0.34228   0.42788   0.57604   0.00000  Uiso   1.00
H835   H     0.36866   0.37540   0.58019   0.00000  Uiso   1.00
H836   H     0.38142   0.40967   0.53456   0.00000  Uiso   1.00
H837   H     0.64519   0.35465   0.50918   0.00000  Uiso   1.00
H838   H     0.62211   0.40756   0.49870   0.00000  Uiso   1.00
H839   H     0.58012   0.40603   0.56885   0.00000  Uiso   1.00
H840   H     0.60659   0.35680   0.58472   0.00000  Uiso   1.00
C841   C     0.83530   0.42016   0.50037   0.00000  Uiso   1.00
C842   C     0.83287   0.57984   0.49982   0.00000  Uiso   1.00
C843   C     0.73367   0.50022   0.48797   0.00000  Uiso   1.00
C844   C     0.93298   0.50064   0.51201   0.00000  Uiso   1.00
C845   C     0.67856   0.50065   0.48149   0.00000  Uiso   1.00
C846   C     0.98807   0.50205   0.51837   0.00000  Uiso   1.00
C847   C     0.79214   0.35590   0.47460   0.00000  Uiso   1.00
C848   C     0.87687   0.64427   0.52426   0.00000  Uiso   1.00
C849   C     0.79025   0.64562   0.47412   0.00000  Uiso   1.00
C850   C     0.87773   0.35423   0.52602   0.00000  Uiso   1.00
C851   C     0.83299   0.62399   0.49946   0.00000  Uiso   1.00
C852   C     0.83531   0.37598   0.50057   0.00000  Uiso   1.00
C853   C     0.86738   0.52492   0.36178   0.00000  Uiso   1.00
C854   C     0.79924   0.47512   0.63822   0.00000  Uiso   1.00
C855   C     0.86739   0.52489   0.64717   0.00000  Uiso   1.00
C856   C     0.79924   0.47514   0.35283   0.00000  Uiso   1.00
H857   H     0.99111   0.49923   0.44656   0.00000  Uiso   1.00
H858   H     0.67554   0.50374   0.55327   0.00000  Uiso   1.00
H859   H     0.89463   0.54485   0.38349   0.00000  Uiso   1.00
H860   H     0.77201   0.45520   0.61651   0.00000  Uiso   1.00
H861   H     0.89466   0.54477   0.63263   0.00000  Uiso   1.00
H862   H     0.77200   0.45524   0.36740   0.00000  Uiso   1.00
N863   N     0.83332   0.49999   0.61907   0.00000  Uiso   1.00
N864   N     0.83335   0.50001   0.38093   0.00000  Uiso   1.00
O865   O     0.83333   0.43892   0.53821   0.00000  Uiso   1.00
O866   O     0.83334   0.56108   0.46179   0.00000  Uiso   1.00
O867   O     0.83333   0.43893   0.46176   0.00000  Uiso   1.00
O868   O     0.83334   0.56107   0.53824   0.00000  Uiso   1.00
O869   O     0.75725   0.50000   0.52928   0.00000  Uiso   1.00
O870   O     0.90942   0.50000   0.47072   0.00000  Uiso   1.00
O871   O     0.75725   0.50000   0.45284   0.00000  Uiso   1.00
O872   O     0.90942   0.50000   0.54716   0.00000  Uiso   1.00
Zn873  Zn    0.83333   0.49999   0.55104   0.00000  Uiso   1.00
Zn874  Zn    0.83333   0.50001   0.44896   0.00000  Uiso   1.00
N875   N     0.75032   0.38075   0.45003   0.00000  Uiso   1.00
H876   H     0.71518   0.37435   0.46221   0.00000  Uiso   1.00
H877   H     0.74612   0.37387   0.41518   0.00000  Uiso   1.00
N878   N     0.92166   0.62116   0.54660   0.00000  Uiso   1.00
H879   H     0.93533   0.60156   0.52275   0.00000  Uiso   1.00
H880   H     0.91045   0.60306   0.57297   0.00000  Uiso   1.00
C881   C     0.74250   0.62250   0.44851   0.00000  Uiso   1.00
C882   C     0.74746   0.61518   0.39796   0.00000  Uiso   1.00
C883   C     0.70209   0.58845   0.37422   0.00000  Uiso   1.00
H884   H     0.70221   0.55723   0.39084   0.00000  Uiso   1.00
H885   H     0.99719   0.60408   0.37571   0.00000  Uiso   1.00
H886   H     0.70643   0.58400   0.33774   0.00000  Uiso   1.00
H887   H     0.74736   0.64545   0.37949   0.00000  Uiso   1.00
H888   H     0.78506   0.59925   0.39500   0.00000  Uiso   1.00
H889   H     0.73693   0.59204   0.46530   0.00000  Uiso   1.00
H890   H     0.70564   0.63979   0.45066   0.00000  Uiso   1.00
C891   C     0.92462   0.37614   0.55424   0.00000  Uiso   1.00
C892   C     0.96875   0.38412   0.52587   0.00000  Uiso   1.00
C893   C     0.68494   0.40028   0.55607   0.00000  Uiso   1.00
H894   H     0.67561   0.42788   0.57604   0.00000  Uiso   1.00
H895   H     0.70199   0.37540   0.58019   0.00000  Uiso   1.00
H896   H     0.71475   0.40967   0.53456   0.00000  Uiso   1.00
H897   H     0.97852   0.35465   0.50918   0.00000  Uiso   1.00
H898   H     0.95544   0.40756   0.49870   0.00000  Uiso   1.00
H899   H     0.91346   0.40603   0.56885   0.00000  Uiso   1.00
H900   H     0.93992   0.35680   0.58472   0.00000  Uiso   1.00
C901   C     0.16863   0.75350   0.50037   0.00000  Uiso   1.00
C902   C     0.16620   0.91318   0.49982   0.00000  Uiso   1.00
C903   C     0.06701   0.83355   0.48797   0.00000  Uiso   1.00
C904   C     0.26631   0.83397   0.51201   0.00000  Uiso   1.00
C905   C     0.01190   0.83398   0.48149   0.00000  Uiso   1.00
C906   C     0.32140   0.83539   0.51837   0.00000  Uiso   1.00
C907   C     0.12547   0.68924   0.47460   0.00000  Uiso   1.00
C908   C     0.21021   0.97761   0.52426   0.00000  Uiso   1.00
C909   C     0.12358   0.97895   0.47412   0.00000  Uiso   1.00
C910   C     0.21106   0.68757   0.52602   0.00000  Uiso   1.00
C911   C     0.16632   0.95732   0.49946   0.00000  Uiso   1.00
C912   C     0.16864   0.70931   0.50057   0.00000  Uiso   1.00
C913   C     0.20071   0.85825   0.36178   0.00000  Uiso   1.00
C914   C     0.13257   0.80846   0.63822   0.00000  Uiso   1.00
C915   C     0.20072   0.85822   0.64717   0.00000  Uiso   1.00
C916   C     0.13258   0.80848   0.35283   0.00000  Uiso   1.00
H917   H     0.32444   0.83256   0.44656   0.00000  Uiso   1.00
H918   H     0.00888   0.83708   0.55327   0.00000  Uiso   1.00
H919   H     0.22796   0.87818   0.38349   0.00000  Uiso   1.00
H920   H     0.10534   0.78853   0.61651   0.00000  Uiso   1.00
H921   H     0.22800   0.87810   0.63263   0.00000  Uiso   1.00
H922   H     0.10533   0.78857   0.36740   0.00000  Uiso   1.00
N923   N     0.16665   0.83332   0.61907   0.00000  Uiso   1.00
N924   N     0.16668   0.83334   0.38093   0.00000  Uiso   1.00
O925   O     0.16666   0.77225   0.53821   0.00000  Uiso   1.00
O926   O     0.16667   0.89442   0.46179   0.00000  Uiso   1.00
O927   O     0.16666   0.77226   0.46176   0.00000  Uiso   1.00
O928   O     0.16667   0.89441   0.53824   0.00000  Uiso   1.00
O929   O     0.09058   0.83333   0.52928   0.00000  Uiso   1.00
O930   O     0.24275   0.83334   0.47072   0.00000  Uiso   1.00
O931   O     0.09058   0.83334   0.45284   0.00000  Uiso   1.00
O932   O     0.24275   0.83333   0.54716   0.00000  Uiso   1.00
Zn933  Zn    0.16667   0.83333   0.55104   0.00000  Uiso   1.00
Zn934  Zn    0.16667   0.83334   0.44896   0.00000  Uiso   1.00
N935   N     0.08366   0.71408   0.45003   0.00000  Uiso   1.00
H936   H     0.04852   0.70768   0.46221   0.00000  Uiso   1.00
H937   H     0.07945   0.70721   0.41518   0.00000  Uiso   1.00
N938   N     0.25499   0.95449   0.54660   0.00000  Uiso   1.00
H939   H     0.26867   0.93489   0.52275   0.00000  Uiso   1.00
H940   H     0.24379   0.93640   0.57297   0.00000  Uiso   1.00
C941   C     0.07584   0.95584   0.44851   0.00000  Uiso   1.00
C942   C     0.08080   0.94852   0.39796   0.00000  Uiso   1.00
C943   C     0.03542   0.92179   0.37422   0.00000  Uiso   1.00
H944   H     0.03555   0.89056   0.39084   0.00000  Uiso   1.00
H945   H     0.33052   0.93741   0.37571   0.00000  Uiso   1.00
H946   H     0.03976   0.91733   0.33774   0.00000  Uiso   1.00
H947   H     0.08069   0.97878   0.37949   0.00000  Uiso   1.00
H948   H     0.11839   0.93258   0.39500   0.00000  Uiso   1.00
H949   H     0.07026   0.92537   0.46530   0.00000  Uiso   1.00
H950   H     0.03897   0.97312   0.45066   0.00000  Uiso   1.00
C951   C     0.25796   0.70948   0.55424   0.00000  Uiso   1.00
C952   C     0.30208   0.71746   0.52587   0.00000  Uiso   1.00
C953   C     0.01827   0.73361   0.55607   0.00000  Uiso   1.00
H954   H     0.00894   0.76121   0.57604   0.00000  Uiso   1.00
H955   H     0.03532   0.70873   0.58019   0.00000  Uiso   1.00
H956   H     0.04808   0.74300   0.53456   0.00000  Uiso   1.00
H957   H     0.31186   0.68799   0.50918   0.00000  Uiso   1.00
H958   H     0.28877   0.74090   0.49870   0.00000  Uiso   1.00
H959   H     0.24679   0.73936   0.56885   0.00000  Uiso   1.00
H960   H     0.27326   0.69014   0.58472   0.00000  Uiso   1.00
C961   C     0.50196   0.75350   0.50037   0.00000  Uiso   1.00
C962   C     0.49954   0.91318   0.49982   0.00000  Uiso   1.00
C963   C     0.40034   0.83355   0.48797   0.00000  Uiso   1.00
C964   C     0.59965   0.83397   0.51201   0.00000  Uiso   1.00
C965   C     0.34523   0.83398   0.48149   0.00000  Uiso   1.00
C966   C     0.65474   0.83539   0.51837   0.00000  Uiso   1.00
C967   C     0.45881   0.68924   0.47460   0.00000  Uiso   1.00
C968   C     0.54354   0.97761   0.52426   0.00000  Uiso   1.00
C969   C     0.45691   0.97895   0.47412   0.00000  Uiso   1.00
C970   C     0.54439   0.68757   0.52602   0.00000  Uiso   1.00
C971   C     0.49965   0.95732   0.49946   0.00000  Uiso   1.00
C972   C     0.50198   0.70931   0.50057   0.00000  Uiso   1.00
C973   C     0.53405   0.85825   0.36178   0.00000  Uiso   1.00
C974   C     0.46591   0.80846   0.63822   0.00000  Uiso   1.00
C975   C     0.53405   0.85822   0.64717   0.00000  Uiso   1.00
C976   C     0.46591   0.80848   0.35283   0.00000  Uiso   1.00
H977   H     0.65778   0.83256   0.44656   0.00000  Uiso   1.00
H978   H     0.34221   0.83708   0.55327   0.00000  Uiso   1.00
H979   H     0.56129   0.87818   0.38349   0.00000  Uiso   1.00
H980   H     0.43867   0.78853   0.61651   0.00000  Uiso   1.00
H981   H     0.56133   0.87810   0.63263   0.00000  Uiso   1.00
H982   H     0.43866   0.78857   0.36740   0.00000  Uiso   1.00
N983   N     0.49999   0.83332   0.61907   0.00000  Uiso   1.00
N984   N     0.50001   0.83334   0.38093   0.00000  Uiso   1.00
O985   O     0.50000   0.77225   0.53821   0.00000  Uiso   1.00
O986   O     0.50000   0.89442   0.46179   0.00000  Uiso   1.00
O987   O     0.50000   0.77226   0.46176   0.00000  Uiso   1.00
O988   O     0.50000   0.89441   0.53824   0.00000  Uiso   1.00
O989   O     0.42392   0.83333   0.52928   0.00000  Uiso   1.00
O990   O     0.57608   0.83334   0.47072   0.00000  Uiso   1.00
O991   O     0.42392   0.83334   0.45284   0.00000  Uiso   1.00
O992   O     0.57608   0.83333   0.54716   0.00000  Uiso   1.00
Zn993  Zn    0.50000   0.83333   0.55104   0.00000  Uiso   1.00
Zn994  Zn    0.50000   0.83334   0.44896   0.00000  Uiso   1.00
N995   N     0.41699   0.71408   0.45003   0.00000  Uiso   1.00
H996   H     0.38185   0.70768   0.46221   0.00000  Uiso   1.00
H997   H     0.41278   0.70721   0.41518   0.00000  Uiso   1.00
N998   N     0.58832   0.95449   0.54660   0.00000  Uiso   1.00
H999   H     0.60200   0.93489   0.52275   0.00000  Uiso   1.00
H1000  H     0.57712   0.93640   0.57297   0.00000  Uiso   1.00
C1001  C     0.40917   0.95584   0.44851   0.00000  Uiso   1.00
C1002  C     0.41413   0.94852   0.39796   0.00000  Uiso   1.00
C1003  C     0.36875   0.92179   0.37422   0.00000  Uiso   1.00
H1004  H     0.36888   0.89056   0.39084   0.00000  Uiso   1.00
H1005  H     0.66385   0.93741   0.37571   0.00000  Uiso   1.00
H1006  H     0.37309   0.91733   0.33774   0.00000  Uiso   1.00
H1007  H     0.41402   0.97878   0.37949   0.00000  Uiso   1.00
H1008  H     0.45172   0.93258   0.39500   0.00000  Uiso   1.00
H1009  H     0.40360   0.92537   0.46530   0.00000  Uiso   1.00
H1010  H     0.37231   0.97312   0.45066   0.00000  Uiso   1.00
C1011  C     0.59129   0.70948   0.55424   0.00000  Uiso   1.00
C1012  C     0.63542   0.71746   0.52587   0.00000  Uiso   1.00
C1013  C     0.35161   0.73361   0.55607   0.00000  Uiso   1.00
H1014  H     0.34228   0.76121   0.57604   0.00000  Uiso   1.00
H1015  H     0.36866   0.70873   0.58019   0.00000  Uiso   1.00
H1016  H     0.38142   0.74300   0.53456   0.00000  Uiso   1.00
H1017  H     0.64519   0.68799   0.50918   0.00000  Uiso   1.00
H1018  H     0.62211   0.74090   0.49870   0.00000  Uiso   1.00
H1019  H     0.58012   0.73936   0.56885   0.00000  Uiso   1.00
H1020  H     0.60659   0.69014   0.58472   0.00000  Uiso   1.00
C1021  C     0.83530   0.75350   0.50037   0.00000  Uiso   1.00
C1022  C     0.83287   0.91318   0.49982   0.00000  Uiso   1.00
C1023  C     0.73367   0.83355   0.48797   0.00000  Uiso   1.00
C1024  C     0.93298   0.83397   0.51201   0.00000  Uiso   1.00
C1025  C     0.67856   0.83398   0.48149   0.00000  Uiso   1.00
C1026  C     0.98807   0.83539   0.51837   0.00000  Uiso   1.00
C1027  C     0.79214   0.68924   0.47460   0.00000  Uiso   1.00
C1028  C     0.87687   0.97761   0.52426   0.00000  Uiso   1.00
C1029  C     0.79025   0.97895   0.47412   0.00000  Uiso   1.00
C1030  C     0.87773   0.68757   0.52602   0.00000  Uiso   1.00
C1031  C     0.83299   0.95732   0.49946   0.00000  Uiso   1.00
C1032  C     0.83531   0.70931   0.50057   0.00000  Uiso   1.00
C1033  C     0.86738   0.85825   0.36178   0.00000  Uiso   1.00
C1034  C     0.79924   0.80846   0.63822   0.00000  Uiso   1.00
C1035  C     0.86739   0.85822   0.64717   0.00000  Uiso   1.00
C1036  C     0.79924   0.80848   0.35283   0.00000  Uiso   1.00
H1037  H     0.99111   0.83256   0.44656   0.00000  Uiso   1.00
H1038  H     0.67554   0.83708   0.55327   0.00000  Uiso   1.00
H1039  H     0.89463   0.87818   0.38349   0.00000  Uiso   1.00
H1040  H     0.77201   0.78853   0.61651   0.00000  Uiso   1.00
H1041  H     0.89466   0.87810   0.63263   0.00000  Uiso   1.00
H1042  H     0.77200   0.78857   0.36740   0.00000  Uiso   1.00
N1043  N     0.83332   0.83332   0.61907   0.00000  Uiso   1.00
N1044  N     0.83335   0.83334   0.38093   0.00000  Uiso   1.00
O1045  O     0.83333   0.77225   0.53821   0.00000  Uiso   1.00
O1046  O     0.83334   0.89442   0.46179   0.00000  Uiso   1.00
O1047  O     0.83333   0.77226   0.46176   0.00000  Uiso   1.00
O1048  O     0.83334   0.89441   0.53824   0.00000  Uiso   1.00
O1049  O     0.75725   0.83333   0.52928   0.00000  Uiso   1.00
O1050  O     0.90942   0.83334   0.47072   0.00000  Uiso   1.00
O1051  O     0.75725   0.83334   0.45284   0.00000  Uiso   1.00
O1052  O     0.90942   0.83333   0.54716   0.00000  Uiso   1.00
Zn1053 Zn    0.83333   0.83333   0.55104   0.00000  Uiso   1.00
Zn1054 Zn    0.83333   0.83334   0.44896   0.00000  Uiso   1.00
N1055  N     0.75032   0.71408   0.45003   0.00000  Uiso   1.00
H1056  H     0.71518   0.70768   0.46221   0.00000  Uiso   1.00
H1057  H     0.74612   0.70721   0.41518   0.00000  Uiso   1.00
N1058  N     0.92166   0.95449   0.54660   0.00000  Uiso   1.00
H1059  H     0.93533   0.93489   0.52275   0.00000  Uiso   1.00
H1060  H     0.91045   0.93640   0.57297   0.00000  Uiso   1.00
C1061  C     0.74250   0.95584   0.44851   0.00000  Uiso   1.00
C1062  C     0.74746   0.94852   0.39796   0.00000  Uiso   1.00
C1063  C     0.70209   0.92179   0.37422   0.00000  Uiso   1.00
H1064  H     0.70221   0.89056   0.39084   0.00000  Uiso   1.00
H1065  H     0.99719   0.93741   0.37571   0.00000  Uiso   1.00
H1066  H     0.70643   0.91733   0.33774   0.00000  Uiso   1.00
H1067  H     0.74736   0.97878   0.37949   0.00000  Uiso   1.00
H1068  H     0.78506   0.93258   0.39500   0.00000  Uiso   1.00
H1069  H     0.73693   0.92537   0.46530   0.00000  Uiso   1.00
H1070  H     0.70564   0.97312   0.45066   0.00000  Uiso   1.00
C1071  C     0.92462   0.70948   0.55424   0.00000  Uiso   1.00
C1072  C     0.96875   0.71746   0.52587   0.00000  Uiso   1.00
C1073  C     0.68494   0.73361   0.55607   0.00000  Uiso   1.00
H1074  H     0.67561   0.76121   0.57604   0.00000  Uiso   1.00
H1075  H     0.70199   0.70873   0.58019   0.00000  Uiso   1.00
H1076  H     0.71475   0.74300   0.53456   0.00000  Uiso   1.00
H1077  H     0.97852   0.68799   0.50918   0.00000  Uiso   1.00
H1078  H     0.95544   0.74090   0.49870   0.00000  Uiso   1.00
H1079  H     0.91346   0.73936   0.56885   0.00000  Uiso   1.00
H1080  H     0.93992   0.69014   0.58472   0.00000  Uiso   1.00
C1081  C     0.16863   0.08683   0.83370   0.00000  Uiso   1.00
C1082  C     0.16620   0.24651   0.83315   0.00000  Uiso   1.00
C1083  C     0.06701   0.16689   0.82130   0.00000  Uiso   1.00
C1084  C     0.26631   0.16730   0.84534   0.00000  Uiso   1.00
C1085  C     0.01190   0.16732   0.81483   0.00000  Uiso   1.00
C1086  C     0.32140   0.16872   0.85170   0.00000  Uiso   1.00
C1087  C     0.12547   0.02257   0.80794   0.00000  Uiso   1.00
C1088  C     0.21021   0.31094   0.85759   0.00000  Uiso   1.00
C1089  C     0.12358   0.31229   0.80745   0.00000  Uiso   1.00
C1090  C     0.21106   0.02090   0.85935   0.00000  Uiso   1.00
C1091  C     0.16632   0.29066   0.83279   0.00000  Uiso   1.00
C1092  C     0.16864   0.04265   0.83390   0.00000  Uiso   1.00
C1093  C     0.20071   0.19159   0.69511   0.00000  Uiso   1.00
C1094  C     0.13257   0.14179   0.97156   0.00000  Uiso   1.00
C1095  C     0.20072   0.19156   0.98051   0.00000  Uiso   1.00
C1096  C     0.13258   0.14181   0.68617   0.00000  Uiso   1.00
H1097  H     0.32444   0.16589   0.77989   0.00000  Uiso   1.00
H1098  H     0.00888   0.17041   0.88660   0.00000  Uiso   1.00
H1099  H     0.22796   0.21152   0.71682   0.00000  Uiso   1.00
H1100  H     0.10534   0.12187   0.94985   0.00000  Uiso   1.00
H1101  H     0.22800   0.21143   0.96596   0.00000  Uiso   1.00
H1102  H     0.10533   0.12191   0.70074   0.00000  Uiso   1.00
N1103  N     0.16665   0.16666   0.95240   0.00000  Uiso   1.00
N1104  N     0.16668   0.16668   0.71427   0.00000  Uiso   1.00
O1105  O     0.16666   0.10558   0.87154   0.00000  Uiso   1.00
O1106  O     0.16667   0.22775   0.79513   0.00000  Uiso   1.00
O1107  O     0.16666   0.10559   0.79510   0.00000  Uiso   1.00
O1108  O     0.16667   0.22774   0.87157   0.00000  Uiso   1.00
O1109  O     0.09058   0.16666   0.86261   0.00000  Uiso   1.00
O1110  O     0.24275   0.16667   0.80405   0.00000  Uiso   1.00
O1111  O     0.09058   0.16667   0.78617   0.00000  Uiso   1.00
O1112  O     0.24275   0.16666   0.88050   0.00000  Uiso   1.00
Zn1113 Zn    0.16667   0.16666   0.88437   0.00000  Uiso   1.00
Zn1114 Zn    0.16667   0.16667   0.78229   0.00000  Uiso   1.00
N1115  N     0.08366   0.04742   0.78336   0.00000  Uiso   1.00
H1116  H     0.04852   0.04102   0.79555   0.00000  Uiso   1.00
H1117  H     0.07945   0.04054   0.74852   0.00000  Uiso   1.00
N1118  N     0.25499   0.28783   0.87994   0.00000  Uiso   1.00
H1119  H     0.26867   0.26823   0.85608   0.00000  Uiso   1.00
H1120  H     0.24379   0.26973   0.90631   0.00000  Uiso   1.00
C1121  C     0.07584   0.28917   0.78184   0.00000  Uiso   1.00
C1122  C     0.08080   0.28185   0.73129   0.00000  Uiso   1.00
C1123  C     0.03542   0.25512   0.70755   0.00000  Uiso   1.00
H1124  H     0.03555   0.22390   0.72418   0.00000  Uiso   1.00
H1125  H     0.33052   0.27075   0.70905   0.00000  Uiso   1.00
H1126  H     0.03976   0.25067   0.67108   0.00000  Uiso   1.00
H1127  H     0.08069   0.31211   0.71283   0.00000  Uiso   1.00
H1128  H     0.11839   0.26592   0.72834   0.00000  Uiso   1.00
H1129  H     0.07026   0.25871   0.79864   0.00000  Uiso   1.00
H1130  H     0.03897   0.30646   0.78399   0.00000  Uiso   1.00
C1131  C     0.25796   0.04281   0.88757   0.00000  Uiso   1.00
C1132  C     0.30208   0.05079   0.85920   0.00000  Uiso   1.00
C1133  C     0.01827   0.06694   0.88941   0.00000  Uiso   1.00
H1134  H     0.00894   0.09455   0.90937   0.00000  Uiso   1.00
H1135  H     0.03532   0.04206   0.91353   0.00000  Uiso   1.00
H1136  H     0.04808   0.07633   0.86790   0.00000  Uiso   1.00
H1137  H     0.31186   0.02132   0.84251   0.00000  Uiso   1.00
H1138  H     0.28877   0.07423   0.83203   0.00000  Uiso   1.00
H1139  H     0.24679   0.07269   0.90218   0.00000  Uiso   1.00
H1140  H     0.27326   0.02347   0.91805   0.00000  Uiso   1.00
C1141  C     0.50196   0.08683   0.83370   0.00000  Uiso   1.00
C1142  C     0.49954   0.24651   0.83315   0.00000  Uiso   1.00
C1143  C     0.40034   0.16689   0.82130   0.00000  Uiso   1.00
C1144  C     0.59965   0.16730   0.84534   0.00000  Uiso   1.00
C1145  C     0.34523   0.16732   0.81483   0.00000  Uiso   1.00
C1146  C     0.65474   0.16872   0.85170   0.00000  Uiso   1.00
C1147  C     0.45881   0.02257   0.80794   0.00000  Uiso   1.00
C1148  C     0.54354   0.31094   0.85759   0.00000  Uiso   1.00
C1149  C     0.45691   0.31229   0.80745   0.00000  Uiso   1.00
C1150  C     0.54439   0.02090   0.85935   0.00000  Uiso   1.00
C1151  C     0.49965   0.29066   0.83279   0.00000  Uiso   1.00
C1152  C     0.50198   0.04265   0.83390   0.00000  Uiso   1.00
C1153  C     0.53405   0.19159   0.69511   0.00000  Uiso   1.00
C1154  C     0.46591   0.14179   0.97156   0.00000  Uiso   1.00
C1155  C     0.53405   0.19156   0.98051   0.00000  Uiso   1.00
C1156  C     0.46591   0.14181   0.68617   0.00000  Uiso   1.00
H1157  H     0.65778   0.16589   0.77989   0.00000  Uiso   1.00
H1158  H     0.34221   0.17041   0.88660   0.00000  Uiso   1.00
H1159  H     0.56129   0.21152   0.71682   0.00000  Uiso   1.00
H1160  H     0.43867   0.12187   0.94985   0.00000  Uiso   1.00
H1161  H     0.56133   0.21143   0.96596   0.00000  Uiso   1.00
H1162  H     0.43866   0.12191   0.70074   0.00000  Uiso   1.00
N1163  N     0.49999   0.16666   0.95240   0.00000  Uiso   1.00
N1164  N     0.50001   0.16668   0.71427   0.00000  Uiso   1.00
O1165  O     0.50000   0.10558   0.87154   0.00000  Uiso   1.00
O1166  O     0.50000   0.22775   0.79513   0.00000  Uiso   1.00
O1167  O     0.50000   0.10559   0.79510   0.00000  Uiso   1.00
O1168  O     0.50000   0.22774   0.87157   0.00000  Uiso   1.00
O1169  O     0.42392   0.16666   0.86261   0.00000  Uiso   1.00
O1170  O     0.57608   0.16667   0.80405   0.00000  Uiso   1.00
O1171  O     0.42392   0.16667   0.78617   0.00000  Uiso   1.00
O1172  O     0.57608   0.16666   0.88050   0.00000  Uiso   1.00
Zn1173 Zn    0.50000   0.16666   0.88437   0.00000  Uiso   1.00
Zn1174 Zn    0.50000   0.16667   0.78229   0.00000  Uiso   1.00
N1175  N     0.41699   0.04742   0.78336   0.00000  Uiso   1.00
H1176  H     0.38185   0.04102   0.79555   0.00000  Uiso   1.00
H1177  H     0.41278   0.04054   0.74852   0.00000  Uiso   1.00
N1178  N     0.58832   0.28783   0.87994   0.00000  Uiso   1.00
H1179  H     0.60200   0.26823   0.85608   0.00000  Uiso   1.00
H1180  H     0.57712   0.26973   0.90631   0.00000  Uiso   1.00
C1181  C     0.40917   0.28917   0.78184   0.00000  Uiso   1.00
C1182  C     0.41413   0.28185   0.73129   0.00000  Uiso   1.00
C1183  C     0.36875   0.25512   0.70755   0.00000  Uiso   1.00
H1184  H     0.36888   0.22390   0.72418   0.00000  Uiso   1.00
H1185  H     0.66385   0.27075   0.70905   0.00000  Uiso   1.00
H1186  H     0.37309   0.25067   0.67108   0.00000  Uiso   1.00
H1187  H     0.41402   0.31211   0.71283   0.00000  Uiso   1.00
H1188  H     0.45172   0.26592   0.72834   0.00000  Uiso   1.00
H1189  H     0.40360   0.25871   0.79864   0.00000  Uiso   1.00
H1190  H     0.37231   0.30646   0.78399   0.00000  Uiso   1.00
C1191  C     0.59129   0.04281   0.88757   0.00000  Uiso   1.00
C1192  C     0.63542   0.05079   0.85920   0.00000  Uiso   1.00
C1193  C     0.35161   0.06694   0.88941   0.00000  Uiso   1.00
H1194  H     0.34228   0.09455   0.90937   0.00000  Uiso   1.00
H1195  H     0.36866   0.04206   0.91353   0.00000  Uiso   1.00
H1196  H     0.38142   0.07633   0.86790   0.00000  Uiso   1.00
H1197  H     0.64519   0.02132   0.84251   0.00000  Uiso   1.00
H1198  H     0.62211   0.07423   0.83203   0.00000  Uiso   1.00
H1199  H     0.58012   0.07269   0.90218   0.00000  Uiso   1.00
H1200  H     0.60659   0.02347   0.91805   0.00000  Uiso   1.00
C1201  C     0.83530   0.08683   0.83370   0.00000  Uiso   1.00
C1202  C     0.83287   0.24651   0.83315   0.00000  Uiso   1.00
C1203  C     0.73367   0.16689   0.82130   0.00000  Uiso   1.00
C1204  C     0.93298   0.16730   0.84534   0.00000  Uiso   1.00
C1205  C     0.67856   0.16732   0.81483   0.00000  Uiso   1.00
C1206  C     0.98807   0.16872   0.85170   0.00000  Uiso   1.00
C1207  C     0.79214   0.02257   0.80794   0.00000  Uiso   1.00
C1208  C     0.87687   0.31094   0.85759   0.00000  Uiso   1.00
C1209  C     0.79025   0.31229   0.80745   0.00000  Uiso   1.00
C1210  C     0.87773   0.02090   0.85935   0.00000  Uiso   1.00
C1211  C     0.83299   0.29066   0.83279   0.00000  Uiso   1.00
C1212  C     0.83531   0.04265   0.83390   0.00000  Uiso   1.00
C1213  C     0.86738   0.19159   0.69511   0.00000  Uiso   1.00
C1214  C     0.79924   0.14179   0.97156   0.00000  Uiso   1.00
C1215  C     0.86739   0.19156   0.98051   0.00000  Uiso   1.00
C1216  C     0.79924   0.14181   0.68617   0.00000  Uiso   1.00
H1217  H     0.99111   0.16589   0.77989   0.00000  Uiso   1.00
H1218  H     0.67554   0.17041   0.88660   0.00000  Uiso   1.00
H1219  H     0.89463   0.21152   0.71682   0.00000  Uiso   1.00
H1220  H     0.77201   0.12187   0.94985   0.00000  Uiso   1.00
H1221  H     0.89466   0.21143   0.96596   0.00000  Uiso   1.00
H1222  H     0.77200   0.12191   0.70074   0.00000  Uiso   1.00
N1223  N     0.83332   0.16666   0.95240   0.00000  Uiso   1.00
N1224  N     0.83335   0.16668   0.71427   0.00000  Uiso   1.00
O1225  O     0.83333   0.10558   0.87154   0.00000  Uiso   1.00
O1226  O     0.83334   0.22775   0.79513   0.00000  Uiso   1.00
O1227  O     0.83333   0.10559   0.79510   0.00000  Uiso   1.00
O1228  O     0.83334   0.22774   0.87157   0.00000  Uiso   1.00
O1229  O     0.75725   0.16666   0.86261   0.00000  Uiso   1.00
O1230  O     0.90942   0.16667   0.80405   0.00000  Uiso   1.00
O1231  O     0.75725   0.16667   0.78617   0.00000  Uiso   1.00
O1232  O     0.90942   0.16666   0.88050   0.00000  Uiso   1.00
Zn1233 Zn    0.83333   0.16666   0.88437   0.00000  Uiso   1.00
Zn1234 Zn    0.83333   0.16667   0.78229   0.00000  Uiso   1.00
N1235  N     0.75032   0.04742   0.78336   0.00000  Uiso   1.00
H1236  H     0.71518   0.04102   0.79555   0.00000  Uiso   1.00
H1237  H     0.74612   0.04054   0.74852   0.00000  Uiso   1.00
N1238  N     0.92166   0.28783   0.87994   0.00000  Uiso   1.00
H1239  H     0.93533   0.26823   0.85608   0.00000  Uiso   1.00
H1240  H     0.91045   0.26973   0.90631   0.00000  Uiso   1.00
C1241  C     0.74250   0.28917   0.78184   0.00000  Uiso   1.00
C1242  C     0.74746   0.28185   0.73129   0.00000  Uiso   1.00
C1243  C     0.70209   0.25512   0.70755   0.00000  Uiso   1.00
H1244  H     0.70221   0.22390   0.72418   0.00000  Uiso   1.00
H1245  H     0.99719   0.27075   0.70905   0.00000  Uiso   1.00
H1246  H     0.70643   0.25067   0.67108   0.00000  Uiso   1.00
H1247  H     0.74736   0.31211   0.71283   0.00000  Uiso   1.00
H1248  H     0.78506   0.26592   0.72834   0.00000  Uiso   1.00
H1249  H     0.73693   0.25871   0.79864   0.00000  Uiso   1.00
H1250  H     0.70564   0.30646   0.78399   0.00000  Uiso   1.00
C1251  C     0.92462   0.04281   0.88757   0.00000  Uiso   1.00
C1252  C     0.96875   0.05079   0.85920   0.00000  Uiso   1.00
C1253  C     0.68494   0.06694   0.88941   0.00000  Uiso   1.00
H1254  H     0.67561   0.09455   0.90937   0.00000  Uiso   1.00
H1255  H     0.70199   0.04206   0.91353   0.00000  Uiso   1.00
H1256  H     0.71475   0.07633   0.86790   0.00000  Uiso   1.00
H1257  H     0.97852   0.02132   0.84251   0.00000  Uiso   1.00
H1258  H     0.95544   0.07423   0.83203   0.00000  Uiso   1.00
H1259  H     0.91346   0.07269   0.90218   0.00000  Uiso   1.00
H1260  H     0.93992   0.02347   0.91805   0.00000  Uiso   1.00
C1261  C     0.16863   0.42016   0.83370   0.00000  Uiso   1.00
C1262  C     0.16620   0.57984   0.83315   0.00000  Uiso   1.00
C1263  C     0.06701   0.50022   0.82130   0.00000  Uiso   1.00
C1264  C     0.26631   0.50064   0.84534   0.00000  Uiso   1.00
C1265  C     0.01190   0.50065   0.81483   0.00000  Uiso   1.00
C1266  C     0.32140   0.50205   0.85170   0.00000  Uiso   1.00
C1267  C     0.12547   0.35590   0.80794   0.00000  Uiso   1.00
C1268  C     0.21021   0.64427   0.85759   0.00000  Uiso   1.00
C1269  C     0.12358   0.64562   0.80745   0.00000  Uiso   1.00
C1270  C     0.21106   0.35423   0.85935   0.00000  Uiso   1.00
C1271  C     0.16632   0.62399   0.83279   0.00000  Uiso   1.00
C1272  C     0.16864   0.37598   0.83390   0.00000  Uiso   1.00
C1273  C     0.20071   0.52492   0.69511   0.00000  Uiso   1.00
C1274  C     0.13257   0.47512   0.97156   0.00000  Uiso   1.00
C1275  C     0.20072   0.52489   0.98051   0.00000  Uiso   1.00
C1276  C     0.13258   0.47514   0.68617   0.00000  Uiso   1.00
H1277  H     0.32444   0.49923   0.77989   0.00000  Uiso   1.00
H1278  H     0.00888   0.50374   0.88660   0.00000  Uiso   1.00
H1279  H     0.22796   0.54485   0.71682   0.00000  Uiso   1.00
H1280  H     0.10534   0.45520   0.94985   0.00000  Uiso   1.00
H1281  H     0.22800   0.54477   0.96596   0.00000  Uiso   1.00
H1282  H     0.10533   0.45524   0.70074   0.00000  Uiso   1.00
N1283  N     0.16665   0.49999   0.95240   0.00000  Uiso   1.00
N1284  N     0.16668   0.50001   0.71427   0.00000  Uiso   1.00
O1285  O     0.16666   0.43892   0.87154   0.00000  Uiso   1.00
O1286  O     0.16667   0.56108   0.79513   0.00000  Uiso   1.00
O1287  O     0.16666   0.43893   0.79510   0.00000  Uiso   1.00
O1288  O     0.16667   0.56107   0.87157   0.00000  Uiso   1.00
O1289  O     0.09058   0.50000   0.86261   0.00000  Uiso   1.00
O1290  O     0.24275   0.50000   0.80405   0.00000  Uiso   1.00
O1291  O     0.09058   0.50000   0.78617   0.00000  Uiso   1.00
O1292  O     0.24275   0.50000   0.88050   0.00000  Uiso   1.00
Zn1293 Zn    0.16667   0.49999   0.88437   0.00000  Uiso   1.00
Zn1294 Zn    0.16667   0.50001   0.78229   0.00000  Uiso   1.00
N1295  N     0.08366   0.38075   0.78336   0.00000  Uiso   1.00
H1296  H     0.04852   0.37435   0.79555   0.00000  Uiso   1.00
H1297  H     0.07945   0.37387   0.74852   0.00000  Uiso   1.00
N1298  N     0.25499   0.62116   0.87994   0.00000  Uiso   1.00
H1299  H     0.26867   0.60156   0.85608   0.00000  Uiso   1.00
H1300  H     0.24379   0.60306   0.90631   0.00000  Uiso   1.00
C1301  C     0.07584   0.62250   0.78184   0.00000  Uiso   1.00
C1302  C     0.08080   0.61518   0.73129   0.00000  Uiso   1.00
C1303  C     0.03542   0.58845   0.70755   0.00000  Uiso   1.00
H1304  H     0.03555   0.55723   0.72418   0.00000  Uiso   1.00
H1305  H     0.33052   0.60408   0.70905   0.00000  Uiso   1.00
H1306  H     0.03976   0.58400   0.67108   0.00000  Uiso   1.00
H1307  H     0.08069   0.64545   0.71283   0.00000  Uiso   1.00
H1308  H     0.11839   0.59925   0.72834   0.00000  Uiso   1.00
H1309  H     0.07026   0.59204   0.79864   0.00000  Uiso   1.00
H1310  H     0.03897   0.63979   0.78399   0.00000  Uiso   1.00
C1311  C     0.25796   0.37614   0.88757   0.00000  Uiso   1.00
C1312  C     0.30208   0.38412   0.85920   0.00000  Uiso   1.00
C1313  C     0.01827   0.40028   0.88941   0.00000  Uiso   1.00
H1314  H     0.00894   0.42788   0.90937   0.00000  Uiso   1.00
H1315  H     0.03532   0.37540   0.91353   0.00000  Uiso   1.00
H1316  H     0.04808   0.40967   0.86790   0.00000  Uiso   1.00
H1317  H     0.31186   0.35465   0.84251   0.00000  Uiso   1.00
H1318  H     0.28877   0.40756   0.83203   0.00000  Uiso   1.00
H1319  H     0.24679   0.40603   0.90218   0.00000  Uiso   1.00
H1320  H     0.27326   0.35680   0.91805   0.00000  Uiso   1.00
C1321  C     0.50196   0.42016   0.83370   0.00000  Uiso   1.00
C1322  C     0.49954   0.57984   0.83315   0.00000  Uiso   1.00
C1323  C     0.40034   0.50022   0.82130   0.00000  Uiso   1.00
C1324  C     0.59965   0.50064   0.84534   0.00000  Uiso   1.00
C1325  C     0.34523   0.50065   0.81483   0.00000  Uiso   1.00
C1326  C     0.65474   0.50205   0.85170   0.00000  Uiso   1.00
C1327  C     0.45881   0.35590   0.80794   0.00000  Uiso   1.00
C1328  C     0.54354   0.64427   0.85759   0.00000  Uiso   1.00
C1329  C     0.45691   0.64562   0.80745   0.00000  Uiso   1.00
C1330  C     0.54439   0.35423   0.85935   0.00000  Uiso   1.00
C1331  C     0.49965   0.62399   0.83279   0.00000  Uiso   1.00
C1332  C     0.50198   0.37598   0.83390   0.00000  Uiso   1.00
C1333  C     0.53405   0.52492   0.69511   0.00000  Uiso   1.00
C1334  C     0.46591   0.47512   0.97156   0.00000  Uiso   1.00
C1335  C     0.53405   0.52489   0.98051   0.00000  Uiso   1.00
C1336  C     0.46591   0.47514   0.68617   0.00000  Uiso   1.00
H1337  H     0.65778   0.49923   0.77989   0.00000  Uiso   1.00
H1338  H     0.34221   0.50374   0.88660   0.00000  Uiso   1.00
H1339  H     0.56129   0.54485   0.71682   0.00000  Uiso   1.00
H1340  H     0.43867   0.45520   0.94985   0.00000  Uiso   1.00
H1341  H     0.56133   0.54477   0.96596   0.00000  Uiso   1.00
H1342  H     0.43866   0.45524   0.70074   0.00000  Uiso   1.00
N1343  N     0.49999   0.49999   0.95240   0.00000  Uiso   1.00
N1344  N     0.50001   0.50001   0.71427   0.00000  Uiso   1.00
O1345  O     0.50000   0.43892   0.87154   0.00000  Uiso   1.00
O1346  O     0.50000   0.56108   0.79513   0.00000  Uiso   1.00
O1347  O     0.50000   0.43893   0.79510   0.00000  Uiso   1.00
O1348  O     0.50000   0.56107   0.87157   0.00000  Uiso   1.00
O1349  O     0.42392   0.50000   0.86261   0.00000  Uiso   1.00
O1350  O     0.57608   0.50000   0.80405   0.00000  Uiso   1.00
O1351  O     0.42392   0.50000   0.78617   0.00000  Uiso   1.00
O1352  O     0.57608   0.50000   0.88050   0.00000  Uiso   1.00
Zn1353 Zn    0.50000   0.49999   0.88437   0.00000  Uiso   1.00
Zn1354 Zn    0.50000   0.50001   0.78229   0.00000  Uiso   1.00
N1355  N     0.41699   0.38075   0.78336   0.00000  Uiso   1.00
H1356  H     0.38185   0.37435   0.79555   0.00000  Uiso   1.00
H1357  H     0.41278   0.37387   0.74852   0.00000  Uiso   1.00
N1358  N     0.58832   0.62116   0.87994   0.00000  Uiso   1.00
H1359  H     0.60200   0.60156   0.85608   0.00000  Uiso   1.00
H1360  H     0.57712   0.60306   0.90631   0.00000  Uiso   1.00
C1361  C     0.40917   0.62250   0.78184   0.00000  Uiso   1.00
C1362  C     0.41413   0.61518   0.73129   0.00000  Uiso   1.00
C1363  C     0.36875   0.58845   0.70755   0.00000  Uiso   1.00
H1364  H     0.36888   0.55723   0.72418   0.00000  Uiso   1.00
H1365  H     0.66385   0.60408   0.70905   0.00000  Uiso   1.00
H1366  H     0.37309   0.58400   0.67108   0.00000  Uiso   1.00
H1367  H     0.41402   0.64545   0.71283   0.00000  Uiso   1.00
H1368  H     0.45172   0.59925   0.72834   0.00000  Uiso   1.00
H1369  H     0.40360   0.59204   0.79864   0.00000  Uiso   1.00
H1370  H     0.37231   0.63979   0.78399   0.00000  Uiso   1.00
C1371  C     0.59129   0.37614   0.88757   0.00000  Uiso   1.00
C1372  C     0.63542   0.38412   0.85920   0.00000  Uiso   1.00
C1373  C     0.35161   0.40028   0.88941   0.00000  Uiso   1.00
H1374  H     0.34228   0.42788   0.90937   0.00000  Uiso   1.00
H1375  H     0.36866   0.37540   0.91353   0.00000  Uiso   1.00
H1376  H     0.38142   0.40967   0.86790   0.00000  Uiso   1.00
H1377  H     0.64519   0.35465   0.84251   0.00000  Uiso   1.00
H1378  H     0.62211   0.40756   0.83203   0.00000  Uiso   1.00
H1379  H     0.58012   0.40603   0.90218   0.00000  Uiso   1.00
H1380  H     0.60659   0.35680   0.91805   0.00000  Uiso   1.00
C1381  C     0.83530   0.42016   0.83370   0.00000  Uiso   1.00
C1382  C     0.83287   0.57984   0.83315   0.00000  Uiso   1.00
C1383  C     0.73367   0.50022   0.82130   0.00000  Uiso   1.00
C1384  C     0.93298   0.50064   0.84534   0.00000  Uiso   1.00
C1385  C     0.67856   0.50065   0.81483   0.00000  Uiso   1.00
C1386  C     0.98807   0.50205   0.85170   0.00000  Uiso   1.00
C1387  C     0.79214   0.35590   0.80794   0.00000  Uiso   1.00
C1388  C     0.87687   0.64427   0.85759   0.00000  Uiso   1.00
C1389  C     0.79025   0.64562   0.80745   0.00000  Uiso   1.00
C1390  C     0.87773   0.35423   0.85935   0.00000  Uiso   1.00
C1391  C     0.83299   0.62399   0.83279   0.00000  Uiso   1.00
C1392  C     0.83531   0.37598   0.83390   0.00000  Uiso   1.00
C1393  C     0.86738   0.52492   0.69511   0.00000  Uiso   1.00
C1394  C     0.79924   0.47512   0.97156   0.00000  Uiso   1.00
C1395  C     0.86739   0.52489   0.98051   0.00000  Uiso   1.00
C1396  C     0.79924   0.47514   0.68617   0.00000  Uiso   1.00
H1397  H     0.99111   0.49923   0.77989   0.00000  Uiso   1.00
H1398  H     0.67554   0.50374   0.88660   0.00000  Uiso   1.00
H1399  H     0.89463   0.54485   0.71682   0.00000  Uiso   1.00
H1400  H     0.77201   0.45520   0.94985   0.00000  Uiso   1.00
H1401  H     0.89466   0.54477   0.96596   0.00000  Uiso   1.00
H1402  H     0.77200   0.45524   0.70074   0.00000  Uiso   1.00
N1403  N     0.83332   0.49999   0.95240   0.00000  Uiso   1.00
N1404  N     0.83335   0.50001   0.71427   0.00000  Uiso   1.00
O1405  O     0.83333   0.43892   0.87154   0.00000  Uiso   1.00
O1406  O     0.83334   0.56108   0.79513   0.00000  Uiso   1.00
O1407  O     0.83333   0.43893   0.79510   0.00000  Uiso   1.00
O1408  O     0.83334   0.56107   0.87157   0.00000  Uiso   1.00
O1409  O     0.75725   0.50000   0.86261   0.00000  Uiso   1.00
O1410  O     0.90942   0.50000   0.80405   0.00000  Uiso   1.00
O1411  O     0.75725   0.50000   0.78617   0.00000  Uiso   1.00
O1412  O     0.90942   0.50000   0.88050   0.00000  Uiso   1.00
Zn1413 Zn    0.83333   0.49999   0.88437   0.00000  Uiso   1.00
Zn1414 Zn    0.83333   0.50001   0.78229   0.00000  Uiso   1.00
N1415  N     0.75032   0.38075   0.78336   0.00000  Uiso   1.00
H1416  H     0.71518   0.37435   0.79555   0.00000  Uiso   1.00
H1417  H     0.74612   0.37387   0.74852   0.00000  Uiso   1.00
N1418  N     0.92166   0.62116   0.87994   0.00000  Uiso   1.00
H1419  H     0.93533   0.60156   0.85608   0.00000  Uiso   1.00
H1420  H     0.91045   0.60306   0.90631   0.00000  Uiso   1.00
C1421  C     0.74250   0.62250   0.78184   0.00000  Uiso   1.00
C1422  C     0.74746   0.61518   0.73129   0.00000  Uiso   1.00
C1423  C     0.70209   0.58845   0.70755   0.00000  Uiso   1.00
H1424  H     0.70221   0.55723   0.72418   0.00000  Uiso   1.00
H1425  H     0.99719   0.60408   0.70905   0.00000  Uiso   1.00
H1426  H     0.70643   0.58400   0.67108   0.00000  Uiso   1.00
H1427  H     0.74736   0.64545   0.71283   0.00000  Uiso   1.00
H1428  H     0.78506   0.59925   0.72834   0.00000  Uiso   1.00
H1429  H     0.73693   0.59204   0.79864   0.00000  Uiso   1.00
H1430  H     0.70564   0.63979   0.78399   0.00000  Uiso   1.00
C1431  C     0.92462   0.37614   0.88757   0.00000  Uiso   1.00
C1432  C     0.96875   0.38412   0.85920   0.00000  Uiso   1.00
C1433  C     0.68494   0.40028   0.88941   0.00000  Uiso   1.00
H1434  H     0.67561   0.42788   0.90937   0.00000  Uiso   1.00
H1435  H     0.70199   0.37540   0.91353   0.00000  Uiso   1.00
H1436  H     0.71475   0.40967   0.86790   0.00000  Uiso   1.00
H1437  H     0.97852   0.35465   0.84251   0.00000  Uiso   1.00
H1438  H     0.95544   0.40756   0.83203   0.00000  Uiso   1.00
H1439  H     0.91346   0.40603   0.90218   0.00000  Uiso   1.00
H1440  H     0.93992   0.35680   0.91805   0.00000  Uiso   1.00
C1441  C     0.16863   0.75350   0.83370   0.00000  Uiso   1.00
C1442  C     0.16620   0.91318   0.83315   0.00000  Uiso   1.00
C1443  C     0.06701   0.83355   0.82130   0.00000  Uiso   1.00
C1444  C     0.26631   0.83397   0.84534   0.00000  Uiso   1.00
C1445  C     0.01190   0.83398   0.81483   0.00000  Uiso   1.00
C1446  C     0.32140   0.83539   0.85170   0.00000  Uiso   1.00
C1447  C     0.12547   0.68924   0.80794   0.00000  Uiso   1.00
C1448  C     0.21021   0.97761   0.85759   0.00000  Uiso   1.00
C1449  C     0.12358   0.97895   0.80745   0.00000  Uiso   1.00
C1450  C     0.21106   0.68757   0.85935   0.00000  Uiso   1.00
C1451  C     0.16632   0.95732   0.83279   0.00000  Uiso   1.00
C1452  C     0.16864   0.70931   0.83390   0.00000  Uiso   1.00
C1453  C     0.20071   0.85825   0.69511   0.00000  Uiso   1.00
C1454  C     0.13257   0.80846   0.97156   0.00000  Uiso   1.00
C1455  C     0.20072   0.85822   0.98051   0.00000  Uiso   1.00
C1456  C     0.13258   0.80848   0.68617   0.00000  Uiso   1.00
H1457  H     0.32444   0.83256   0.77989   0.00000  Uiso   1.00
H1458  H     0.00888   0.83708   0.88660   0.00000  Uiso   1.00
H1459  H     0.22796   0.87818   0.71682   0.00000  Uiso   1.00
H1460  H     0.10534   0.78853   0.94985   0.00000  Uiso   1.00
H1461  H     0.22800   0.87810   0.96596   0.00000  Uiso   1.00
H1462  H     0.10533   0.78857   0.70074   0.00000  Uiso   1.00
N1463  N     0.16665   0.83332   0.95240   0.00000  Uiso   1.00
N1464  N     0.16668   0.83334   0.71427   0.00000  Uiso   1.00
O1465  O     0.16666   0.77225   0.87154   0.00000  Uiso   1.00
O1466  O     0.16667   0.89442   0.79513   0.00000  Uiso   1.00
O1467  O     0.16666   0.77226   0.79510   0.00000  Uiso   1.00
O1468  O     0.16667   0.89441   0.87157   0.00000  Uiso   1.00
O1469  O     0.09058   0.83333   0.86261   0.00000  Uiso   1.00
O1470  O     0.24275   0.83334   0.80405   0.00000  Uiso   1.00
O1471  O     0.09058   0.83334   0.78617   0.00000  Uiso   1.00
O1472  O     0.24275   0.83333   0.88050   0.00000  Uiso   1.00
Zn1473 Zn    0.16667   0.83333   0.88437   0.00000  Uiso   1.00
Zn1474 Zn    0.16667   0.83334   0.78229   0.00000  Uiso   1.00
N1475  N     0.08366   0.71408   0.78336   0.00000  Uiso   1.00
H1476  H     0.04852   0.70768   0.79555   0.00000  Uiso   1.00
H1477  H     0.07945   0.70721   0.74852   0.00000  Uiso   1.00
N1478  N     0.25499   0.95449   0.87994   0.00000  Uiso   1.00
H1479  H     0.26867   0.93489   0.85608   0.00000  Uiso   1.00
H1480  H     0.24379   0.93640   0.90631   0.00000  Uiso   1.00
C1481  C     0.07584   0.95584   0.78184   0.00000  Uiso   1.00
C1482  C     0.08080   0.94852   0.73129   0.00000  Uiso   1.00
C1483  C     0.03542   0.92179   0.70755   0.00000  Uiso   1.00
H1484  H     0.03555   0.89056   0.72418   0.00000  Uiso   1.00
H1485  H     0.33052   0.93741   0.70905   0.00000  Uiso   1.00
H1486  H     0.03976   0.91733   0.67108   0.00000  Uiso   1.00
H1487  H     0.08069   0.97878   0.71283   0.00000  Uiso   1.00
H1488  H     0.11839   0.93258   0.72834   0.00000  Uiso   1.00
H1489  H     0.07026   0.92537   0.79864   0.00000  Uiso   1.00
H1490  H     0.03897   0.97312   0.78399   0.00000  Uiso   1.00
C1491  C     0.25796   0.70948   0.88757   0.00000  Uiso   1.00
C1492  C     0.30208   0.71746   0.85920   0.00000  Uiso   1.00
C1493  C     0.01827   0.73361   0.88941   0.00000  Uiso   1.00
H1494  H     0.00894   0.76121   0.90937   0.00000  Uiso   1.00
H1495  H     0.03532   0.70873   0.91353   0.00000  Uiso   1.00
H1496  H     0.04808   0.74300   0.86790   0.00000  Uiso   1.00
H1497  H     0.31186   0.68799   0.84251   0.00000  Uiso   1.00
H1498  H     0.28877   0.74090   0.83203   0.00000  Uiso   1.00
H1499  H     0.24679   0.73936   0.90218   0.00000  Uiso   1.00
H1500  H     0.27326   0.69014   0.91805   0.00000  Uiso   1.00
C1501  C     0.50196   0.75350   0.83370   0.00000  Uiso   1.00
C1502  C     0.49954   0.91318   0.83315   0.00000  Uiso   1.00
C1503  C     0.40034   0.83355   0.82130   0.00000  Uiso   1.00
C1504  C     0.59965   0.83397   0.84534   0.00000  Uiso   1.00
C1505  C     0.34523   0.83398   0.81483   0.00000  Uiso   1.00
C1506  C     0.65474   0.83539   0.85170   0.00000  Uiso   1.00
C1507  C     0.45881   0.68924   0.80794   0.00000  Uiso   1.00
C1508  C     0.54354   0.97761   0.85759   0.00000  Uiso   1.00
C1509  C     0.45691   0.97895   0.80745   0.00000  Uiso   1.00
C1510  C     0.54439   0.68757   0.85935   0.00000  Uiso   1.00
C1511  C     0.49965   0.95732   0.83279   0.00000  Uiso   1.00
C1512  C     0.50198   0.70931   0.83390   0.00000  Uiso   1.00
C1513  C     0.53405   0.85825   0.69511   0.00000  Uiso   1.00
C1514  C     0.46591   0.80846   0.97156   0.00000  Uiso   1.00
C1515  C     0.53405   0.85822   0.98051   0.00000  Uiso   1.00
C1516  C     0.46591   0.80848   0.68617   0.00000  Uiso   1.00
H1517  H     0.65778   0.83256   0.77989   0.00000  Uiso   1.00
H1518  H     0.34221   0.83708   0.88660   0.00000  Uiso   1.00
H1519  H     0.56129   0.87818   0.71682   0.00000  Uiso   1.00
H1520  H     0.43867   0.78853   0.94985   0.00000  Uiso   1.00
H1521  H     0.56133   0.87810   0.96596   0.00000  Uiso   1.00
H1522  H     0.43866   0.78857   0.70074   0.00000  Uiso   1.00
N1523  N     0.49999   0.83332   0.95240   0.00000  Uiso   1.00
N1524  N     0.50001   0.83334   0.71427   0.00000  Uiso   1.00
O1525  O     0.50000   0.77225   0.87154   0.00000  Uiso   1.00
O1526  O     0.50000   0.89442   0.79513   0.00000  Uiso   1.00
O1527  O     0.50000   0.77226   0.79510   0.00000  Uiso   1.00
O1528  O     0.50000   0.89441   0.87157   0.00000  Uiso   1.00
O1529  O     0.42392   0.83333   0.86261   0.00000  Uiso   1.00
O1530  O     0.57608   0.83334   0.80405   0.00000  Uiso   1.00
O1531  O     0.42392   0.83334   0.78617   0.00000  Uiso   1.00
O1532  O     0.57608   0.83333   0.88050   0.00000  Uiso   1.00
Zn1533 Zn    0.50000   0.83333   0.88437   0.00000  Uiso   1.00
Zn1534 Zn    0.50000   0.83334   0.78229   0.00000  Uiso   1.00
N1535  N     0.41699   0.71408   0.78336   0.00000  Uiso   1.00
H1536  H     0.38185   0.70768   0.79555   0.00000  Uiso   1.00
H1537  H     0.41278   0.70721   0.74852   0.00000  Uiso   1.00
N1538  N     0.58832   0.95449   0.87994   0.00000  Uiso   1.00
H1539  H     0.60200   0.93489   0.85608   0.00000  Uiso   1.00
H1540  H     0.57712   0.93640   0.90631   0.00000  Uiso   1.00
C1541  C     0.40917   0.95584   0.78184   0.00000  Uiso   1.00
C1542  C     0.41413   0.94852   0.73129   0.00000  Uiso   1.00
C1543  C     0.36875   0.92179   0.70755   0.00000  Uiso   1.00
H1544  H     0.36888   0.89056   0.72418   0.00000  Uiso   1.00
H1545  H     0.66385   0.93741   0.70905   0.00000  Uiso   1.00
H1546  H     0.37309   0.91733   0.67108   0.00000  Uiso   1.00
H1547  H     0.41402   0.97878   0.71283   0.00000  Uiso   1.00
H1548  H     0.45172   0.93258   0.72834   0.00000  Uiso   1.00
H1549  H     0.40360   0.92537   0.79864   0.00000  Uiso   1.00
H1550  H     0.37231   0.97312   0.78399   0.00000  Uiso   1.00
C1551  C     0.59129   0.70948   0.88757   0.00000  Uiso   1.00
C1552  C     0.63542   0.71746   0.85920   0.00000  Uiso   1.00
C1553  C     0.35161   0.73361   0.88941   0.00000  Uiso   1.00
H1554  H     0.34228   0.76121   0.90937   0.00000  Uiso   1.00
H1555  H     0.36866   0.70873   0.91353   0.00000  Uiso   1.00
H1556  H     0.38142   0.74300   0.86790   0.00000  Uiso   1.00
H1557  H     0.64519   0.68799   0.84251   0.00000  Uiso   1.00
H1558  H     0.62211   0.74090   0.83203   0.00000  Uiso   1.00
H1559  H     0.58012   0.73936   0.90218   0.00000  Uiso   1.00
H1560  H     0.60659   0.69014   0.91805   0.00000  Uiso   1.00
C1561  C     0.83530   0.75350   0.83370   0.00000  Uiso   1.00
C1562  C     0.83287   0.91318   0.83315   0.00000  Uiso   1.00
C1563  C     0.73367   0.83355   0.82130   0.00000  Uiso   1.00
C1564  C     0.93298   0.83397   0.84534   0.00000  Uiso   1.00
C1565  C     0.67856   0.83398   0.81483   0.00000  Uiso   1.00
C1566  C     0.98807   0.83539   0.85170   0.00000  Uiso   1.00
C1567  C     0.79214   0.68924   0.80794   0.00000  Uiso   1.00
C1568  C     0.87687   0.97761   0.85759   0.00000  Uiso   1.00
C1569  C     0.79025   0.97895   0.80745   0.00000  Uiso   1.00
C1570  C     0.87773   0.68757   0.85935   0.00000  Uiso   1.00
C1571  C     0.83299   0.95732   0.83279   0.00000  Uiso   1.00
C1572  C     0.83531   0.70931   0.83390   0.00000  Uiso   1.00
C1573  C     0.86738   0.85825   0.69511   0.00000  Uiso   1.00
C1574  C     0.79924   0.80846   0.97156   0.00000  Uiso   1.00
C1575  C     0.86739   0.85822   0.98051   0.00000  Uiso   1.00
C1576  C     0.79924   0.80848   0.68617   0.00000  Uiso   1.00
H1577  H     0.99111   0.83256   0.77989   0.00000  Uiso   1.00
H1578  H     0.67554   0.83708   0.88660   0.00000  Uiso   1.00
H1579  H     0.89463   0.87818   0.71682   0.00000  Uiso   1.00
H1580  H     0.77201   0.78853   0.94985   0.00000  Uiso   1.00
H1581  H     0.89466   0.87810   0.96596   0.00000  Uiso   1.00
H1582  H     0.77200   0.78857   0.70074   0.00000  Uiso   1.00
N1583  N     0.83332   0.83332   0.95240   0.00000  Uiso   1.00
N1584  N     0.83335   0.83334   0.71427   0.00000  Uiso   1.00
O1585  O     0.83333   0.77225   0.87154   0.00000  Uiso   1.00
O1586  O     0.83334   0.89442   0.79513   0.00000  Uiso   1.00
O1587  O     0.83333   0.77226   0.79510   0.00000  Uiso   1.00
O1588  O     0.83334   0.89441   0.87157   0.00000  Uiso   1.00
O1589  O     0.75725   0.83333   0.86261   0.00000  Uiso   1.00
O1590  O     0.90942   0.83334   0.80405   0.00000  Uiso   1.00
O1591  O     0.75725   0.83334   0.78617   0.00000  Uiso   1.00
O1592  O     0.90942   0.83333   0.88050   0.00000  Uiso   1.00
Zn1593 Zn    0.83333   0.83333   0.88437   0.00000  Uiso   1.00
Zn1594 Zn    0.83333   0.83334   0.78229   0.00000  Uiso   1.00
N1595  N     0.75032   0.71408   0.78336   0.00000  Uiso   1.00
H1596  H     0.71518   0.70768   0.79555   0.00000  Uiso   1.00
H1597  H     0.74612   0.70721   0.74852   0.00000  Uiso   1.00
N1598  N     0.92166   0.95449   0.87994   0.00000  Uiso   1.00
H1599  H     0.93533   0.93489   0.85608   0.00000  Uiso   1.00
H1600  H     0.91045   0.93640   0.90631   0.00000  Uiso   1.00
C1601  C     0.74250   0.95584   0.78184   0.00000  Uiso   1.00
C1602  C     0.74746   0.94852   0.73129   0.00000  Uiso   1.00
C1603  C     0.70209   0.92179   0.70755   0.00000  Uiso   1.00
H1604  H     0.70221   0.89056   0.72418   0.00000  Uiso   1.00
H1605  H     0.99719   0.93741   0.70905   0.00000  Uiso   1.00
H1606  H     0.70643   0.91733   0.67108   0.00000  Uiso   1.00
H1607  H     0.74736   0.97878   0.71283   0.00000  Uiso   1.00
H1608  H     0.78506   0.93258   0.72834   0.00000  Uiso   1.00
H1609  H     0.73693   0.92537   0.79864   0.00000  Uiso   1.00
H1610  H     0.70564   0.97312   0.78399   0.00000  Uiso   1.00
C1611  C     0.92462   0.70948   0.88757   0.00000  Uiso   1.00
C1612  C     0.96875   0.71746   0.85920   0.00000  Uiso   1.00
C1613  C     0.68494   0.73361   0.88941   0.00000  Uiso   1.00
H1614  H     0.67561   0.76121   0.90937   0.00000  Uiso   1.00
H1615  H     0.70199   0.70873   0.91353   0.00000  Uiso   1.00
H1616  H     0.71475   0.74300   0.86790   0.00000  Uiso   1.00
H1617  H     0.97852   0.68799   0.84251   0.00000  Uiso   1.00
H1618  H     0.95544   0.74090   0.83203   0.00000  Uiso   1.00
H1619  H     0.91346   0.73936   0.90218   0.00000  Uiso   1.00
H1620  H     0.93992   0.69014   0.91805   0.00000  Uiso   1.00
loop_
_geom_bond_atom_site_label_1
_geom_bond_atom_site_label_2
_geom_bond_distance
_geom_bond_site_symmetry_2
_ccdc_geom_bond_type
C1     O25     1.279   .     A
C1     C12     1.412   .     S
C1     O27     1.281   .     A
C2     C11     1.411   .     S
C2     O26     1.277   .     A
C2     O28     1.281   .     A
C3     O31     1.281   .     A
C3     O29     1.277   .     A
C3     C5      1.401   .     S
C4     O32     1.281   .     A
C4     C6      1.401   .     S
C4     O30     1.276   .     A
C5     C126    1.331   1_455 S
C5     H137    1.088   1_455 S
C6     C65     1.331   .     S
C6     H78     1.088   .     S
C7     C12     1.404   .     A
C7     N35     1.440   .     S
C7     C369    1.394   1_545 S
C8     N38     1.440   .     S
C8     C11     1.406   .     A
C8     C190    1.385   .     S
C9     C41     1.530   .     S
C9     C11     1.412   .     A
C9     C187    1.394   .     S
C10    C51     1.527   .     S
C10    C12     1.409   .     A
C10    C368    1.385   1_545 S
C13    H19     1.082   .     S
C13    N24     1.367   .     A
C13    C1095   1.417   1_554 S
C14    N23     1.367   .     A
C14    H20     1.082   .     S
C14    C556    1.417   .     S
C15    N23     1.367   .     A
C15    H21     1.082   .     S
C15    C553    1.417   .     S
C16    N24     1.367   .     A
C16    H22     1.082   .     S
C16    C1094   1.417   1_554 S
H17    C65     1.088   .     S
H18    C126    1.088   1_455 S
N23    Zn33    2.011   .     S
N24    Zn34    2.011   .     S
O25    Zn33    1.989   .     S
O26    Zn34    1.989   .     S
O27    Zn34    1.987   .     S
O28    Zn33    1.987   .     S
O29    Zn33    1.963   .     S
O30    Zn34    1.963   .     S
O31    Zn34    1.978   .     S
O32    Zn33    1.978   .     S
N35    H36     1.043   .     S
N35    H37     1.043   .     S
N38    H40     1.044   .     S
N38    H39     1.046   .     S
C41    C42     1.538   .     S
C41    H49     1.110   .     S
C41    H50     1.109   .     S
C42    H48     1.109   .     S
C42    H47     1.108   .     S
C42    C43     1.527   .     S
C43    H44     1.110   .     S
C43    H46     1.111   .     S
C43    H165    1.111   1_455 S
H45    C103    1.111   .     S
C51    C52     1.532   .     S
C51    H59     1.106   .     S
C51    H60     1.112   .     S
C52    H58     1.111   .     S
C52    H57     1.112   .     S
C52    C113    1.528   .     S
C53    H54     1.110   .     S
C53    H55     1.111   .     S
C53    H56     1.109   .     S
C53    C172    1.528   1_455 S
C61    O85     1.279   .     A
C61    C72     1.412   .     S
C61    O87     1.281   .     A
C62    C71     1.411   .     S
C62    O86     1.277   .     A
C62    O88     1.281   .     A
C63    O91     1.281   .     A
C63    O89     1.277   .     A
C63    C65     1.401   .     S
C64    O92     1.281   .     A
C64    C66     1.401   .     S
C64    O90     1.276   .     A
C66    C125    1.331   .     S
C66    H138    1.088   .     S
C67    C72     1.404   .     A
C67    N95     1.440   .     S
C67    C429    1.394   1_545 S
C68    N98     1.440   .     S
C68    C71     1.406   .     A
C68    C250    1.385   .     S
C69    C101    1.530   .     S
C69    C71     1.412   .     A
C69    C247    1.394   .     S
C70    C111    1.527   .     S
C70    C72     1.409   .     A
C70    C428    1.385   1_545 S
C73    H79     1.082   .     S
C73    N84     1.367   .     A
C73    C1155   1.417   1_554 S
C74    N83     1.367   .     A
C74    H80     1.082   .     S
C74    C616    1.417   .     S
C75    N83     1.367   .     A
C75    H81     1.082   .     S
C75    C613    1.417   .     S
C76    N84     1.367   .     A
C76    H82     1.082   .     S
C76    C1154   1.417   1_554 S
H77    C125    1.088   .     S
N83    Zn93    2.011   .     S
N84    Zn94    2.011   .     S
O85    Zn93    1.989   .     S
O86    Zn94    1.989   .     S
O87    Zn94    1.987   .     S
O88    Zn93    1.987   .     S
O89    Zn93    1.963   .     S
O90    Zn94    1.963   .     S
O91    Zn94    1.978   .     S
O92    Zn93    1.978   .     S
N95    H96     1.043   .     S
N95    H97     1.043   .     S
N98    H100    1.044   .     S
N98    H99     1.046   .     S
C101   C102    1.538   .     S
C101   H109    1.110   .     S
C101   H110    1.109   .     S
C102   H108    1.109   .     S
C102   H107    1.108   .     S
C102   C103    1.527   .     S
C103   H104    1.110   .     S
C103   H106    1.111   .     S
H105   C163    1.111   .     S
C111   C112    1.532   .     S
C111   H119    1.106   .     S
C111   H120    1.112   .     S
C112   H118    1.111   .     S
C112   H117    1.112   .     S
C112   C173    1.528   .     S
C113   H114    1.110   .     S
C113   H115    1.111   .     S
C113   H116    1.109   .     S
C121   O145    1.279   .     A
C121   C132    1.412   .     S
C121   O147    1.281   .     A
C122   C131    1.411   .     S
C122   O146    1.277   .     A
C122   O148    1.281   .     A
C123   O151    1.281   .     A
C123   O149    1.277   .     A
C123   C125    1.401   .     S
C124   O152    1.281   .     A
C124   C126    1.401   .     S
C124   O150    1.276   .     A
C126   C5      1.331   1_655 S
C126   H18     1.088   1_655 S
C127   C132    1.404   .     A
C127   N155    1.440   .     S
C127   C489    1.394   1_545 S
C128   N158    1.440   .     S
C128   C131    1.406   .     A
C128   C310    1.385   .     S
C129   C161    1.530   .     S
C129   C131    1.412   .     A
C129   C307    1.394   .     S
C130   C171    1.527   .     S
C130   C132    1.409   .     A
C130   C488    1.385   1_545 S
C133   H139    1.082   .     S
C133   N144    1.367   .     A
C133   C1215   1.417   1_554 S
C134   N143    1.367   .     A
C134   H140    1.082   .     S
C134   C676    1.417   .     S
C135   N143    1.367   .     A
C135   H141    1.082   .     S
C135   C673    1.417   .     S
C136   N144    1.367   .     A
C136   H142    1.082   .     S
C136   C1214   1.417   1_554 S
H137   C5      1.088   1_655 S
N143   Zn153   2.011   .     S
N144   Zn154   2.011   .     S
O145   Zn153   1.989   .     S
O146   Zn154   1.989   .     S
O147   Zn154   1.987   .     S
O148   Zn153   1.987   .     S
O149   Zn153   1.963   .     S
O150   Zn154   1.963   .     S
O151   Zn154   1.978   .     S
O152   Zn153   1.978   .     S
N155   H156    1.043   .     S
N155   H157    1.043   .     S
N158   H160    1.044   .     S
N158   H159    1.046   .     S
C161   C162    1.538   .     S
C161   H169    1.110   .     S
C161   H170    1.109   .     S
C162   H168    1.109   .     S
C162   H167    1.108   .     S
C162   C163    1.527   .     S
C163   H164    1.110   .     S
C163   H166    1.111   .     S
H165   C43     1.111   1_655 S
C171   C172    1.532   .     S
C171   H179    1.106   .     S
C171   H180    1.112   .     S
C172   H178    1.111   .     S
C172   H177    1.112   .     S
C172   C53     1.528   1_655 S
C173   H174    1.110   .     S
C173   H175    1.111   .     S
C173   H176    1.109   .     S
C181   O205    1.279   .     A
C181   C192    1.412   .     S
C181   O207    1.281   .     A
C182   C191    1.411   .     S
C182   O206    1.277   .     A
C182   O208    1.281   .     A
C183   O211    1.281   .     A
C183   O209    1.277   .     A
C183   C185    1.401   .     S
C184   O212    1.281   .     A
C184   C186    1.401   .     S
C184   O210    1.276   .     A
C185   C306    1.331   1_455 S
C185   H317    1.088   1_455 S
C186   C245    1.331   .     S
C186   H258    1.088   .     S
C187   C192    1.404   .     A
C187   N215    1.440   .     S
C188   N218    1.440   .     S
C188   C191    1.406   .     A
C188   C370    1.385   .     S
C189   C221    1.530   .     S
C189   C191    1.412   .     A
C189   C367    1.394   .     S
C190   C231    1.527   .     S
C190   C192    1.409   .     A
C193   H199    1.082   .     S
C193   N204    1.367   .     A
C193   C1275   1.417   1_554 S
C194   N203    1.367   .     A
C194   H200    1.082   .     S
C194   C736    1.417   .     S
C195   N203    1.367   .     A
C195   H201    1.082   .     S
C195   C733    1.417   .     S
C196   N204    1.367   .     A
C196   H202    1.082   .     S
C196   C1274   1.417   1_554 S
H197   C245    1.088   .     S
H198   C306    1.088   1_455 S
N203   Zn213   2.011   .     S
N204   Zn214   2.011   .     S
O205   Zn213   1.989   .     S
O206   Zn214   1.989   .     S
O207   Zn214   1.987   .     S
O208   Zn213   1.987   .     S
O209   Zn213   1.963   .     S
O210   Zn214   1.963   .     S
O211   Zn214   1.978   .     S
O212   Zn213   1.978   .     S
N215   H216    1.043   .     S
N215   H217    1.043   .     S
N218   H220    1.044   .     S
N218   H219    1.046   .     S
C221   C222    1.538   .     S
C221   H229    1.110   .     S
C221   H230    1.109   .     S
C222   H228    1.109   .     S
C222   H227    1.108   .     S
C222   C223    1.527   .     S
C223   H224    1.110   .     S
C223   H226    1.111   .     S
C223   H345    1.111   1_455 S
H225   C283    1.111   .     S
C231   C232    1.532   .     S
C231   H239    1.106   .     S
C231   H240    1.112   .     S
C232   H238    1.111   .     S
C232   H237    1.112   .     S
C232   C293    1.528   .     S
C233   H234    1.110   .     S
C233   H235    1.111   .     S
C233   H236    1.109   .     S
C233   C352    1.528   1_455 S
C241   O265    1.279   .     A
C241   C252    1.412   .     S
C241   O267    1.281   .     A
C242   C251    1.411   .     S
C242   O266    1.277   .     A
C242   O268    1.281   .     A
C243   O271    1.281   .     A
C243   O269    1.277   .     A
C243   C245    1.401   .     S
C244   O272    1.281   .     A
C244   C246    1.401   .     S
C244   O270    1.276   .     A
C246   C305    1.331   .     S
C246   H318    1.088   .     S
C247   C252    1.404   .     A
C247   N275    1.440   .     S
C248   N278    1.440   .     S
C248   C251    1.406   .     A
C248   C430    1.385   .     S
C249   C281    1.530   .     S
C249   C251    1.412   .     A
C249   C427    1.394   .     S
C250   C291    1.527   .     S
C250   C252    1.409   .     A
C253   H259    1.082   .     S
C253   N264    1.367   .     A
C253   C1335   1.417   1_554 S
C254   N263    1.367   .     A
C254   H260    1.082   .     S
C254   C796    1.417   .     S
C255   N263    1.367   .     A
C255   H261    1.082   .     S
C255   C793    1.417   .     S
C256   N264    1.367   .     A
C256   H262    1.082   .     S
C256   C1334   1.417   1_554 S
H257   C305    1.088   .     S
N263   Zn273   2.011   .     S
N264   Zn274   2.011   .     S
O265   Zn273   1.989   .     S
O266   Zn274   1.989   .     S
O267   Zn274   1.987   .     S
O268   Zn273   1.987   .     S
O269   Zn273   1.963   .     S
O270   Zn274   1.963   .     S
O271   Zn274   1.978   .     S
O272   Zn273   1.978   .     S
N275   H276    1.043   .     S
N275   H277    1.043   .     S
N278   H280    1.044   .     S
N278   H279    1.046   .     S
C281   C282    1.538   .     S
C281   H289    1.110   .     S
C281   H290    1.109   .     S
C282   H288    1.109   .     S
C282   H287    1.108   .     S
C282   C283    1.527   .     S
C283   H284    1.110   .     S
C283   H286    1.111   .     S
H285   C343    1.111   .     S
C291   C292    1.532   .     S
C291   H299    1.106   .     S
C291   H300    1.112   .     S
C292   H298    1.111   .     S
C292   H297    1.112   .     S
C292   C353    1.528   .     S
C293   H294    1.110   .     S
C293   H295    1.111   .     S
C293   H296    1.109   .     S
C301   O325    1.279   .     A
C301   C312    1.412   .     S
C301   O327    1.281   .     A
C302   C311    1.411   .     S
C302   O326    1.277   .     A
C302   O328    1.281   .     A
C303   O331    1.281   .     A
C303   O329    1.277   .     A
C303   C305    1.401   .     S
C304   O332    1.281   .     A
C304   C306    1.401   .     S
C304   O330    1.276   .     A
C306   C185    1.331   1_655 S
C306   H198    1.088   1_655 S
C307   C312    1.404   .     A
C307   N335    1.440   .     S
C308   N338    1.440   .     S
C308   C311    1.406   .     A
C308   C490    1.385   .     S
C309   C341    1.530   .     S
C309   C311    1.412   .     A
C309   C487    1.394   .     S
C310   C351    1.527   .     S
C310   C312    1.409   .     A
C313   H319    1.082   .     S
C313   N324    1.367   .     A
C313   C1395   1.417   1_554 S
C314   N323    1.367   .     A
C314   H320    1.082   .     S
C314   C856    1.417   .     S
C315   N323    1.367   .     A
C315   H321    1.082   .     S
C315   C853    1.417   .     S
C316   N324    1.367   .     A
C316   H322    1.082   .     S
C316   C1394   1.417   1_554 S
H317   C185    1.088   1_655 S
N323   Zn333   2.011   .     S
N324   Zn334   2.011   .     S
O325   Zn333   1.989   .     S
O326   Zn334   1.989   .     S
O327   Zn334   1.987   .     S
O328   Zn333   1.987   .     S
O329   Zn333   1.963   .     S
O330   Zn334   1.963   .     S
O331   Zn334   1.978   .     S
O332   Zn333   1.978   .     S
N335   H336    1.043   .     S
N335   H337    1.043   .     S
N338   H340    1.044   .     S
N338   H339    1.046   .     S
C341   C342    1.538   .     S
C341   H349    1.110   .     S
C341   H350    1.109   .     S
C342   H348    1.109   .     S
C342   H347    1.108   .     S
C342   C343    1.527   .     S
C343   H344    1.110   .     S
C343   H346    1.111   .     S
H345   C223    1.111   1_655 S
C351   C352    1.532   .     S
C351   H359    1.106   .     S
C351   H360    1.112   .     S
C352   H358    1.111   .     S
C352   H357    1.112   .     S
C352   C233    1.528   1_655 S
C353   H354    1.110   .     S
C353   H355    1.111   .     S
C353   H356    1.109   .     S
C361   O385    1.279   .     A
C361   C372    1.412   .     S
C361   O387    1.281   .     A
C362   C371    1.411   .     S
C362   O386    1.277   .     A
C362   O388    1.281   .     A
C363   O391    1.281   .     A
C363   O389    1.277   .     A
C363   C365    1.401   .     S
C364   O392    1.281   .     A
C364   C366    1.401   .     S
C364   O390    1.276   .     A
C365   C486    1.331   1_455 S
C365   H497    1.088   1_455 S
C366   C425    1.331   .     S
C366   H438    1.088   .     S
C367   C372    1.404   .     A
C367   N395    1.440   .     S
C368   N398    1.440   .     S
C368   C371    1.406   .     A
C368   C10     1.385   1_565 S
C369   C401    1.530   .     S
C369   C371    1.412   .     A
C369   C7      1.394   1_565 S
C370   C411    1.527   .     S
C370   C372    1.409   .     A
C373   H379    1.082   .     S
C373   N384    1.367   .     A
C373   C1455   1.417   1_554 S
C374   N383    1.367   .     A
C374   H380    1.082   .     S
C374   C916    1.417   .     S
C375   N383    1.367   .     A
C375   H381    1.082   .     S
C375   C913    1.417   .     S
C376   N384    1.367   .     A
C376   H382    1.082   .     S
C376   C1454   1.417   1_554 S
H377   C425    1.088   .     S
H378   C486    1.088   1_455 S
N383   Zn393   2.011   .     S
N384   Zn394   2.011   .     S
O385   Zn393   1.989   .     S
O386   Zn394   1.989   .     S
O387   Zn394   1.987   .     S
O388   Zn393   1.987   .     S
O389   Zn393   1.963   .     S
O390   Zn394   1.963   .     S
O391   Zn394   1.978   .     S
O392   Zn393   1.978   .     S
N395   H396    1.043   .     S
N395   H397    1.043   .     S
N398   H400    1.044   .     S
N398   H399    1.046   .     S
C401   C402    1.538   .     S
C401   H409    1.110   .     S
C401   H410    1.109   .     S
C402   H408    1.109   .     S
C402   H407    1.108   .     S
C402   C403    1.527   .     S
C403   H404    1.110   .     S
C403   H406    1.111   .     S
C403   H525    1.111   1_455 S
H405   C463    1.111   .     S
C411   C412    1.532   .     S
C411   H419    1.106   .     S
C411   H420    1.112   .     S
C412   H418    1.111   .     S
C412   H417    1.112   .     S
C412   C473    1.528   .     S
C413   H414    1.110   .     S
C413   H415    1.111   .     S
C413   H416    1.109   .     S
C413   C532    1.528   1_455 S
C421   O445    1.279   .     A
C421   C432    1.412   .     S
C421   O447    1.281   .     A
C422   C431    1.411   .     S
C422   O446    1.277   .     A
C422   O448    1.281   .     A
C423   O451    1.281   .     A
C423   O449    1.277   .     A
C423   C425    1.401   .     S
C424   O452    1.281   .     A
C424   C426    1.401   .     S
C424   O450    1.276   .     A
C426   C485    1.331   .     S
C426   H498    1.088   .     S
C427   C432    1.404   .     A
C427   N455    1.440   .     S
C428   N458    1.440   .     S
C428   C431    1.406   .     A
C428   C70     1.385   1_565 S
C429   C461    1.530   .     S
C429   C431    1.412   .     A
C429   C67     1.394   1_565 S
C430   C471    1.527   .     S
C430   C432    1.409   .     A
C433   H439    1.082   .     S
C433   N444    1.367   .     A
C433   C1515   1.417   1_554 S
C434   N443    1.367   .     A
C434   H440    1.082   .     S
C434   C976    1.417   .     S
C435   N443    1.367   .     A
C435   H441    1.082   .     S
C435   C973    1.417   .     S
C436   N444    1.367   .     A
C436   H442    1.082   .     S
C436   C1514   1.417   1_554 S
H437   C485    1.088   .     S
N443   Zn453   2.011   .     S
N444   Zn454   2.011   .     S
O445   Zn453   1.989   .     S
O446   Zn454   1.989   .     S
O447   Zn454   1.987   .     S
O448   Zn453   1.987   .     S
O449   Zn453   1.963   .     S
O450   Zn454   1.963   .     S
O451   Zn454   1.978   .     S
O452   Zn453   1.978   .     S
N455   H456    1.043   .     S
N455   H457    1.043   .     S
N458   H460    1.044   .     S
N458   H459    1.046   .     S
C461   C462    1.538   .     S
C461   H469    1.110   .     S
C461   H470    1.109   .     S
C462   H468    1.109   .     S
C462   H467    1.108   .     S
C462   C463    1.527   .     S
C463   H464    1.110   .     S
C463   H466    1.111   .     S
H465   C523    1.111   .     S
C471   C472    1.532   .     S
C471   H479    1.106   .     S
C471   H480    1.112   .     S
C472   H478    1.111   .     S
C472   H477    1.112   .     S
C472   C533    1.528   .     S
C473   H474    1.110   .     S
C473   H475    1.111   .     S
C473   H476    1.109   .     S
C481   O505    1.279   .     A
C481   C492    1.412   .     S
C481   O507    1.281   .     A
C482   C491    1.411   .     S
C482   O506    1.277   .     A
C482   O508    1.281   .     A
C483   O511    1.281   .     A
C483   O509    1.277   .     A
C483   C485    1.401   .     S
C484   O512    1.281   .     A
C484   C486    1.401   .     S
C484   O510    1.276   .     A
C486   C365    1.331   1_655 S
C486   H378    1.088   1_655 S
C487   C492    1.404   .     A
C487   N515    1.440   .     S
C488   N518    1.440   .     S
C488   C491    1.406   .     A
C488   C130    1.385   1_565 S
C489   C521    1.530   .     S
C489   C491    1.412   .     A
C489   C127    1.394   1_565 S
C490   C531    1.527   .     S
C490   C492    1.409   .     A
C493   H499    1.082   .     S
C493   N504    1.367   .     A
C493   C1575   1.417   1_554 S
C494   N503    1.367   .     A
C494   H500    1.082   .     S
C494   C1036   1.417   .     S
C495   N503    1.367   .     A
C495   H501    1.082   .     S
C495   C1033   1.417   .     S
C496   N504    1.367   .     A
C496   H502    1.082   .     S
C496   C1574   1.417   1_554 S
H497   C365    1.088   1_655 S
N503   Zn513   2.011   .     S
N504   Zn514   2.011   .     S
O505   Zn513   1.989   .     S
O506   Zn514   1.989   .     S
O507   Zn514   1.987   .     S
O508   Zn513   1.987   .     S
O509   Zn513   1.963   .     S
O510   Zn514   1.963   .     S
O511   Zn514   1.978   .     S
O512   Zn513   1.978   .     S
N515   H516    1.043   .     S
N515   H517    1.043   .     S
N518   H520    1.044   .     S
N518   H519    1.046   .     S
C521   C522    1.538   .     S
C521   H529    1.110   .     S
C521   H530    1.109   .     S
C522   H528    1.109   .     S
C522   H527    1.108   .     S
C522   C523    1.527   .     S
C523   H524    1.110   .     S
C523   H526    1.111   .     S
H525   C403    1.111   1_655 S
C531   C532    1.532   .     S
C531   H539    1.106   .     S
C531   H540    1.112   .     S
C532   H538    1.111   .     S
C532   H537    1.112   .     S
C532   C413    1.528   1_655 S
C533   H534    1.110   .     S
C533   H535    1.111   .     S
C533   H536    1.109   .     S
C541   O565    1.279   .     A
C541   C552    1.412   .     S
C541   O567    1.281   .     A
C542   C551    1.411   .     S
C542   O566    1.277   .     A
C542   O568    1.281   .     A
C543   O571    1.281   .     A
C543   O569    1.277   .     A
C543   C545    1.401   .     S
C544   O572    1.281   .     A
C544   C546    1.401   .     S
C544   O570    1.276   .     A
C545   C666    1.331   1_455 S
C545   H677    1.088   1_455 S
C546   C605    1.331   .     S
C546   H618    1.088   .     S
C547   C552    1.404   .     A
C547   N575    1.440   .     S
C547   C909    1.394   1_545 S
C548   N578    1.440   .     S
C548   C551    1.406   .     A
C548   C730    1.385   .     S
C549   C581    1.530   .     S
C549   C551    1.412   .     A
C549   C727    1.394   .     S
C550   C591    1.527   .     S
C550   C552    1.409   .     A
C550   C908    1.385   1_545 S
C553   H559    1.082   .     S
C553   N564    1.367   .     A
C554   N563    1.367   .     A
C554   H560    1.082   .     S
C554   C1096   1.417   .     S
C555   N563    1.367   .     A
C555   H561    1.082   .     S
C555   C1093   1.417   .     S
C556   N564    1.367   .     A
C556   H562    1.082   .     S
H557   C605    1.088   .     S
H558   C666    1.088   1_455 S
N563   Zn573   2.011   .     S
N564   Zn574   2.011   .     S
O565   Zn573   1.989   .     S
O566   Zn574   1.989   .     S
O567   Zn574   1.987   .     S
O568   Zn573   1.987   .     S
O569   Zn573   1.963   .     S
O570   Zn574   1.963   .     S
O571   Zn574   1.978   .     S
O572   Zn573   1.978   .     S
N575   H576    1.043   .     S
N575   H577    1.043   .     S
N578   H580    1.044   .     S
N578   H579    1.046   .     S
C581   C582    1.538   .     S
C581   H589    1.110   .     S
C581   H590    1.109   .     S
C582   H588    1.109   .     S
C582   H587    1.108   .     S
C582   C583    1.527   .     S
C583   H584    1.110   .     S
C583   H586    1.111   .     S
C583   H705    1.111   1_455 S
H585   C643    1.111   .     S
C591   C592    1.532   .     S
C591   H599    1.106   .     S
C591   H600    1.112   .     S
C592   H598    1.111   .     S
C592   H597    1.112   .     S
C592   C653    1.528   .     S
C593   H594    1.110   .     S
C593   H595    1.111   .     S
C593   H596    1.109   .     S
C593   C712    1.528   1_455 S
C601   O625    1.279   .     A
C601   C612    1.412   .     S
C601   O627    1.281   .     A
C602   C611    1.411   .     S
C602   O626    1.277   .     A
C602   O628    1.281   .     A
C603   O631    1.281   .     A
C603   O629    1.277   .     A
C603   C605    1.401   .     S
C604   O632    1.281   .     A
C604   C606    1.401   .     S
C604   O630    1.276   .     A
C606   C665    1.331   .     S
C606   H678    1.088   .     S
C607   C612    1.404   .     A
C607   N635    1.440   .     S
C607   C969    1.394   1_545 S
C608   N638    1.440   .     S
C608   C611    1.406   .     A
C608   C790    1.385   .     S
C609   C641    1.530   .     S
C609   C611    1.412   .     A
C609   C787    1.394   .     S
C610   C651    1.527   .     S
C610   C612    1.409   .     A
C610   C968    1.385   1_545 S
C613   H619    1.082   .     S
C613   N624    1.367   .     A
C614   N623    1.367   .     A
C614   H620    1.082   .     S
C614   C1156   1.417   .     S
C615   N623    1.367   .     A
C615   H621    1.082   .     S
C615   C1153   1.417   .     S
C616   N624    1.367   .     A
C616   H622    1.082   .     S
H617   C665    1.088   .     S
N623   Zn633   2.011   .     S
N624   Zn634   2.011   .     S
O625   Zn633   1.989   .     S
O626   Zn634   1.989   .     S
O627   Zn634   1.987   .     S
O628   Zn633   1.987   .     S
O629   Zn633   1.963   .     S
O630   Zn634   1.963   .     S
O631   Zn634   1.978   .     S
O632   Zn633   1.978   .     S
N635   H636    1.043   .     S
N635   H637    1.043   .     S
N638   H640    1.044   .     S
N638   H639    1.046   .     S
C641   C642    1.538   .     S
C641   H649    1.110   .     S
C641   H650    1.109   .     S
C642   H648    1.109   .     S
C642   H647    1.108   .     S
C642   C643    1.527   .     S
C643   H644    1.110   .     S
C643   H646    1.111   .     S
H645   C703    1.111   .     S
C651   C652    1.532   .     S
C651   H659    1.106   .     S
C651   H660    1.112   .     S
C652   H658    1.111   .     S
C652   H657    1.112   .     S
C652   C713    1.528   .     S
C653   H654    1.110   .     S
C653   H655    1.111   .     S
C653   H656    1.109   .     S
C661   O685    1.279   .     A
C661   C672    1.412   .     S
C661   O687    1.281   .     A
C662   C671    1.411   .     S
C662   O686    1.277   .     A
C662   O688    1.281   .     A
C663   O691    1.281   .     A
C663   O689    1.277   .     A
C663   C665    1.401   .     S
C664   O692    1.281   .     A
C664   C666    1.401   .     S
C664   O690    1.276   .     A
C666   C545    1.331   1_655 S
C666   H558    1.088   1_655 S
C667   C672    1.404   .     A
C667   N695    1.440   .     S
C667   C1029   1.394   1_545 S
C668   N698    1.440   .     S
C668   C671    1.406   .     A
C668   C850    1.385   .     S
C669   C701    1.530   .     S
C669   C671    1.412   .     A
C669   C847    1.394   .     S
C670   C711    1.527   .     S
C670   C672    1.409   .     A
C670   C1028   1.385   1_545 S
C673   H679    1.082   .     S
C673   N684    1.367   .     A
C674   N683    1.367   .     A
C674   H680    1.082   .     S
C674   C1216   1.417   .     S
C675   N683    1.367   .     A
C675   H681    1.082   .     S
C675   C1213   1.417   .     S
C676   N684    1.367   .     A
C676   H682    1.082   .     S
H677   C545    1.088   1_655 S
N683   Zn693   2.011   .     S
N684   Zn694   2.011   .     S
O685   Zn693   1.989   .     S
O686   Zn694   1.989   .     S
O687   Zn694   1.987   .     S
O688   Zn693   1.987   .     S
O689   Zn693   1.963   .     S
O690   Zn694   1.963   .     S
O691   Zn694   1.978   .     S
O692   Zn693   1.978   .     S
N695   H696    1.043   .     S
N695   H697    1.043   .     S
N698   H700    1.044   .     S
N698   H699    1.046   .     S
C701   C702    1.538   .     S
C701   H709    1.110   .     S
C701   H710    1.109   .     S
C702   H708    1.109   .     S
C702   H707    1.108   .     S
C702   C703    1.527   .     S
C703   H704    1.110   .     S
C703   H706    1.111   .     S
H705   C583    1.111   1_655 S
C711   C712    1.532   .     S
C711   H719    1.106   .     S
C711   H720    1.112   .     S
C712   H718    1.111   .     S
C712   H717    1.112   .     S
C712   C593    1.528   1_655 S
C713   H714    1.110   .     S
C713   H715    1.111   .     S
C713   H716    1.109   .     S
C721   O745    1.279   .     A
C721   C732    1.412   .     S
C721   O747    1.281   .     A
C722   C731    1.411   .     S
C722   O746    1.277   .     A
C722   O748    1.281   .     A
C723   O751    1.281   .     A
C723   O749    1.277   .     A
C723   C725    1.401   .     S
C724   O752    1.281   .     A
C724   C726    1.401   .     S
C724   O750    1.276   .     A
C725   C846    1.331   1_455 S
C725   H857    1.088   1_455 S
C726   C785    1.331   .     S
C726   H798    1.088   .     S
C727   C732    1.404   .     A
C727   N755    1.440   .     S
C728   N758    1.440   .     S
C728   C731    1.406   .     A
C728   C910    1.385   .     S
C729   C761    1.530   .     S
C729   C731    1.412   .     A
C729   C907    1.394   .     S
C730   C771    1.527   .     S
C730   C732    1.409   .     A
C733   H739    1.082   .     S
C733   N744    1.367   .     A
C734   N743    1.367   .     A
C734   H740    1.082   .     S
C734   C1276   1.417   .     S
C735   N743    1.367   .     A
C735   H741    1.082   .     S
C735   C1273   1.417   .     S
C736   N744    1.367   .     A
C736   H742    1.082   .     S
H737   C785    1.088   .     S
H738   C846    1.088   1_455 S
N743   Zn753   2.011   .     S
N744   Zn754   2.011   .     S
O745   Zn753   1.989   .     S
O746   Zn754   1.989   .     S
O747   Zn754   1.987   .     S
O748   Zn753   1.987   .     S
O749   Zn753   1.963   .     S
O750   Zn754   1.963   .     S
O751   Zn754   1.978   .     S
O752   Zn753   1.978   .     S
N755   H756    1.043   .     S
N755   H757    1.043   .     S
N758   H760    1.044   .     S
N758   H759    1.046   .     S
C761   C762    1.538   .     S
C761   H769    1.110   .     S
C761   H770    1.109   .     S
C762   H768    1.109   .     S
C762   H767    1.108   .     S
C762   C763    1.527   .     S
C763   H764    1.110   .     S
C763   H766    1.111   .     S
C763   H885    1.111   1_455 S
H765   C823    1.111   .     S
C771   C772    1.532   .     S
C771   H779    1.106   .     S
C771   H780    1.112   .     S
C772   H778    1.111   .     S
C772   H777    1.112   .     S
C772   C833    1.528   .     S
C773   H774    1.110   .     S
C773   H775    1.111   .     S
C773   H776    1.109   .     S
C773   C892    1.528   1_455 S
C781   O805    1.279   .     A
C781   C792    1.412   .     S
C781   O807    1.281   .     A
C782   C791    1.411   .     S
C782   O806    1.277   .     A
C782   O808    1.281   .     A
C783   O811    1.281   .     A
C783   O809    1.277   .     A
C783   C785    1.401   .     S
C784   O812    1.281   .     A
C784   C786    1.401   .     S
C784   O810    1.276   .     A
C786   C845    1.331   .     S
C786   H858    1.088   .     S
C787   C792    1.404   .     A
C787   N815    1.440   .     S
C788   N818    1.440   .     S
C788   C791    1.406   .     A
C788   C970    1.385   .     S
C789   C821    1.530   .     S
C789   C791    1.412   .     A
C789   C967    1.394   .     S
C790   C831    1.527   .     S
C790   C792    1.409   .     A
C793   H799    1.082   .     S
C793   N804    1.367   .     A
C794   N803    1.367   .     A
C794   H800    1.082   .     S
C794   C1336   1.417   .     S
C795   N803    1.367   .     A
C795   H801    1.082   .     S
C795   C1333   1.417   .     S
C796   N804    1.367   .     A
C796   H802    1.082   .     S
H797   C845    1.088   .     S
N803   Zn813   2.011   .     S
N804   Zn814   2.011   .     S
O805   Zn813   1.989   .     S
O806   Zn814   1.989   .     S
O807   Zn814   1.987   .     S
O808   Zn813   1.987   .     S
O809   Zn813   1.963   .     S
O810   Zn814   1.963   .     S
O811   Zn814   1.978   .     S
O812   Zn813   1.978   .     S
N815   H816    1.043   .     S
N815   H817    1.043   .     S
N818   H820    1.044   .     S
N818   H819    1.046   .     S
C821   C822    1.538   .     S
C821   H829    1.110   .     S
C821   H830    1.109   .     S
C822   H828    1.109   .     S
C822   H827    1.108   .     S
C822   C823    1.527   .     S
C823   H824    1.110   .     S
C823   H826    1.111   .     S
H825   C883    1.111   .     S
C831   C832    1.532   .     S
C831   H839    1.106   .     S
C831   H840    1.112   .     S
C832   H838    1.111   .     S
C832   H837    1.112   .     S
C832   C893    1.528   .     S
C833   H834    1.110   .     S
C833   H835    1.111   .     S
C833   H836    1.109   .     S
C841   O865    1.279   .     A
C841   C852    1.412   .     S
C841   O867    1.281   .     A
C842   C851    1.411   .     S
C842   O866    1.277   .     A
C842   O868    1.281   .     A
C843   O871    1.281   .     A
C843   O869    1.277   .     A
C843   C845    1.401   .     S
C844   O872    1.281   .     A
C844   C846    1.401   .     S
C844   O870    1.276   .     A
C846   C725    1.331   1_655 S
C846   H738    1.088   1_655 S
C847   C852    1.404   .     A
C847   N875    1.440   .     S
C848   N878    1.440   .     S
C848   C851    1.406   .     A
C848   C1030   1.385   .     S
C849   C881    1.530   .     S
C849   C851    1.412   .     A
C849   C1027   1.394   .     S
C850   C891    1.527   .     S
C850   C852    1.409   .     A
C853   H859    1.082   .     S
C853   N864    1.367   .     A
C854   N863    1.367   .     A
C854   H860    1.082   .     S
C854   C1396   1.417   .     S
C855   N863    1.367   .     A
C855   H861    1.082   .     S
C855   C1393   1.417   .     S
C856   N864    1.367   .     A
C856   H862    1.082   .     S
H857   C725    1.088   1_655 S
N863   Zn873   2.011   .     S
N864   Zn874   2.011   .     S
O865   Zn873   1.989   .     S
O866   Zn874   1.989   .     S
O867   Zn874   1.987   .     S
O868   Zn873   1.987   .     S
O869   Zn873   1.963   .     S
O870   Zn874   1.963   .     S
O871   Zn874   1.978   .     S
O872   Zn873   1.978   .     S
N875   H876    1.043   .     S
N875   H877    1.043   .     S
N878   H880    1.044   .     S
N878   H879    1.046   .     S
C881   C882    1.538   .     S
C881   H889    1.110   .     S
C881   H890    1.109   .     S
C882   H888    1.109   .     S
C882   H887    1.108   .     S
C882   C883    1.527   .     S
C883   H884    1.110   .     S
C883   H886    1.111   .     S
H885   C763    1.111   1_655 S
C891   C892    1.532   .     S
C891   H899    1.106   .     S
C891   H900    1.112   .     S
C892   H898    1.111   .     S
C892   H897    1.112   .     S
C892   C773    1.528   1_655 S
C893   H894    1.110   .     S
C893   H895    1.111   .     S
C893   H896    1.109   .     S
C901   O925    1.279   .     A
C901   C912    1.412   .     S
C901   O927    1.281   .     A
C902   C911    1.411   .     S
C902   O926    1.277   .     A
C902   O928    1.281   .     A
C903   O931    1.281   .     A
C903   O929    1.277   .     A
C903   C905    1.401   .     S
C904   O932    1.281   .     A
C904   C906    1.401   .     S
C904   O930    1.276   .     A
C905   C1026   1.331   1_455 S
C905   H1037   1.088   1_455 S
C906   C965    1.331   .     S
C906   H978    1.088   .     S
C907   C912    1.404   .     A
C907   N935    1.440   .     S
C908   N938    1.440   .     S
C908   C911    1.406   .     A
C908   C550    1.385   1_565 S
C909   C941    1.530   .     S
C909   C911    1.412   .     A
C909   C547    1.394   1_565 S
C910   C951    1.527   .     S
C910   C912    1.409   .     A
C913   H919    1.082   .     S
C913   N924    1.367   .     A
C914   N923    1.367   .     A
C914   H920    1.082   .     S
C914   C1456   1.417   .     S
C915   N923    1.367   .     A
C915   H921    1.082   .     S
C915   C1453   1.417   .     S
C916   N924    1.367   .     A
C916   H922    1.082   .     S
H917   C965    1.088   .     S
H918   C1026   1.088   1_455 S
N923   Zn933   2.011   .     S
N924   Zn934   2.011   .     S
O925   Zn933   1.989   .     S
O926   Zn934   1.989   .     S
O927   Zn934   1.987   .     S
O928   Zn933   1.987   .     S
O929   Zn933   1.963   .     S
O930   Zn934   1.963   .     S
O931   Zn934   1.978   .     S
O932   Zn933   1.978   .     S
N935   H936    1.043   .     S
N935   H937    1.043   .     S
N938   H940    1.044   .     S
N938   H939    1.046   .     S
C941   C942    1.538   .     S
C941   H949    1.110   .     S
C941   H950    1.109   .     S
C942   H948    1.109   .     S
C942   H947    1.108   .     S
C942   C943    1.527   .     S
C943   H944    1.110   .     S
C943   H946    1.111   .     S
C943   H1065   1.111   1_455 S
H945   C1003   1.111   .     S
C951   C952    1.532   .     S
C951   H959    1.106   .     S
C951   H960    1.112   .     S
C952   H958    1.111   .     S
C952   H957    1.112   .     S
C952   C1013   1.528   .     S
C953   H954    1.110   .     S
C953   H955    1.111   .     S
C953   H956    1.109   .     S
C953   C1072   1.528   1_455 S
C961   O985    1.279   .     A
C961   C972    1.412   .     S
C961   O987    1.281   .     A
C962   C971    1.411   .     S
C962   O986    1.277   .     A
C962   O988    1.281   .     A
C963   O991    1.281   .     A
C963   O989    1.277   .     A
C963   C965    1.401   .     S
C964   O992    1.281   .     A
C964   C966    1.401   .     S
C964   O990    1.276   .     A
C966   C1025   1.331   .     S
C966   H1038   1.088   .     S
C967   C972    1.404   .     A
C967   N995    1.440   .     S
C968   N998    1.440   .     S
C968   C971    1.406   .     A
C968   C610    1.385   1_565 S
C969   C1001   1.530   .     S
C969   C971    1.412   .     A
C969   C607    1.394   1_565 S
C970   C1011   1.527   .     S
C970   C972    1.409   .     A
C973   H979    1.082   .     S
C973   N984    1.367   .     A
C974   N983    1.367   .     A
C974   H980    1.082   .     S
C974   C1516   1.417   .     S
C975   N983    1.367   .     A
C975   H981    1.082   .     S
C975   C1513   1.417   .     S
C976   N984    1.367   .     A
C976   H982    1.082   .     S
H977   C1025   1.088   .     S
N983   Zn993   2.011   .     S
N984   Zn994   2.011   .     S
O985   Zn993   1.989   .     S
O986   Zn994   1.989   .     S
O987   Zn994   1.987   .     S
O988   Zn993   1.987   .     S
O989   Zn993   1.963   .     S
O990   Zn994   1.963   .     S
O991   Zn994   1.978   .     S
O992   Zn993   1.978   .     S
N995   H996    1.043   .     S
N995   H997    1.043   .     S
N998   H1000   1.044   .     S
N998   H999    1.046   .     S
C1001  C1002   1.538   .     S
C1001  H1009   1.110   .     S
C1001  H1010   1.109   .     S
C1002  H1008   1.109   .     S
C1002  H1007   1.108   .     S
C1002  C1003   1.527   .     S
C1003  H1004   1.110   .     S
C1003  H1006   1.111   .     S
H1005  C1063   1.111   .     S
C1011  C1012   1.532   .     S
C1011  H1019   1.106   .     S
C1011  H1020   1.112   .     S
C1012  H1018   1.111   .     S
C1012  H1017   1.112   .     S
C1012  C1073   1.528   .     S
C1013  H1014   1.110   .     S
C1013  H1015   1.111   .     S
C1013  H1016   1.109   .     S
C1021  O1045   1.279   .     A
C1021  C1032   1.412   .     S
C1021  O1047   1.281   .     A
C1022  C1031   1.411   .     S
C1022  O1046   1.277   .     A
C1022  O1048   1.281   .     A
C1023  O1051   1.281   .     A
C1023  O1049   1.277   .     A
C1023  C1025   1.401   .     S
C1024  O1052   1.281   .     A
C1024  C1026   1.401   .     S
C1024  O1050   1.276   .     A
C1026  C905    1.331   1_655 S
C1026  H918    1.088   1_655 S
C1027  C1032   1.404   .     A
C1027  N1055   1.440   .     S
C1028  N1058   1.440   .     S
C1028  C1031   1.406   .     A
C1028  C670    1.385   1_565 S
C1029  C1061   1.530   .     S
C1029  C1031   1.412   .     A
C1029  C667    1.394   1_565 S
C1030  C1071   1.527   .     S
C1030  C1032   1.409   .     A
C1033  H1039   1.082   .     S
C1033  N1044   1.367   .     A
C1034  N1043   1.367   .     A
C1034  H1040   1.082   .     S
C1034  C1576   1.417   .     S
C1035  N1043   1.367   .     A
C1035  H1041   1.082   .     S
C1035  C1573   1.417   .     S
C1036  N1044   1.367   .     A
C1036  H1042   1.082   .     S
H1037  C905    1.088   1_655 S
N1043  Zn1053  2.011   .     S
N1044  Zn1054  2.011   .     S
O1045  Zn1053  1.989   .     S
O1046  Zn1054  1.989   .     S
O1047  Zn1054  1.987   .     S
O1048  Zn1053  1.987   .     S
O1049  Zn1053  1.963   .     S
O1050  Zn1054  1.963   .     S
O1051  Zn1054  1.978   .     S
O1052  Zn1053  1.978   .     S
N1055  H1056   1.043   .     S
N1055  H1057   1.043   .     S
N1058  H1060   1.044   .     S
N1058  H1059   1.046   .     S
C1061  C1062   1.538   .     S
C1061  H1069   1.110   .     S
C1061  H1070   1.109   .     S
C1062  H1068   1.109   .     S
C1062  H1067   1.108   .     S
C1062  C1063   1.527   .     S
C1063  H1064   1.110   .     S
C1063  H1066   1.111   .     S
H1065  C943    1.111   1_655 S
C1071  C1072   1.532   .     S
C1071  H1079   1.106   .     S
C1071  H1080   1.112   .     S
C1072  H1078   1.111   .     S
C1072  H1077   1.112   .     S
C1072  C953    1.528   1_655 S
C1073  H1074   1.110   .     S
C1073  H1075   1.111   .     S
C1073  H1076   1.109   .     S
C1081  O1105   1.279   .     A
C1081  C1092   1.412   .     S
C1081  O1107   1.281   .     A
C1082  C1091   1.411   .     S
C1082  O1106   1.277   .     A
C1082  O1108   1.281   .     A
C1083  O1111   1.281   .     A
C1083  O1109   1.277   .     A
C1083  C1085   1.401   .     S
C1084  O1112   1.281   .     A
C1084  C1086   1.401   .     S
C1084  O1110   1.276   .     A
C1085  C1206   1.331   1_455 S
C1085  H1217   1.088   1_455 S
C1086  C1145   1.331   .     S
C1086  H1158   1.088   .     S
C1087  C1092   1.404   .     A
C1087  N1115   1.440   .     S
C1087  C1449   1.394   1_545 S
C1088  N1118   1.440   .     S
C1088  C1091   1.406   .     A
C1088  C1270   1.385   .     S
C1089  C1121   1.530   .     S
C1089  C1091   1.412   .     A
C1089  C1267   1.394   .     S
C1090  C1131   1.527   .     S
C1090  C1092   1.409   .     A
C1090  C1448   1.385   1_545 S
C1093  H1099   1.082   .     S
C1093  N1104   1.367   .     A
C1094  N1103   1.367   .     A
C1094  H1100   1.082   .     S
C1094  C16     1.417   1_556 S
C1095  N1103   1.367   .     A
C1095  H1101   1.082   .     S
C1095  C13     1.417   1_556 S
C1096  N1104   1.367   .     A
C1096  H1102   1.082   .     S
H1097  C1145   1.088   .     S
H1098  C1206   1.088   1_455 S
N1103  Zn1113  2.011   .     S
N1104  Zn1114  2.011   .     S
O1105  Zn1113  1.989   .     S
O1106  Zn1114  1.989   .     S
O1107  Zn1114  1.987   .     S
O1108  Zn1113  1.987   .     S
O1109  Zn1113  1.963   .     S
O1110  Zn1114  1.963   .     S
O1111  Zn1114  1.978   .     S
O1112  Zn1113  1.978   .     S
N1115  H1116   1.043   .     S
N1115  H1117   1.043   .     S
N1118  H1120   1.044   .     S
N1118  H1119   1.046   .     S
C1121  C1122   1.538   .     S
C1121  H1129   1.110   .     S
C1121  H1130   1.109   .     S
C1122  H1128   1.109   .     S
C1122  H1127   1.108   .     S
C1122  C1123   1.527   .     S
C1123  H1124   1.110   .     S
C1123  H1126   1.111   .     S
C1123  H1245   1.111   1_455 S
H1125  C1183   1.111   .     S
C1131  C1132   1.532   .     S
C1131  H1139   1.106   .     S
C1131  H1140   1.112   .     S
C1132  H1138   1.111   .     S
C1132  H1137   1.112   .     S
C1132  C1193   1.528   .     S
C1133  H1134   1.110   .     S
C1133  H1135   1.111   .     S
C1133  H1136   1.109   .     S
C1133  C1252   1.528   1_455 S
C1141  O1165   1.279   .     A
C1141  C1152   1.412   .     S
C1141  O1167   1.281   .     A
C1142  C1151   1.411   .     S
C1142  O1166   1.277   .     A
C1142  O1168   1.281   .     A
C1143  O1171   1.281   .     A
C1143  O1169   1.277   .     A
C1143  C1145   1.401   .     S
C1144  O1172   1.281   .     A
C1144  C1146   1.401   .     S
C1144  O1170   1.276   .     A
C1146  C1205   1.331   .     S
C1146  H1218   1.088   .     S
C1147  C1152   1.404   .     A
C1147  N1175   1.440   .     S
C1147  C1509   1.394   1_545 S
C1148  N1178   1.440   .     S
C1148  C1151   1.406   .     A
C1148  C1330   1.385   .     S
C1149  C1181   1.530   .     S
C1149  C1151   1.412   .     A
C1149  C1327   1.394   .     S
C1150  C1191   1.527   .     S
C1150  C1152   1.409   .     A
C1150  C1508   1.385   1_545 S
C1153  H1159   1.082   .     S
C1153  N1164   1.367   .     A
C1154  N1163   1.367   .     A
C1154  H1160   1.082   .     S
C1154  C76     1.417   1_556 S
C1155  N1163   1.367   .     A
C1155  H1161   1.082   .     S
C1155  C73     1.417   1_556 S
C1156  N1164   1.367   .     A
C1156  H1162   1.082   .     S
H1157  C1205   1.088   .     S
N1163  Zn1173  2.011   .     S
N1164  Zn1174  2.011   .     S
O1165  Zn1173  1.989   .     S
O1166  Zn1174  1.989   .     S
O1167  Zn1174  1.987   .     S
O1168  Zn1173  1.987   .     S
O1169  Zn1173  1.963   .     S
O1170  Zn1174  1.963   .     S
O1171  Zn1174  1.978   .     S
O1172  Zn1173  1.978   .     S
N1175  H1176   1.043   .     S
N1175  H1177   1.043   .     S
N1178  H1180   1.044   .     S
N1178  H1179   1.046   .     S
C1181  C1182   1.538   .     S
C1181  H1189   1.110   .     S
C1181  H1190   1.109   .     S
C1182  H1188   1.109   .     S
C1182  H1187   1.108   .     S
C1182  C1183   1.527   .     S
C1183  H1184   1.110   .     S
C1183  H1186   1.111   .     S
H1185  C1243   1.111   .     S
C1191  C1192   1.532   .     S
C1191  H1199   1.106   .     S
C1191  H1200   1.112   .     S
C1192  H1198   1.111   .     S
C1192  H1197   1.112   .     S
C1192  C1253   1.528   .     S
C1193  H1194   1.110   .     S
C1193  H1195   1.111   .     S
C1193  H1196   1.109   .     S
C1201  O1225   1.279   .     A
C1201  C1212   1.412   .     S
C1201  O1227   1.281   .     A
C1202  C1211   1.411   .     S
C1202  O1226   1.277   .     A
C1202  O1228   1.281   .     A
C1203  O1231   1.281   .     A
C1203  O1229   1.277   .     A
C1203  C1205   1.401   .     S
C1204  O1232   1.281   .     A
C1204  C1206   1.401   .     S
C1204  O1230   1.276   .     A
C1206  C1085   1.331   1_655 S
C1206  H1098   1.088   1_655 S
C1207  C1212   1.404   .     A
C1207  N1235   1.440   .     S
C1207  C1569   1.394   1_545 S
C1208  N1238   1.440   .     S
C1208  C1211   1.406   .     A
C1208  C1390   1.385   .     S
C1209  C1241   1.530   .     S
C1209  C1211   1.412   .     A
C1209  C1387   1.394   .     S
C1210  C1251   1.527   .     S
C1210  C1212   1.409   .     A
C1210  C1568   1.385   1_545 S
C1213  H1219   1.082   .     S
C1213  N1224   1.367   .     A
C1214  N1223   1.367   .     A
C1214  H1220   1.082   .     S
C1214  C136    1.417   1_556 S
C1215  N1223   1.367   .     A
C1215  H1221   1.082   .     S
C1215  C133    1.417   1_556 S
C1216  N1224   1.367   .     A
C1216  H1222   1.082   .     S
H1217  C1085   1.088   1_655 S
N1223  Zn1233  2.011   .     S
N1224  Zn1234  2.011   .     S
O1225  Zn1233  1.989   .     S
O1226  Zn1234  1.989   .     S
O1227  Zn1234  1.987   .     S
O1228  Zn1233  1.987   .     S
O1229  Zn1233  1.963   .     S
O1230  Zn1234  1.963   .     S
O1231  Zn1234  1.978   .     S
O1232  Zn1233  1.978   .     S
N1235  H1236   1.043   .     S
N1235  H1237   1.043   .     S
N1238  H1240   1.044   .     S
N1238  H1239   1.046   .     S
C1241  C1242   1.538   .     S
C1241  H1249   1.110   .     S
C1241  H1250   1.109   .     S
C1242  H1248   1.109   .     S
C1242  H1247   1.108   .     S
C1242  C1243   1.527   .     S
C1243  H1244   1.110   .     S
C1243  H1246   1.111   .     S
H1245  C1123   1.111   1_655 S
C1251  C1252   1.532   .     S
C1251  H1259   1.106   .     S
C1251  H1260   1.112   .     S
C1252  H1258   1.111   .     S
C1252  H1257   1.112   .     S
C1252  C1133   1.528   1_655 S
C1253  H1254   1.110   .     S
C1253  H1255   1.111   .     S
C1253  H1256   1.109   .     S
C1261  O1285   1.279   .     A
C1261  C1272   1.412   .     S
C1261  O1287   1.281   .     A
C1262  C1271   1.411   .     S
C1262  O1286   1.277   .     A
C1262  O1288   1.281   .     A
C1263  O1291   1.281   .     A
C1263  O1289   1.277   .     A
C1263  C1265   1.401   .     S
C1264  O1292   1.281   .     A
C1264  C1266   1.401   .     S
C1264  O1290   1.276   .     A
C1265  C1386   1.331   1_455 S
C1265  H1397   1.088   1_455 S
C1266  C1325   1.331   .     S
C1266  H1338   1.088   .     S
C1267  C1272   1.404   .     A
C1267  N1295   1.440   .     S
C1268  N1298   1.440   .     S
C1268  C1271   1.406   .     A
C1268  C1450   1.385   .     S
C1269  C1301   1.530   .     S
C1269  C1271   1.412   .     A
C1269  C1447   1.394   .     S
C1270  C1311   1.527   .     S
C1270  C1272   1.409   .     A
C1273  H1279   1.082   .     S
C1273  N1284   1.367   .     A
C1274  N1283   1.367   .     A
C1274  H1280   1.082   .     S
C1274  C196    1.417   1_556 S
C1275  N1283   1.367   .     A
C1275  H1281   1.082   .     S
C1275  C193    1.417   1_556 S
C1276  N1284   1.367   .     A
C1276  H1282   1.082   .     S
H1277  C1325   1.088   .     S
H1278  C1386   1.088   1_455 S
N1283  Zn1293  2.011   .     S
N1284  Zn1294  2.011   .     S
O1285  Zn1293  1.989   .     S
O1286  Zn1294  1.989   .     S
O1287  Zn1294  1.987   .     S
O1288  Zn1293  1.987   .     S
O1289  Zn1293  1.963   .     S
O1290  Zn1294  1.963   .     S
O1291  Zn1294  1.978   .     S
O1292  Zn1293  1.978   .     S
N1295  H1296   1.043   .     S
N1295  H1297   1.043   .     S
N1298  H1300   1.044   .     S
N1298  H1299   1.046   .     S
C1301  C1302   1.538   .     S
C1301  H1309   1.110   .     S
C1301  H1310   1.109   .     S
C1302  H1308   1.109   .     S
C1302  H1307   1.108   .     S
C1302  C1303   1.527   .     S
C1303  H1304   1.110   .     S
C1303  H1306   1.111   .     S
C1303  H1425   1.111   1_455 S
H1305  C1363   1.111   .     S
C1311  C1312   1.532   .     S
C1311  H1319   1.106   .     S
C1311  H1320   1.112   .     S
C1312  H1318   1.111   .     S
C1312  H1317   1.112   .     S
C1312  C1373   1.528   .     S
C1313  H1314   1.110   .     S
C1313  H1315   1.111   .     S
C1313  H1316   1.109   .     S
C1313  C1432   1.528   1_455 S
C1321  O1345   1.279   .     A
C1321  C1332   1.412   .     S
C1321  O1347   1.281   .     A
C1322  C1331   1.411   .     S
C1322  O1346   1.277   .     A
C1322  O1348   1.281   .     A
C1323  O1351   1.281   .     A
C1323  O1349   1.277   .     A
C1323  C1325   1.401   .     S
C1324  O1352   1.281   .     A
C1324  C1326   1.401   .     S
C1324  O1350   1.276   .     A
C1326  C1385   1.331   .     S
C1326  H1398   1.088   .     S
C1327  C1332   1.404   .     A
C1327  N1355   1.440   .     S
C1328  N1358   1.440   .     S
C1328  C1331   1.406   .     A
C1328  C1510   1.385   .     S
C1329  C1361   1.530   .     S
C1329  C1331   1.412   .     A
C1329  C1507   1.394   .     S
C1330  C1371   1.527   .     S
C1330  C1332   1.409   .     A
C1333  H1339   1.082   .     S
C1333  N1344   1.367   .     A
C1334  N1343   1.367   .     A
C1334  H1340   1.082   .     S
C1334  C256    1.417   1_556 S
C1335  N1343   1.367   .     A
C1335  H1341   1.082   .     S
C1335  C253    1.417   1_556 S
C1336  N1344   1.367   .     A
C1336  H1342   1.082   .     S
H1337  C1385   1.088   .     S
N1343  Zn1353  2.011   .     S
N1344  Zn1354  2.011   .     S
O1345  Zn1353  1.989   .     S
O1346  Zn1354  1.989   .     S
O1347  Zn1354  1.987   .     S
O1348  Zn1353  1.987   .     S
O1349  Zn1353  1.963   .     S
O1350  Zn1354  1.963   .     S
O1351  Zn1354  1.978   .     S
O1352  Zn1353  1.978   .     S
N1355  H1356   1.043   .     S
N1355  H1357   1.043   .     S
N1358  H1360   1.044   .     S
N1358  H1359   1.046   .     S
C1361  C1362   1.538   .     S
C1361  H1369   1.110   .     S
C1361  H1370   1.109   .     S
C1362  H1368   1.109   .     S
C1362  H1367   1.108   .     S
C1362  C1363   1.527   .     S
C1363  H1364   1.110   .     S
C1363  H1366   1.111   .     S
H1365  C1423   1.111   .     S
C1371  C1372   1.532   .     S
C1371  H1379   1.106   .     S
C1371  H1380   1.112   .     S
C1372  H1378   1.111   .     S
C1372  H1377   1.112   .     S
C1372  C1433   1.528   .     S
C1373  H1374   1.110   .     S
C1373  H1375   1.111   .     S
C1373  H1376   1.109   .     S
C1381  O1405   1.279   .     A
C1381  C1392   1.412   .     S
C1381  O1407   1.281   .     A
C1382  C1391   1.411   .     S
C1382  O1406   1.277   .     A
C1382  O1408   1.281   .     A
C1383  O1411   1.281   .     A
C1383  O1409   1.277   .     A
C1383  C1385   1.401   .     S
C1384  O1412   1.281   .     A
C1384  C1386   1.401   .     S
C1384  O1410   1.276   .     A
C1386  C1265   1.331   1_655 S
C1386  H1278   1.088   1_655 S
C1387  C1392   1.404   .     A
C1387  N1415   1.440   .     S
C1388  N1418   1.440   .     S
C1388  C1391   1.406   .     A
C1388  C1570   1.385   .     S
C1389  C1421   1.530   .     S
C1389  C1391   1.412   .     A
C1389  C1567   1.394   .     S
C1390  C1431   1.527   .     S
C1390  C1392   1.409   .     A
C1393  H1399   1.082   .     S
C1393  N1404   1.367   .     A
C1394  N1403   1.367   .     A
C1394  H1400   1.082   .     S
C1394  C316    1.417   1_556 S
C1395  N1403   1.367   .     A
C1395  H1401   1.082   .     S
C1395  C313    1.417   1_556 S
C1396  N1404   1.367   .     A
C1396  H1402   1.082   .     S
H1397  C1265   1.088   1_655 S
N1403  Zn1413  2.011   .     S
N1404  Zn1414  2.011   .     S
O1405  Zn1413  1.989   .     S
O1406  Zn1414  1.989   .     S
O1407  Zn1414  1.987   .     S
O1408  Zn1413  1.987   .     S
O1409  Zn1413  1.963   .     S
O1410  Zn1414  1.963   .     S
O1411  Zn1414  1.978   .     S
O1412  Zn1413  1.978   .     S
N1415  H1416   1.043   .     S
N1415  H1417   1.043   .     S
N1418  H1420   1.044   .     S
N1418  H1419   1.046   .     S
C1421  C1422   1.538   .     S
C1421  H1429   1.110   .     S
C1421  H1430   1.109   .     S
C1422  H1428   1.109   .     S
C1422  H1427   1.108   .     S
C1422  C1423   1.527   .     S
C1423  H1424   1.110   .     S
C1423  H1426   1.111   .     S
H1425  C1303   1.111   1_655 S
C1431  C1432   1.532   .     S
C1431  H1439   1.106   .     S
C1431  H1440   1.112   .     S
C1432  H1438   1.111   .     S
C1432  H1437   1.112   .     S
C1432  C1313   1.528   1_655 S
C1433  H1434   1.110   .     S
C1433  H1435   1.111   .     S
C1433  H1436   1.109   .     S
C1441  O1465   1.279   .     A
C1441  C1452   1.412   .     S
C1441  O1467   1.281   .     A
C1442  C1451   1.411   .     S
C1442  O1466   1.277   .     A
C1442  O1468   1.281   .     A
C1443  O1471   1.281   .     A
C1443  O1469   1.277   .     A
C1443  C1445   1.401   .     S
C1444  O1472   1.281   .     A
C1444  C1446   1.401   .     S
C1444  O1470   1.276   .     A
C1445  C1566   1.331   1_455 S
C1445  H1577   1.088   1_455 S
C1446  C1505   1.331   .     S
C1446  H1518   1.088   .     S
C1447  C1452   1.404   .     A
C1447  N1475   1.440   .     S
C1448  N1478   1.440   .     S
C1448  C1451   1.406   .     A
C1448  C1090   1.385   1_565 S
C1449  C1481   1.530   .     S
C1449  C1451   1.412   .     A
C1449  C1087   1.394   1_565 S
C1450  C1491   1.527   .     S
C1450  C1452   1.409   .     A
C1453  H1459   1.082   .     S
C1453  N1464   1.367   .     A
C1454  N1463   1.367   .     A
C1454  H1460   1.082   .     S
C1454  C376    1.417   1_556 S
C1455  N1463   1.367   .     A
C1455  H1461   1.082   .     S
C1455  C373    1.417   1_556 S
C1456  N1464   1.367   .     A
C1456  H1462   1.082   .     S
H1457  C1505   1.088   .     S
H1458  C1566   1.088   1_455 S
N1463  Zn1473  2.011   .     S
N1464  Zn1474  2.011   .     S
O1465  Zn1473  1.989   .     S
O1466  Zn1474  1.989   .     S
O1467  Zn1474  1.987   .     S
O1468  Zn1473  1.987   .     S
O1469  Zn1473  1.963   .     S
O1470  Zn1474  1.963   .     S
O1471  Zn1474  1.978   .     S
O1472  Zn1473  1.978   .     S
N1475  H1476   1.043   .     S
N1475  H1477   1.043   .     S
N1478  H1480   1.044   .     S
N1478  H1479   1.046   .     S
C1481  C1482   1.538   .     S
C1481  H1489   1.110   .     S
C1481  H1490   1.109   .     S
C1482  H1488   1.109   .     S
C1482  H1487   1.108   .     S
C1482  C1483   1.527   .     S
C1483  H1484   1.110   .     S
C1483  H1486   1.111   .     S
C1483  H1605   1.111   1_455 S
H1485  C1543   1.111   .     S
C1491  C1492   1.532   .     S
C1491  H1499   1.106   .     S
C1491  H1500   1.112   .     S
C1492  H1498   1.111   .     S
C1492  H1497   1.112   .     S
C1492  C1553   1.528   .     S
C1493  H1494   1.110   .     S
C1493  H1495   1.111   .     S
C1493  H1496   1.109   .     S
C1493  C1612   1.528   1_455 S
C1501  O1525   1.279   .     A
C1501  C1512   1.412   .     S
C1501  O1527   1.281   .     A
C1502  C1511   1.411   .     S
C1502  O1526   1.277   .     A
C1502  O1528   1.281   .     A
C1503  O1531   1.281   .     A
C1503  O1529   1.277   .     A
C1503  C1505   1.401   .     S
C1504  O1532   1.281   .     A
C1504  C1506   1.401   .     S
C1504  O1530   1.276   .     A
C1506  C1565   1.331   .     S
C1506  H1578   1.088   .     S
C1507  C1512   1.404   .     A
C1507  N1535   1.440   .     S
C1508  N1538   1.440   .     S
C1508  C1511   1.406   .     A
C1508  C1150   1.385   1_565 S
C1509  C1541   1.530   .     S
C1509  C1511   1.412   .     A
C1509  C1147   1.394   1_565 S
C1510  C1551   1.527   .     S
C1510  C1512   1.409   .     A
C1513  H1519   1.082   .     S
C1513  N1524   1.367   .     A
C1514  N1523   1.367   .     A
C1514  H1520   1.082   .     S
C1514  C436    1.417   1_556 S
C1515  N1523   1.367   .     A
C1515  H1521   1.082   .     S
C1515  C433    1.417   1_556 S
C1516  N1524   1.367   .     A
C1516  H1522   1.082   .     S
H1517  C1565   1.088   .     S
N1523  Zn1533  2.011   .     S
N1524  Zn1534  2.011   .     S
O1525  Zn1533  1.989   .     S
O1526  Zn1534  1.989   .     S
O1527  Zn1534  1.987   .     S
O1528  Zn1533  1.987   .     S
O1529  Zn1533  1.963   .     S
O1530  Zn1534  1.963   .     S
O1531  Zn1534  1.978   .     S
O1532  Zn1533  1.978   .     S
N1535  H1536   1.043   .     S
N1535  H1537   1.043   .     S
N1538  H1540   1.044   .     S
N1538  H1539   1.046   .     S
C1541  C1542   1.538   .     S
C1541  H1549   1.110   .     S
C1541  H1550   1.109   .     S
C1542  H1548   1.109   .     S
C1542  H1547   1.108   .     S
C1542  C1543   1.527   .     S
C1543  H1544   1.110   .     S
C1543  H1546   1.111   .     S
H1545  C1603   1.111   .     S
C1551  C1552   1.532   .     S
C1551  H1559   1.106   .     S
C1551  H1560   1.112   .     S
C1552  H1558   1.111   .     S
C1552  H1557   1.112   .     S
C1552  C1613   1.528   .     S
C1553  H1554   1.110   .     S
C1553  H1555   1.111   .     S
C1553  H1556   1.109   .     S
C1561  O1585   1.279   .     A
C1561  C1572   1.412   .     S
C1561  O1587   1.281   .     A
C1562  C1571   1.411   .     S
C1562  O1586   1.277   .     A
C1562  O1588   1.281   .     A
C1563  O1591   1.281   .     A
C1563  O1589   1.277   .     A
C1563  C1565   1.401   .     S
C1564  O1592   1.281   .     A
C1564  C1566   1.401   .     S
C1564  O1590   1.276   .     A
C1566  C1445   1.331   1_655 S
C1566  H1458   1.088   1_655 S
C1567  C1572   1.404   .     A
C1567  N1595   1.440   .     S
C1568  N1598   1.440   .     S
C1568  C1571   1.406   .     A
C1568  C1210   1.385   1_565 S
C1569  C1601   1.530   .     S
C1569  C1571   1.412   .     A
C1569  C1207   1.394   1_565 S
C1570  C1611   1.527   .     S
C1570  C1572   1.409   .     A
C1573  H1579   1.082   .     S
C1573  N1584   1.367   .     A
C1574  N1583   1.367   .     A
C1574  H1580   1.082   .     S
C1574  C496    1.417   1_556 S
C1575  N1583   1.367   .     A
C1575  H1581   1.082   .     S
C1575  C493    1.417   1_556 S
C1576  N1584   1.367   .     A
C1576  H1582   1.082   .     S
H1577  C1445   1.088   1_655 S
N1583  Zn1593  2.011   .     S
N1584  Zn1594  2.011   .     S
O1585  Zn1593  1.989   .     S
O1586  Zn1594  1.989   .     S
O1587  Zn1594  1.987   .     S
O1588  Zn1593  1.987   .     S
O1589  Zn1593  1.963   .     S
O1590  Zn1594  1.963   .     S
O1591  Zn1594  1.978   .     S
O1592  Zn1593  1.978   .     S
N1595  H1596   1.043   .     S
N1595  H1597   1.043   .     S
N1598  H1600   1.044   .     S
N1598  H1599   1.046   .     S
C1601  C1602   1.538   .     S
C1601  H1609   1.110   .     S
C1601  H1610   1.109   .     S
C1602  H1608   1.109   .     S
C1602  H1607   1.108   .     S
C1602  C1603   1.527   .     S
C1603  H1604   1.110   .     S
C1603  H1606   1.111   .     S
H1605  C1483   1.111   1_655 S
C1611  C1612   1.532   .     S
C1611  H1619   1.106   .     S
C1611  H1620   1.112   .     S
C1612  H1618   1.111   .     S
C1612  H1617   1.112   .     S
C1612  C1493   1.528   1_655 S
C1613  H1614   1.110   .     S
C1613  H1615   1.111   .     S
C1613  H1616   1.109   .     S
