data_str_m3_o1_o10_pcu_sym.76
_audit_creation_date              2020-01-03
_audit_creation_method            'Materials Studio'
_symmetry_space_group_name_H-M    'P1'
_symmetry_Int_Tables_number       1
_symmetry_cell_setting            triclinic
loop_
_symmetry_equiv_pos_as_xyz
  x,y,z
_cell_length_a                    25.9558
_cell_length_b                    31.8576
_cell_length_c                    29.7543
_cell_angle_alpha                 91.4557
_cell_angle_beta                  98.5681
_cell_angle_gamma                 92.1989
loop_
_atom_site_label
_atom_site_type_symbol
_atom_site_fract_x
_atom_site_fract_y
_atom_site_fract_z
_atom_site_U_iso_or_equiv
_atom_site_adp_type
_atom_site_occupancy
C1     C     0.16699   0.08684   0.16611   0.00000  Uiso   1.00
C2     C     0.12459   0.02135   0.17895   0.00000  Uiso   1.00
C3     C     0.16655   0.29068   0.16861   0.00000  Uiso   1.00
C4     C     0.16696   0.04265   0.16474   0.00000  Uiso   1.00
C5     C     0.19666   0.19570   0.02943   0.00000  Uiso   1.00
C6     C     0.13667   0.13763   0.30391   0.00000  Uiso   1.00
C7     C     0.19699   0.19571   0.31470   0.00000  Uiso   1.00
C8     C     0.13635   0.13763   0.01863   0.00000  Uiso   1.00
C9     C     0.25571   0.04403   0.13835   0.00000  Uiso   1.00
C10    C     0.07797   0.28925   0.19512   0.00000  Uiso   1.00
C11    C     0.16645   0.24650   0.16723   0.00000  Uiso   1.00
C12    C     0.06732   0.16739   0.15497   0.00000  Uiso   1.00
C13    C     0.26602   0.16594   0.17837   0.00000  Uiso   1.00
C14    C     0.01306   0.17380   0.15020   0.00000  Uiso   1.00
C15    C     0.32027   0.15952   0.18313   0.00000  Uiso   1.00
C16    C     0.20957   0.02180   0.15208   0.00000  Uiso   1.00
C17    C     0.12399   0.31153   0.18131   0.00000  Uiso   1.00
C18    C     0.20893   0.31197   0.15442   0.00000  Uiso   1.00
H19    H     0.24106   0.29476   0.14471   0.00000  Uiso   1.00
H20    H     0.10257   0.11495   0.06671   0.00000  Uiso   1.00
H21    H     0.09245   0.03854   0.18867   0.00000  Uiso   1.00
H22    H     0.01626   0.20878   0.09731   0.00000  Uiso   1.00
H23    H     0.31707   0.12454   0.23602   0.00000  Uiso   1.00
H24    H     0.00055   0.05311   0.14834   0.00000  Uiso   1.00
H25    H     0.33330   0.27902   0.18434   0.00000  Uiso   1.00
H26    H     0.24635   0.24385   0.04190   0.00000  Uiso   1.00
H27    H     0.08698   0.08948   0.29144   0.00000  Uiso   1.00
H28    H     0.23077   0.21838   0.26663   0.00000  Uiso   1.00
N29    N     0.16665   0.16666   0.28573   0.00000  Uiso   1.00
N30    N     0.16668   0.16668   0.04760   0.00000  Uiso   1.00
O31    O     0.16666   0.10558   0.20487   0.00000  Uiso   1.00
O32    O     0.01031   0.13520   0.21793   0.00000  Uiso   1.00
O33    O     0.25046   0.06863   0.10730   0.00000  Uiso   1.00
O34    O     0.30550   0.03609   0.16055   0.00000  Uiso   1.00
O35    O     0.08328   0.26553   0.22699   0.00000  Uiso   1.00
O36    O     0.02827   0.29602   0.17199   0.00000  Uiso   1.00
O37    O     0.22646   0.22438   0.05893   0.00000  Uiso   1.00
O38    O     0.10688   0.10895   0.27440   0.00000  Uiso   1.00
O39    O     0.22849   0.22562   0.29841   0.00000  Uiso   1.00
O40    O     0.10484   0.10772   0.03492   0.00000  Uiso   1.00
O41    O     0.16667   0.22775   0.12846   0.00000  Uiso   1.00
O42    O     0.16666   0.10559   0.12843   0.00000  Uiso   1.00
O43    O     0.16667   0.22774   0.20490   0.00000  Uiso   1.00
O44    O     0.09058   0.16666   0.19595   0.00000  Uiso   1.00
O45    O     0.24275   0.16667   0.13739   0.00000  Uiso   1.00
O46    O     0.09058   0.16667   0.11950   0.00000  Uiso   1.00
O47    O     0.24275   0.16666   0.21383   0.00000  Uiso   1.00
O48    O     0.32302   0.19812   0.11539   0.00000  Uiso   1.00
Zn49   Zn    0.16667   0.16666   0.21771   0.00000  Uiso   1.00
Zn50   Zn    0.16667   0.16667   0.11563   0.00000  Uiso   1.00
C51    C     0.50032   0.08684   0.16611   0.00000  Uiso   1.00
C52    C     0.45792   0.02135   0.17895   0.00000  Uiso   1.00
C53    C     0.49989   0.29068   0.16861   0.00000  Uiso   1.00
C54    C     0.50029   0.04265   0.16474   0.00000  Uiso   1.00
C55    C     0.52999   0.19570   0.02943   0.00000  Uiso   1.00
C56    C     0.47001   0.13763   0.30391   0.00000  Uiso   1.00
C57    C     0.53032   0.19571   0.31470   0.00000  Uiso   1.00
C58    C     0.46968   0.13763   0.01863   0.00000  Uiso   1.00
C59    C     0.58905   0.04403   0.13835   0.00000  Uiso   1.00
C60    C     0.41130   0.28925   0.19512   0.00000  Uiso   1.00
C61    C     0.49978   0.24650   0.16723   0.00000  Uiso   1.00
C62    C     0.40065   0.16739   0.15497   0.00000  Uiso   1.00
C63    C     0.59935   0.16594   0.17837   0.00000  Uiso   1.00
C64    C     0.34639   0.17380   0.15020   0.00000  Uiso   1.00
C65    C     0.65361   0.15952   0.18313   0.00000  Uiso   1.00
C66    C     0.54290   0.02180   0.15208   0.00000  Uiso   1.00
C67    C     0.45733   0.31153   0.18131   0.00000  Uiso   1.00
C68    C     0.54227   0.31197   0.15442   0.00000  Uiso   1.00
H69    H     0.57439   0.29476   0.14471   0.00000  Uiso   1.00
H70    H     0.43590   0.11495   0.06671   0.00000  Uiso   1.00
H71    H     0.42579   0.03854   0.18867   0.00000  Uiso   1.00
H72    H     0.34959   0.20878   0.09731   0.00000  Uiso   1.00
H73    H     0.65041   0.12454   0.23602   0.00000  Uiso   1.00
H74    H     0.33388   0.05311   0.14834   0.00000  Uiso   1.00
H75    H     0.66663   0.27902   0.18434   0.00000  Uiso   1.00
H76    H     0.57969   0.24385   0.04190   0.00000  Uiso   1.00
H77    H     0.42032   0.08948   0.29144   0.00000  Uiso   1.00
H78    H     0.56410   0.21838   0.26663   0.00000  Uiso   1.00
N79    N     0.49999   0.16666   0.28573   0.00000  Uiso   1.00
N80    N     0.50001   0.16668   0.04760   0.00000  Uiso   1.00
O81    O     0.50000   0.10558   0.20487   0.00000  Uiso   1.00
O82    O     0.34364   0.13520   0.21793   0.00000  Uiso   1.00
O83    O     0.58379   0.06863   0.10730   0.00000  Uiso   1.00
O84    O     0.63883   0.03609   0.16055   0.00000  Uiso   1.00
O85    O     0.41661   0.26553   0.22699   0.00000  Uiso   1.00
O86    O     0.36160   0.29602   0.17199   0.00000  Uiso   1.00
O87    O     0.55979   0.22438   0.05893   0.00000  Uiso   1.00
O88    O     0.44021   0.10895   0.27440   0.00000  Uiso   1.00
O89    O     0.56182   0.22562   0.29841   0.00000  Uiso   1.00
O90    O     0.43818   0.10772   0.03492   0.00000  Uiso   1.00
O91    O     0.50000   0.22775   0.12846   0.00000  Uiso   1.00
O92    O     0.50000   0.10559   0.12843   0.00000  Uiso   1.00
O93    O     0.50000   0.22774   0.20490   0.00000  Uiso   1.00
O94    O     0.42392   0.16666   0.19595   0.00000  Uiso   1.00
O95    O     0.57608   0.16667   0.13739   0.00000  Uiso   1.00
O96    O     0.42392   0.16667   0.11950   0.00000  Uiso   1.00
O97    O     0.57608   0.16666   0.21383   0.00000  Uiso   1.00
O98    O     0.65635   0.19812   0.11539   0.00000  Uiso   1.00
Zn99   Zn    0.50000   0.16666   0.21771   0.00000  Uiso   1.00
Zn100  Zn    0.50000   0.16667   0.11563   0.00000  Uiso   1.00
C101   C     0.83365   0.08684   0.16611   0.00000  Uiso   1.00
C102   C     0.79126   0.02135   0.17895   0.00000  Uiso   1.00
C103   C     0.83322   0.29068   0.16861   0.00000  Uiso   1.00
C104   C     0.83362   0.04265   0.16474   0.00000  Uiso   1.00
C105   C     0.86333   0.19570   0.02943   0.00000  Uiso   1.00
C106   C     0.80334   0.13763   0.30391   0.00000  Uiso   1.00
C107   C     0.86365   0.19571   0.31470   0.00000  Uiso   1.00
C108   C     0.80301   0.13763   0.01863   0.00000  Uiso   1.00
C109   C     0.92238   0.04403   0.13835   0.00000  Uiso   1.00
C110   C     0.74463   0.28925   0.19512   0.00000  Uiso   1.00
C111   C     0.83312   0.24650   0.16723   0.00000  Uiso   1.00
C112   C     0.73398   0.16739   0.15497   0.00000  Uiso   1.00
C113   C     0.93268   0.16594   0.17837   0.00000  Uiso   1.00
C114   C     0.67973   0.17380   0.15020   0.00000  Uiso   1.00
C115   C     0.98694   0.15952   0.18313   0.00000  Uiso   1.00
C116   C     0.87623   0.02180   0.15208   0.00000  Uiso   1.00
C117   C     0.79066   0.31153   0.18131   0.00000  Uiso   1.00
C118   C     0.87560   0.31197   0.15442   0.00000  Uiso   1.00
H119   H     0.90773   0.29476   0.14471   0.00000  Uiso   1.00
H120   H     0.76923   0.11495   0.06671   0.00000  Uiso   1.00
H121   H     0.75912   0.03854   0.18867   0.00000  Uiso   1.00
H122   H     0.68292   0.20878   0.09731   0.00000  Uiso   1.00
H123   H     0.98374   0.12454   0.23602   0.00000  Uiso   1.00
H124   H     0.66721   0.05311   0.14834   0.00000  Uiso   1.00
H125   H     0.99996   0.27902   0.18434   0.00000  Uiso   1.00
H126   H     0.91302   0.24385   0.04190   0.00000  Uiso   1.00
H127   H     0.75365   0.08948   0.29144   0.00000  Uiso   1.00
H128   H     0.89744   0.21838   0.26663   0.00000  Uiso   1.00
N129   N     0.83332   0.16666   0.28573   0.00000  Uiso   1.00
N130   N     0.83335   0.16668   0.04760   0.00000  Uiso   1.00
O131   O     0.83333   0.10558   0.20487   0.00000  Uiso   1.00
O132   O     0.67698   0.13520   0.21793   0.00000  Uiso   1.00
O133   O     0.91713   0.06863   0.10730   0.00000  Uiso   1.00
O134   O     0.97217   0.03609   0.16055   0.00000  Uiso   1.00
O135   O     0.74995   0.26553   0.22699   0.00000  Uiso   1.00
O136   O     0.69493   0.29602   0.17199   0.00000  Uiso   1.00
O137   O     0.89312   0.22438   0.05893   0.00000  Uiso   1.00
O138   O     0.77354   0.10895   0.27440   0.00000  Uiso   1.00
O139   O     0.89515   0.22562   0.29841   0.00000  Uiso   1.00
O140   O     0.77151   0.10772   0.03492   0.00000  Uiso   1.00
O141   O     0.83334   0.22775   0.12846   0.00000  Uiso   1.00
O142   O     0.83333   0.10559   0.12843   0.00000  Uiso   1.00
O143   O     0.83334   0.22774   0.20490   0.00000  Uiso   1.00
O144   O     0.75725   0.16666   0.19595   0.00000  Uiso   1.00
O145   O     0.90942   0.16667   0.13739   0.00000  Uiso   1.00
O146   O     0.75725   0.16667   0.11950   0.00000  Uiso   1.00
O147   O     0.90942   0.16666   0.21383   0.00000  Uiso   1.00
O148   O     0.98969   0.19812   0.11539   0.00000  Uiso   1.00
Zn149  Zn    0.83333   0.16666   0.21771   0.00000  Uiso   1.00
Zn150  Zn    0.83333   0.16667   0.11563   0.00000  Uiso   1.00
C151   C     0.16699   0.42017   0.16611   0.00000  Uiso   1.00
C152   C     0.12459   0.35468   0.17895   0.00000  Uiso   1.00
C153   C     0.16655   0.62401   0.16861   0.00000  Uiso   1.00
C154   C     0.16696   0.37599   0.16474   0.00000  Uiso   1.00
C155   C     0.19666   0.52904   0.02943   0.00000  Uiso   1.00
C156   C     0.13667   0.47096   0.30391   0.00000  Uiso   1.00
C157   C     0.19699   0.52904   0.31470   0.00000  Uiso   1.00
C158   C     0.13635   0.47096   0.01863   0.00000  Uiso   1.00
C159   C     0.25571   0.37736   0.13835   0.00000  Uiso   1.00
C160   C     0.07797   0.62258   0.19512   0.00000  Uiso   1.00
C161   C     0.16645   0.57983   0.16723   0.00000  Uiso   1.00
C162   C     0.06732   0.50073   0.15497   0.00000  Uiso   1.00
C163   C     0.26602   0.49927   0.17837   0.00000  Uiso   1.00
C164   C     0.01306   0.50714   0.15020   0.00000  Uiso   1.00
C165   C     0.32027   0.49286   0.18313   0.00000  Uiso   1.00
C166   C     0.20957   0.35514   0.15208   0.00000  Uiso   1.00
C167   C     0.12399   0.64486   0.18131   0.00000  Uiso   1.00
C168   C     0.20893   0.64531   0.15442   0.00000  Uiso   1.00
H169   H     0.24106   0.62809   0.14471   0.00000  Uiso   1.00
H170   H     0.10257   0.44828   0.06671   0.00000  Uiso   1.00
H171   H     0.09245   0.37187   0.18867   0.00000  Uiso   1.00
H172   H     0.01626   0.54211   0.09731   0.00000  Uiso   1.00
H173   H     0.31707   0.45787   0.23602   0.00000  Uiso   1.00
H174   H     0.00055   0.38645   0.14834   0.00000  Uiso   1.00
H175   H     0.33330   0.61235   0.18434   0.00000  Uiso   1.00
H176   H     0.24635   0.57719   0.04190   0.00000  Uiso   1.00
H177   H     0.08698   0.42281   0.29144   0.00000  Uiso   1.00
H178   H     0.23077   0.55172   0.26663   0.00000  Uiso   1.00
N179   N     0.16665   0.49999   0.28573   0.00000  Uiso   1.00
N180   N     0.16668   0.50001   0.04760   0.00000  Uiso   1.00
O181   O     0.16666   0.43892   0.20487   0.00000  Uiso   1.00
O182   O     0.01031   0.46853   0.21793   0.00000  Uiso   1.00
O183   O     0.25046   0.40196   0.10730   0.00000  Uiso   1.00
O184   O     0.30550   0.36942   0.16055   0.00000  Uiso   1.00
O185   O     0.08328   0.59887   0.22699   0.00000  Uiso   1.00
O186   O     0.02827   0.62935   0.17199   0.00000  Uiso   1.00
O187   O     0.22646   0.55771   0.05893   0.00000  Uiso   1.00
O188   O     0.10688   0.44229   0.27440   0.00000  Uiso   1.00
O189   O     0.22849   0.55895   0.29841   0.00000  Uiso   1.00
O190   O     0.10484   0.44105   0.03492   0.00000  Uiso   1.00
O191   O     0.16667   0.56108   0.12846   0.00000  Uiso   1.00
O192   O     0.16666   0.43893   0.12843   0.00000  Uiso   1.00
O193   O     0.16667   0.56107   0.20490   0.00000  Uiso   1.00
O194   O     0.09058   0.50000   0.19595   0.00000  Uiso   1.00
O195   O     0.24275   0.50000   0.13739   0.00000  Uiso   1.00
O196   O     0.09058   0.50000   0.11950   0.00000  Uiso   1.00
O197   O     0.24275   0.50000   0.21383   0.00000  Uiso   1.00
O198   O     0.32302   0.53145   0.11539   0.00000  Uiso   1.00
Zn199  Zn    0.16667   0.49999   0.21771   0.00000  Uiso   1.00
Zn200  Zn    0.16667   0.50001   0.11563   0.00000  Uiso   1.00
C201   C     0.50032   0.42017   0.16611   0.00000  Uiso   1.00
C202   C     0.45792   0.35468   0.17895   0.00000  Uiso   1.00
C203   C     0.49989   0.62401   0.16861   0.00000  Uiso   1.00
C204   C     0.50029   0.37599   0.16474   0.00000  Uiso   1.00
C205   C     0.52999   0.52904   0.02943   0.00000  Uiso   1.00
C206   C     0.47001   0.47096   0.30391   0.00000  Uiso   1.00
C207   C     0.53032   0.52904   0.31470   0.00000  Uiso   1.00
C208   C     0.46968   0.47096   0.01863   0.00000  Uiso   1.00
C209   C     0.58905   0.37736   0.13835   0.00000  Uiso   1.00
C210   C     0.41130   0.62258   0.19512   0.00000  Uiso   1.00
C211   C     0.49978   0.57983   0.16723   0.00000  Uiso   1.00
C212   C     0.40065   0.50073   0.15497   0.00000  Uiso   1.00
C213   C     0.59935   0.49927   0.17837   0.00000  Uiso   1.00
C214   C     0.34639   0.50714   0.15020   0.00000  Uiso   1.00
C215   C     0.65361   0.49286   0.18313   0.00000  Uiso   1.00
C216   C     0.54290   0.35514   0.15208   0.00000  Uiso   1.00
C217   C     0.45733   0.64486   0.18131   0.00000  Uiso   1.00
C218   C     0.54227   0.64531   0.15442   0.00000  Uiso   1.00
H219   H     0.57439   0.62809   0.14471   0.00000  Uiso   1.00
H220   H     0.43590   0.44828   0.06671   0.00000  Uiso   1.00
H221   H     0.42579   0.37187   0.18867   0.00000  Uiso   1.00
H222   H     0.34959   0.54211   0.09731   0.00000  Uiso   1.00
H223   H     0.65041   0.45787   0.23602   0.00000  Uiso   1.00
H224   H     0.33388   0.38645   0.14834   0.00000  Uiso   1.00
H225   H     0.66663   0.61235   0.18434   0.00000  Uiso   1.00
H226   H     0.57969   0.57719   0.04190   0.00000  Uiso   1.00
H227   H     0.42032   0.42281   0.29144   0.00000  Uiso   1.00
H228   H     0.56410   0.55172   0.26663   0.00000  Uiso   1.00
N229   N     0.49999   0.49999   0.28573   0.00000  Uiso   1.00
N230   N     0.50001   0.50001   0.04760   0.00000  Uiso   1.00
O231   O     0.50000   0.43892   0.20487   0.00000  Uiso   1.00
O232   O     0.34364   0.46853   0.21793   0.00000  Uiso   1.00
O233   O     0.58379   0.40196   0.10730   0.00000  Uiso   1.00
O234   O     0.63883   0.36942   0.16055   0.00000  Uiso   1.00
O235   O     0.41661   0.59887   0.22699   0.00000  Uiso   1.00
O236   O     0.36160   0.62935   0.17199   0.00000  Uiso   1.00
O237   O     0.55979   0.55771   0.05893   0.00000  Uiso   1.00
O238   O     0.44021   0.44229   0.27440   0.00000  Uiso   1.00
O239   O     0.56182   0.55895   0.29841   0.00000  Uiso   1.00
O240   O     0.43818   0.44105   0.03492   0.00000  Uiso   1.00
O241   O     0.50000   0.56108   0.12846   0.00000  Uiso   1.00
O242   O     0.50000   0.43893   0.12843   0.00000  Uiso   1.00
O243   O     0.50000   0.56107   0.20490   0.00000  Uiso   1.00
O244   O     0.42392   0.50000   0.19595   0.00000  Uiso   1.00
O245   O     0.57608   0.50000   0.13739   0.00000  Uiso   1.00
O246   O     0.42392   0.50000   0.11950   0.00000  Uiso   1.00
O247   O     0.57608   0.50000   0.21383   0.00000  Uiso   1.00
O248   O     0.65635   0.53145   0.11539   0.00000  Uiso   1.00
Zn249  Zn    0.50000   0.49999   0.21771   0.00000  Uiso   1.00
Zn250  Zn    0.50000   0.50001   0.11563   0.00000  Uiso   1.00
C251   C     0.83365   0.42017   0.16611   0.00000  Uiso   1.00
C252   C     0.79126   0.35468   0.17895   0.00000  Uiso   1.00
C253   C     0.83322   0.62401   0.16861   0.00000  Uiso   1.00
C254   C     0.83362   0.37599   0.16474   0.00000  Uiso   1.00
C255   C     0.86333   0.52904   0.02943   0.00000  Uiso   1.00
C256   C     0.80334   0.47096   0.30391   0.00000  Uiso   1.00
C257   C     0.86365   0.52904   0.31470   0.00000  Uiso   1.00
C258   C     0.80301   0.47096   0.01863   0.00000  Uiso   1.00
C259   C     0.92238   0.37736   0.13835   0.00000  Uiso   1.00
C260   C     0.74463   0.62258   0.19512   0.00000  Uiso   1.00
C261   C     0.83312   0.57983   0.16723   0.00000  Uiso   1.00
C262   C     0.73398   0.50073   0.15497   0.00000  Uiso   1.00
C263   C     0.93268   0.49927   0.17837   0.00000  Uiso   1.00
C264   C     0.67973   0.50714   0.15020   0.00000  Uiso   1.00
C265   C     0.98694   0.49286   0.18313   0.00000  Uiso   1.00
C266   C     0.87623   0.35514   0.15208   0.00000  Uiso   1.00
C267   C     0.79066   0.64486   0.18131   0.00000  Uiso   1.00
C268   C     0.87560   0.64531   0.15442   0.00000  Uiso   1.00
H269   H     0.90773   0.62809   0.14471   0.00000  Uiso   1.00
H270   H     0.76923   0.44828   0.06671   0.00000  Uiso   1.00
H271   H     0.75912   0.37187   0.18867   0.00000  Uiso   1.00
H272   H     0.68292   0.54211   0.09731   0.00000  Uiso   1.00
H273   H     0.98374   0.45787   0.23602   0.00000  Uiso   1.00
H274   H     0.66721   0.38645   0.14834   0.00000  Uiso   1.00
H275   H     0.99996   0.61235   0.18434   0.00000  Uiso   1.00
H276   H     0.91302   0.57719   0.04190   0.00000  Uiso   1.00
H277   H     0.75365   0.42281   0.29144   0.00000  Uiso   1.00
H278   H     0.89744   0.55172   0.26663   0.00000  Uiso   1.00
N279   N     0.83332   0.49999   0.28573   0.00000  Uiso   1.00
N280   N     0.83335   0.50001   0.04760   0.00000  Uiso   1.00
O281   O     0.83333   0.43892   0.20487   0.00000  Uiso   1.00
O282   O     0.67698   0.46853   0.21793   0.00000  Uiso   1.00
O283   O     0.91713   0.40196   0.10730   0.00000  Uiso   1.00
O284   O     0.97217   0.36942   0.16055   0.00000  Uiso   1.00
O285   O     0.74995   0.59887   0.22699   0.00000  Uiso   1.00
O286   O     0.69493   0.62935   0.17199   0.00000  Uiso   1.00
O287   O     0.89312   0.55771   0.05893   0.00000  Uiso   1.00
O288   O     0.77354   0.44229   0.27440   0.00000  Uiso   1.00
O289   O     0.89515   0.55895   0.29841   0.00000  Uiso   1.00
O290   O     0.77151   0.44105   0.03492   0.00000  Uiso   1.00
O291   O     0.83334   0.56108   0.12846   0.00000  Uiso   1.00
O292   O     0.83333   0.43893   0.12843   0.00000  Uiso   1.00
O293   O     0.83334   0.56107   0.20490   0.00000  Uiso   1.00
O294   O     0.75725   0.50000   0.19595   0.00000  Uiso   1.00
O295   O     0.90942   0.50000   0.13739   0.00000  Uiso   1.00
O296   O     0.75725   0.50000   0.11950   0.00000  Uiso   1.00
O297   O     0.90942   0.50000   0.21383   0.00000  Uiso   1.00
O298   O     0.98969   0.53145   0.11539   0.00000  Uiso   1.00
Zn299  Zn    0.83333   0.49999   0.21771   0.00000  Uiso   1.00
Zn300  Zn    0.83333   0.50001   0.11563   0.00000  Uiso   1.00
C301   C     0.16699   0.75351   0.16611   0.00000  Uiso   1.00
C302   C     0.12459   0.68802   0.17895   0.00000  Uiso   1.00
C303   C     0.16655   0.95735   0.16861   0.00000  Uiso   1.00
C304   C     0.16696   0.70932   0.16474   0.00000  Uiso   1.00
C305   C     0.19666   0.86237   0.02943   0.00000  Uiso   1.00
C306   C     0.13667   0.80430   0.30391   0.00000  Uiso   1.00
C307   C     0.19699   0.86238   0.31470   0.00000  Uiso   1.00
C308   C     0.13635   0.80429   0.01863   0.00000  Uiso   1.00
C309   C     0.25571   0.71069   0.13835   0.00000  Uiso   1.00
C310   C     0.07797   0.95592   0.19512   0.00000  Uiso   1.00
C311   C     0.16645   0.91316   0.16723   0.00000  Uiso   1.00
C312   C     0.06732   0.83406   0.15497   0.00000  Uiso   1.00
C313   C     0.26602   0.83261   0.17837   0.00000  Uiso   1.00
C314   C     0.01306   0.84047   0.15020   0.00000  Uiso   1.00
C315   C     0.32027   0.82619   0.18313   0.00000  Uiso   1.00
C316   C     0.20957   0.68847   0.15208   0.00000  Uiso   1.00
C317   C     0.12399   0.97820   0.18131   0.00000  Uiso   1.00
C318   C     0.20893   0.97864   0.15442   0.00000  Uiso   1.00
H319   H     0.24106   0.96143   0.14471   0.00000  Uiso   1.00
H320   H     0.10257   0.78162   0.06671   0.00000  Uiso   1.00
H321   H     0.09245   0.70521   0.18867   0.00000  Uiso   1.00
H322   H     0.01626   0.87545   0.09731   0.00000  Uiso   1.00
H323   H     0.31707   0.79121   0.23602   0.00000  Uiso   1.00
H324   H     0.00055   0.71978   0.14834   0.00000  Uiso   1.00
H325   H     0.33330   0.94568   0.18434   0.00000  Uiso   1.00
H326   H     0.24635   0.91052   0.04190   0.00000  Uiso   1.00
H327   H     0.08698   0.75615   0.29144   0.00000  Uiso   1.00
H328   H     0.23077   0.88505   0.26663   0.00000  Uiso   1.00
N329   N     0.16665   0.83332   0.28573   0.00000  Uiso   1.00
N330   N     0.16668   0.83334   0.04760   0.00000  Uiso   1.00
O331   O     0.16666   0.77225   0.20487   0.00000  Uiso   1.00
O332   O     0.01031   0.80186   0.21793   0.00000  Uiso   1.00
O333   O     0.25046   0.73530   0.10730   0.00000  Uiso   1.00
O334   O     0.30550   0.70275   0.16055   0.00000  Uiso   1.00
O335   O     0.08328   0.93220   0.22699   0.00000  Uiso   1.00
O336   O     0.02827   0.96269   0.17199   0.00000  Uiso   1.00
O337   O     0.22646   0.89105   0.05893   0.00000  Uiso   1.00
O338   O     0.10688   0.77562   0.27440   0.00000  Uiso   1.00
O339   O     0.22849   0.89229   0.29841   0.00000  Uiso   1.00
O340   O     0.10484   0.77438   0.03492   0.00000  Uiso   1.00
O341   O     0.16667   0.89442   0.12846   0.00000  Uiso   1.00
O342   O     0.16666   0.77226   0.12843   0.00000  Uiso   1.00
O343   O     0.16667   0.89441   0.20490   0.00000  Uiso   1.00
O344   O     0.09058   0.83333   0.19595   0.00000  Uiso   1.00
O345   O     0.24275   0.83334   0.13739   0.00000  Uiso   1.00
O346   O     0.09058   0.83334   0.11950   0.00000  Uiso   1.00
O347   O     0.24275   0.83333   0.21383   0.00000  Uiso   1.00
O348   O     0.32302   0.86479   0.11539   0.00000  Uiso   1.00
Zn349  Zn    0.16667   0.83333   0.21771   0.00000  Uiso   1.00
Zn350  Zn    0.16667   0.83334   0.11563   0.00000  Uiso   1.00
C351   C     0.50032   0.75351   0.16611   0.00000  Uiso   1.00
C352   C     0.45792   0.68802   0.17895   0.00000  Uiso   1.00
C353   C     0.49989   0.95735   0.16861   0.00000  Uiso   1.00
C354   C     0.50029   0.70932   0.16474   0.00000  Uiso   1.00
C355   C     0.52999   0.86237   0.02943   0.00000  Uiso   1.00
C356   C     0.47001   0.80430   0.30391   0.00000  Uiso   1.00
C357   C     0.53032   0.86238   0.31470   0.00000  Uiso   1.00
C358   C     0.46968   0.80429   0.01863   0.00000  Uiso   1.00
C359   C     0.58905   0.71069   0.13835   0.00000  Uiso   1.00
C360   C     0.41130   0.95592   0.19512   0.00000  Uiso   1.00
C361   C     0.49978   0.91316   0.16723   0.00000  Uiso   1.00
C362   C     0.40065   0.83406   0.15497   0.00000  Uiso   1.00
C363   C     0.59935   0.83261   0.17837   0.00000  Uiso   1.00
C364   C     0.34639   0.84047   0.15020   0.00000  Uiso   1.00
C365   C     0.65361   0.82619   0.18313   0.00000  Uiso   1.00
C366   C     0.54290   0.68847   0.15208   0.00000  Uiso   1.00
C367   C     0.45733   0.97820   0.18131   0.00000  Uiso   1.00
C368   C     0.54227   0.97864   0.15442   0.00000  Uiso   1.00
H369   H     0.57439   0.96143   0.14471   0.00000  Uiso   1.00
H370   H     0.43590   0.78162   0.06671   0.00000  Uiso   1.00
H371   H     0.42579   0.70521   0.18867   0.00000  Uiso   1.00
H372   H     0.34959   0.87545   0.09731   0.00000  Uiso   1.00
H373   H     0.65041   0.79121   0.23602   0.00000  Uiso   1.00
H374   H     0.33388   0.71978   0.14834   0.00000  Uiso   1.00
H375   H     0.66663   0.94568   0.18434   0.00000  Uiso   1.00
H376   H     0.57969   0.91052   0.04190   0.00000  Uiso   1.00
H377   H     0.42032   0.75615   0.29144   0.00000  Uiso   1.00
H378   H     0.56410   0.88505   0.26663   0.00000  Uiso   1.00
N379   N     0.49999   0.83332   0.28573   0.00000  Uiso   1.00
N380   N     0.50001   0.83334   0.04760   0.00000  Uiso   1.00
O381   O     0.50000   0.77225   0.20487   0.00000  Uiso   1.00
O382   O     0.34364   0.80186   0.21793   0.00000  Uiso   1.00
O383   O     0.58379   0.73530   0.10730   0.00000  Uiso   1.00
O384   O     0.63883   0.70275   0.16055   0.00000  Uiso   1.00
O385   O     0.41661   0.93220   0.22699   0.00000  Uiso   1.00
O386   O     0.36160   0.96269   0.17199   0.00000  Uiso   1.00
O387   O     0.55979   0.89105   0.05893   0.00000  Uiso   1.00
O388   O     0.44021   0.77562   0.27440   0.00000  Uiso   1.00
O389   O     0.56182   0.89229   0.29841   0.00000  Uiso   1.00
O390   O     0.43818   0.77438   0.03492   0.00000  Uiso   1.00
O391   O     0.50000   0.89442   0.12846   0.00000  Uiso   1.00
O392   O     0.50000   0.77226   0.12843   0.00000  Uiso   1.00
O393   O     0.50000   0.89441   0.20490   0.00000  Uiso   1.00
O394   O     0.42392   0.83333   0.19595   0.00000  Uiso   1.00
O395   O     0.57608   0.83334   0.13739   0.00000  Uiso   1.00
O396   O     0.42392   0.83334   0.11950   0.00000  Uiso   1.00
O397   O     0.57608   0.83333   0.21383   0.00000  Uiso   1.00
O398   O     0.65635   0.86479   0.11539   0.00000  Uiso   1.00
Zn399  Zn    0.50000   0.83333   0.21771   0.00000  Uiso   1.00
Zn400  Zn    0.50000   0.83334   0.11563   0.00000  Uiso   1.00
C401   C     0.83365   0.75351   0.16611   0.00000  Uiso   1.00
C402   C     0.79126   0.68802   0.17895   0.00000  Uiso   1.00
C403   C     0.83322   0.95735   0.16861   0.00000  Uiso   1.00
C404   C     0.83362   0.70932   0.16474   0.00000  Uiso   1.00
C405   C     0.86333   0.86237   0.02943   0.00000  Uiso   1.00
C406   C     0.80334   0.80430   0.30391   0.00000  Uiso   1.00
C407   C     0.86365   0.86238   0.31470   0.00000  Uiso   1.00
C408   C     0.80301   0.80429   0.01863   0.00000  Uiso   1.00
C409   C     0.92238   0.71069   0.13835   0.00000  Uiso   1.00
C410   C     0.74463   0.95592   0.19512   0.00000  Uiso   1.00
C411   C     0.83312   0.91316   0.16723   0.00000  Uiso   1.00
C412   C     0.73398   0.83406   0.15497   0.00000  Uiso   1.00
C413   C     0.93268   0.83261   0.17837   0.00000  Uiso   1.00
C414   C     0.67973   0.84047   0.15020   0.00000  Uiso   1.00
C415   C     0.98694   0.82619   0.18313   0.00000  Uiso   1.00
C416   C     0.87623   0.68847   0.15208   0.00000  Uiso   1.00
C417   C     0.79066   0.97820   0.18131   0.00000  Uiso   1.00
C418   C     0.87560   0.97864   0.15442   0.00000  Uiso   1.00
H419   H     0.90773   0.96143   0.14471   0.00000  Uiso   1.00
H420   H     0.76923   0.78162   0.06671   0.00000  Uiso   1.00
H421   H     0.75912   0.70521   0.18867   0.00000  Uiso   1.00
H422   H     0.68292   0.87545   0.09731   0.00000  Uiso   1.00
H423   H     0.98374   0.79121   0.23602   0.00000  Uiso   1.00
H424   H     0.66721   0.71978   0.14834   0.00000  Uiso   1.00
H425   H     0.99996   0.94568   0.18434   0.00000  Uiso   1.00
H426   H     0.91302   0.91052   0.04190   0.00000  Uiso   1.00
H427   H     0.75365   0.75615   0.29144   0.00000  Uiso   1.00
H428   H     0.89744   0.88505   0.26663   0.00000  Uiso   1.00
N429   N     0.83332   0.83332   0.28573   0.00000  Uiso   1.00
N430   N     0.83335   0.83334   0.04760   0.00000  Uiso   1.00
O431   O     0.83333   0.77225   0.20487   0.00000  Uiso   1.00
O432   O     0.67698   0.80186   0.21793   0.00000  Uiso   1.00
O433   O     0.91713   0.73530   0.10730   0.00000  Uiso   1.00
O434   O     0.97217   0.70275   0.16055   0.00000  Uiso   1.00
O435   O     0.74995   0.93220   0.22699   0.00000  Uiso   1.00
O436   O     0.69493   0.96269   0.17199   0.00000  Uiso   1.00
O437   O     0.89312   0.89105   0.05893   0.00000  Uiso   1.00
O438   O     0.77354   0.77562   0.27440   0.00000  Uiso   1.00
O439   O     0.89515   0.89229   0.29841   0.00000  Uiso   1.00
O440   O     0.77151   0.77438   0.03492   0.00000  Uiso   1.00
O441   O     0.83334   0.89442   0.12846   0.00000  Uiso   1.00
O442   O     0.83333   0.77226   0.12843   0.00000  Uiso   1.00
O443   O     0.83334   0.89441   0.20490   0.00000  Uiso   1.00
O444   O     0.75725   0.83333   0.19595   0.00000  Uiso   1.00
O445   O     0.90942   0.83334   0.13739   0.00000  Uiso   1.00
O446   O     0.75725   0.83334   0.11950   0.00000  Uiso   1.00
O447   O     0.90942   0.83333   0.21383   0.00000  Uiso   1.00
O448   O     0.98969   0.86479   0.11539   0.00000  Uiso   1.00
Zn449  Zn    0.83333   0.83333   0.21771   0.00000  Uiso   1.00
Zn450  Zn    0.83333   0.83334   0.11563   0.00000  Uiso   1.00
C451   C     0.16699   0.08684   0.49944   0.00000  Uiso   1.00
C452   C     0.12459   0.02135   0.51228   0.00000  Uiso   1.00
C453   C     0.16655   0.29068   0.50195   0.00000  Uiso   1.00
C454   C     0.16696   0.04265   0.49807   0.00000  Uiso   1.00
C455   C     0.19666   0.19570   0.36276   0.00000  Uiso   1.00
C456   C     0.13667   0.13763   0.63724   0.00000  Uiso   1.00
C457   C     0.19699   0.19571   0.64803   0.00000  Uiso   1.00
C458   C     0.13635   0.13763   0.35196   0.00000  Uiso   1.00
C459   C     0.25571   0.04403   0.47169   0.00000  Uiso   1.00
C460   C     0.07797   0.28925   0.52846   0.00000  Uiso   1.00
C461   C     0.16645   0.24650   0.50057   0.00000  Uiso   1.00
C462   C     0.06732   0.16739   0.48830   0.00000  Uiso   1.00
C463   C     0.26602   0.16594   0.51170   0.00000  Uiso   1.00
C464   C     0.01306   0.17380   0.48353   0.00000  Uiso   1.00
C465   C     0.32027   0.15952   0.51647   0.00000  Uiso   1.00
C466   C     0.20957   0.02180   0.48542   0.00000  Uiso   1.00
C467   C     0.12399   0.31153   0.51464   0.00000  Uiso   1.00
C468   C     0.20893   0.31197   0.48776   0.00000  Uiso   1.00
H469   H     0.24106   0.29476   0.47805   0.00000  Uiso   1.00
H470   H     0.10257   0.11495   0.40004   0.00000  Uiso   1.00
H471   H     0.09245   0.03854   0.52200   0.00000  Uiso   1.00
H472   H     0.01626   0.20878   0.43064   0.00000  Uiso   1.00
H473   H     0.31707   0.12454   0.56935   0.00000  Uiso   1.00
H474   H     0.00055   0.05311   0.48167   0.00000  Uiso   1.00
H475   H     0.33330   0.27902   0.51768   0.00000  Uiso   1.00
H476   H     0.24635   0.24385   0.37523   0.00000  Uiso   1.00
H477   H     0.08698   0.08948   0.62477   0.00000  Uiso   1.00
H478   H     0.23077   0.21838   0.59996   0.00000  Uiso   1.00
N479   N     0.16665   0.16666   0.61907   0.00000  Uiso   1.00
N480   N     0.16668   0.16668   0.38093   0.00000  Uiso   1.00
O481   O     0.16666   0.10558   0.53821   0.00000  Uiso   1.00
O482   O     0.01031   0.13520   0.55126   0.00000  Uiso   1.00
O483   O     0.25046   0.06863   0.44064   0.00000  Uiso   1.00
O484   O     0.30550   0.03609   0.49389   0.00000  Uiso   1.00
O485   O     0.08328   0.26553   0.56032   0.00000  Uiso   1.00
O486   O     0.02827   0.29602   0.50532   0.00000  Uiso   1.00
O487   O     0.22646   0.22438   0.39227   0.00000  Uiso   1.00
O488   O     0.10688   0.10895   0.60773   0.00000  Uiso   1.00
O489   O     0.22849   0.22562   0.63174   0.00000  Uiso   1.00
O490   O     0.10484   0.10772   0.36825   0.00000  Uiso   1.00
O491   O     0.16667   0.22775   0.46179   0.00000  Uiso   1.00
O492   O     0.16666   0.10559   0.46176   0.00000  Uiso   1.00
O493   O     0.16667   0.22774   0.53824   0.00000  Uiso   1.00
O494   O     0.09058   0.16666   0.52928   0.00000  Uiso   1.00
O495   O     0.24275   0.16667   0.47072   0.00000  Uiso   1.00
O496   O     0.09058   0.16667   0.45284   0.00000  Uiso   1.00
O497   O     0.24275   0.16666   0.54716   0.00000  Uiso   1.00
O498   O     0.32302   0.19812   0.44872   0.00000  Uiso   1.00
Zn499  Zn    0.16667   0.16666   0.55104   0.00000  Uiso   1.00
Zn500  Zn    0.16667   0.16667   0.44896   0.00000  Uiso   1.00
C501   C     0.50032   0.08684   0.49944   0.00000  Uiso   1.00
C502   C     0.45792   0.02135   0.51228   0.00000  Uiso   1.00
C503   C     0.49989   0.29068   0.50195   0.00000  Uiso   1.00
C504   C     0.50029   0.04265   0.49807   0.00000  Uiso   1.00
C505   C     0.52999   0.19570   0.36276   0.00000  Uiso   1.00
C506   C     0.47001   0.13763   0.63724   0.00000  Uiso   1.00
C507   C     0.53032   0.19571   0.64803   0.00000  Uiso   1.00
C508   C     0.46968   0.13763   0.35196   0.00000  Uiso   1.00
C509   C     0.58905   0.04403   0.47169   0.00000  Uiso   1.00
C510   C     0.41130   0.28925   0.52846   0.00000  Uiso   1.00
C511   C     0.49978   0.24650   0.50057   0.00000  Uiso   1.00
C512   C     0.40065   0.16739   0.48830   0.00000  Uiso   1.00
C513   C     0.59935   0.16594   0.51170   0.00000  Uiso   1.00
C514   C     0.34639   0.17380   0.48353   0.00000  Uiso   1.00
C515   C     0.65361   0.15952   0.51647   0.00000  Uiso   1.00
C516   C     0.54290   0.02180   0.48542   0.00000  Uiso   1.00
C517   C     0.45733   0.31153   0.51464   0.00000  Uiso   1.00
C518   C     0.54227   0.31197   0.48776   0.00000  Uiso   1.00
H519   H     0.57439   0.29476   0.47805   0.00000  Uiso   1.00
H520   H     0.43590   0.11495   0.40004   0.00000  Uiso   1.00
H521   H     0.42579   0.03854   0.52200   0.00000  Uiso   1.00
H522   H     0.34959   0.20878   0.43064   0.00000  Uiso   1.00
H523   H     0.65041   0.12454   0.56935   0.00000  Uiso   1.00
H524   H     0.33388   0.05311   0.48167   0.00000  Uiso   1.00
H525   H     0.66663   0.27902   0.51768   0.00000  Uiso   1.00
H526   H     0.57969   0.24385   0.37523   0.00000  Uiso   1.00
H527   H     0.42032   0.08948   0.62477   0.00000  Uiso   1.00
H528   H     0.56410   0.21838   0.59996   0.00000  Uiso   1.00
N529   N     0.49999   0.16666   0.61907   0.00000  Uiso   1.00
N530   N     0.50001   0.16668   0.38093   0.00000  Uiso   1.00
O531   O     0.50000   0.10558   0.53821   0.00000  Uiso   1.00
O532   O     0.34364   0.13520   0.55126   0.00000  Uiso   1.00
O533   O     0.58379   0.06863   0.44064   0.00000  Uiso   1.00
O534   O     0.63883   0.03609   0.49389   0.00000  Uiso   1.00
O535   O     0.41661   0.26553   0.56032   0.00000  Uiso   1.00
O536   O     0.36160   0.29602   0.50532   0.00000  Uiso   1.00
O537   O     0.55979   0.22438   0.39227   0.00000  Uiso   1.00
O538   O     0.44021   0.10895   0.60773   0.00000  Uiso   1.00
O539   O     0.56182   0.22562   0.63174   0.00000  Uiso   1.00
O540   O     0.43818   0.10772   0.36825   0.00000  Uiso   1.00
O541   O     0.50000   0.22775   0.46179   0.00000  Uiso   1.00
O542   O     0.50000   0.10559   0.46176   0.00000  Uiso   1.00
O543   O     0.50000   0.22774   0.53824   0.00000  Uiso   1.00
O544   O     0.42392   0.16666   0.52928   0.00000  Uiso   1.00
O545   O     0.57608   0.16667   0.47072   0.00000  Uiso   1.00
O546   O     0.42392   0.16667   0.45284   0.00000  Uiso   1.00
O547   O     0.57608   0.16666   0.54716   0.00000  Uiso   1.00
O548   O     0.65635   0.19812   0.44872   0.00000  Uiso   1.00
Zn549  Zn    0.50000   0.16666   0.55104   0.00000  Uiso   1.00
Zn550  Zn    0.50000   0.16667   0.44896   0.00000  Uiso   1.00
C551   C     0.83365   0.08684   0.49944   0.00000  Uiso   1.00
C552   C     0.79126   0.02135   0.51228   0.00000  Uiso   1.00
C553   C     0.83322   0.29068   0.50195   0.00000  Uiso   1.00
C554   C     0.83362   0.04265   0.49807   0.00000  Uiso   1.00
C555   C     0.86333   0.19570   0.36276   0.00000  Uiso   1.00
C556   C     0.80334   0.13763   0.63724   0.00000  Uiso   1.00
C557   C     0.86365   0.19571   0.64803   0.00000  Uiso   1.00
C558   C     0.80301   0.13763   0.35196   0.00000  Uiso   1.00
C559   C     0.92238   0.04403   0.47169   0.00000  Uiso   1.00
C560   C     0.74463   0.28925   0.52846   0.00000  Uiso   1.00
C561   C     0.83312   0.24650   0.50057   0.00000  Uiso   1.00
C562   C     0.73398   0.16739   0.48830   0.00000  Uiso   1.00
C563   C     0.93268   0.16594   0.51170   0.00000  Uiso   1.00
C564   C     0.67973   0.17380   0.48353   0.00000  Uiso   1.00
C565   C     0.98694   0.15952   0.51647   0.00000  Uiso   1.00
C566   C     0.87623   0.02180   0.48542   0.00000  Uiso   1.00
C567   C     0.79066   0.31153   0.51464   0.00000  Uiso   1.00
C568   C     0.87560   0.31197   0.48776   0.00000  Uiso   1.00
H569   H     0.90773   0.29476   0.47805   0.00000  Uiso   1.00
H570   H     0.76923   0.11495   0.40004   0.00000  Uiso   1.00
H571   H     0.75912   0.03854   0.52200   0.00000  Uiso   1.00
H572   H     0.68292   0.20878   0.43064   0.00000  Uiso   1.00
H573   H     0.98374   0.12454   0.56935   0.00000  Uiso   1.00
H574   H     0.66721   0.05311   0.48167   0.00000  Uiso   1.00
H575   H     0.99996   0.27902   0.51768   0.00000  Uiso   1.00
H576   H     0.91302   0.24385   0.37523   0.00000  Uiso   1.00
H577   H     0.75365   0.08948   0.62477   0.00000  Uiso   1.00
H578   H     0.89744   0.21838   0.59996   0.00000  Uiso   1.00
N579   N     0.83332   0.16666   0.61907   0.00000  Uiso   1.00
N580   N     0.83335   0.16668   0.38093   0.00000  Uiso   1.00
O581   O     0.83333   0.10558   0.53821   0.00000  Uiso   1.00
O582   O     0.67698   0.13520   0.55126   0.00000  Uiso   1.00
O583   O     0.91713   0.06863   0.44064   0.00000  Uiso   1.00
O584   O     0.97217   0.03609   0.49389   0.00000  Uiso   1.00
O585   O     0.74995   0.26553   0.56032   0.00000  Uiso   1.00
O586   O     0.69493   0.29602   0.50532   0.00000  Uiso   1.00
O587   O     0.89312   0.22438   0.39227   0.00000  Uiso   1.00
O588   O     0.77354   0.10895   0.60773   0.00000  Uiso   1.00
O589   O     0.89515   0.22562   0.63174   0.00000  Uiso   1.00
O590   O     0.77151   0.10772   0.36825   0.00000  Uiso   1.00
O591   O     0.83334   0.22775   0.46179   0.00000  Uiso   1.00
O592   O     0.83333   0.10559   0.46176   0.00000  Uiso   1.00
O593   O     0.83334   0.22774   0.53824   0.00000  Uiso   1.00
O594   O     0.75725   0.16666   0.52928   0.00000  Uiso   1.00
O595   O     0.90942   0.16667   0.47072   0.00000  Uiso   1.00
O596   O     0.75725   0.16667   0.45284   0.00000  Uiso   1.00
O597   O     0.90942   0.16666   0.54716   0.00000  Uiso   1.00
O598   O     0.98969   0.19812   0.44872   0.00000  Uiso   1.00
Zn599  Zn    0.83333   0.16666   0.55104   0.00000  Uiso   1.00
Zn600  Zn    0.83333   0.16667   0.44896   0.00000  Uiso   1.00
C601   C     0.16699   0.42017   0.49944   0.00000  Uiso   1.00
C602   C     0.12459   0.35468   0.51228   0.00000  Uiso   1.00
C603   C     0.16655   0.62401   0.50195   0.00000  Uiso   1.00
C604   C     0.16696   0.37599   0.49807   0.00000  Uiso   1.00
C605   C     0.19666   0.52904   0.36276   0.00000  Uiso   1.00
C606   C     0.13667   0.47096   0.63724   0.00000  Uiso   1.00
C607   C     0.19699   0.52904   0.64803   0.00000  Uiso   1.00
C608   C     0.13635   0.47096   0.35196   0.00000  Uiso   1.00
C609   C     0.25571   0.37736   0.47169   0.00000  Uiso   1.00
C610   C     0.07797   0.62258   0.52846   0.00000  Uiso   1.00
C611   C     0.16645   0.57983   0.50057   0.00000  Uiso   1.00
C612   C     0.06732   0.50073   0.48830   0.00000  Uiso   1.00
C613   C     0.26602   0.49927   0.51170   0.00000  Uiso   1.00
C614   C     0.01306   0.50714   0.48353   0.00000  Uiso   1.00
C615   C     0.32027   0.49286   0.51647   0.00000  Uiso   1.00
C616   C     0.20957   0.35514   0.48542   0.00000  Uiso   1.00
C617   C     0.12399   0.64486   0.51464   0.00000  Uiso   1.00
C618   C     0.20893   0.64531   0.48776   0.00000  Uiso   1.00
H619   H     0.24106   0.62809   0.47805   0.00000  Uiso   1.00
H620   H     0.10257   0.44828   0.40004   0.00000  Uiso   1.00
H621   H     0.09245   0.37187   0.52200   0.00000  Uiso   1.00
H622   H     0.01626   0.54211   0.43064   0.00000  Uiso   1.00
H623   H     0.31707   0.45787   0.56935   0.00000  Uiso   1.00
H624   H     0.00055   0.38645   0.48167   0.00000  Uiso   1.00
H625   H     0.33330   0.61235   0.51768   0.00000  Uiso   1.00
H626   H     0.24635   0.57719   0.37523   0.00000  Uiso   1.00
H627   H     0.08698   0.42281   0.62477   0.00000  Uiso   1.00
H628   H     0.23077   0.55172   0.59996   0.00000  Uiso   1.00
N629   N     0.16665   0.49999   0.61907   0.00000  Uiso   1.00
N630   N     0.16668   0.50001   0.38093   0.00000  Uiso   1.00
O631   O     0.16666   0.43892   0.53821   0.00000  Uiso   1.00
O632   O     0.01031   0.46853   0.55126   0.00000  Uiso   1.00
O633   O     0.25046   0.40196   0.44064   0.00000  Uiso   1.00
O634   O     0.30550   0.36942   0.49389   0.00000  Uiso   1.00
O635   O     0.08328   0.59887   0.56032   0.00000  Uiso   1.00
O636   O     0.02827   0.62935   0.50532   0.00000  Uiso   1.00
O637   O     0.22646   0.55771   0.39227   0.00000  Uiso   1.00
O638   O     0.10688   0.44229   0.60773   0.00000  Uiso   1.00
O639   O     0.22849   0.55895   0.63174   0.00000  Uiso   1.00
O640   O     0.10484   0.44105   0.36825   0.00000  Uiso   1.00
O641   O     0.16667   0.56108   0.46179   0.00000  Uiso   1.00
O642   O     0.16666   0.43893   0.46176   0.00000  Uiso   1.00
O643   O     0.16667   0.56107   0.53824   0.00000  Uiso   1.00
O644   O     0.09058   0.50000   0.52928   0.00000  Uiso   1.00
O645   O     0.24275   0.50000   0.47072   0.00000  Uiso   1.00
O646   O     0.09058   0.50000   0.45284   0.00000  Uiso   1.00
O647   O     0.24275   0.50000   0.54716   0.00000  Uiso   1.00
O648   O     0.32302   0.53145   0.44872   0.00000  Uiso   1.00
Zn649  Zn    0.16667   0.49999   0.55104   0.00000  Uiso   1.00
Zn650  Zn    0.16667   0.50001   0.44896   0.00000  Uiso   1.00
C651   C     0.50032   0.42017   0.49944   0.00000  Uiso   1.00
C652   C     0.45792   0.35468   0.51228   0.00000  Uiso   1.00
C653   C     0.49989   0.62401   0.50195   0.00000  Uiso   1.00
C654   C     0.50029   0.37599   0.49807   0.00000  Uiso   1.00
C655   C     0.52999   0.52904   0.36276   0.00000  Uiso   1.00
C656   C     0.47001   0.47096   0.63724   0.00000  Uiso   1.00
C657   C     0.53032   0.52904   0.64803   0.00000  Uiso   1.00
C658   C     0.46968   0.47096   0.35196   0.00000  Uiso   1.00
C659   C     0.58905   0.37736   0.47169   0.00000  Uiso   1.00
C660   C     0.41130   0.62258   0.52846   0.00000  Uiso   1.00
C661   C     0.49978   0.57983   0.50057   0.00000  Uiso   1.00
C662   C     0.40065   0.50073   0.48830   0.00000  Uiso   1.00
C663   C     0.59935   0.49927   0.51170   0.00000  Uiso   1.00
C664   C     0.34639   0.50714   0.48353   0.00000  Uiso   1.00
C665   C     0.65361   0.49286   0.51647   0.00000  Uiso   1.00
C666   C     0.54290   0.35514   0.48542   0.00000  Uiso   1.00
C667   C     0.45733   0.64486   0.51464   0.00000  Uiso   1.00
C668   C     0.54227   0.64531   0.48776   0.00000  Uiso   1.00
H669   H     0.57439   0.62809   0.47805   0.00000  Uiso   1.00
H670   H     0.43590   0.44828   0.40004   0.00000  Uiso   1.00
H671   H     0.42579   0.37187   0.52200   0.00000  Uiso   1.00
H672   H     0.34959   0.54211   0.43064   0.00000  Uiso   1.00
H673   H     0.65041   0.45787   0.56935   0.00000  Uiso   1.00
H674   H     0.33388   0.38645   0.48167   0.00000  Uiso   1.00
H675   H     0.66663   0.61235   0.51768   0.00000  Uiso   1.00
H676   H     0.57969   0.57719   0.37523   0.00000  Uiso   1.00
H677   H     0.42032   0.42281   0.62477   0.00000  Uiso   1.00
H678   H     0.56410   0.55172   0.59996   0.00000  Uiso   1.00
N679   N     0.49999   0.49999   0.61907   0.00000  Uiso   1.00
N680   N     0.50001   0.50001   0.38093   0.00000  Uiso   1.00
O681   O     0.50000   0.43892   0.53821   0.00000  Uiso   1.00
O682   O     0.34364   0.46853   0.55126   0.00000  Uiso   1.00
O683   O     0.58379   0.40196   0.44064   0.00000  Uiso   1.00
O684   O     0.63883   0.36942   0.49389   0.00000  Uiso   1.00
O685   O     0.41661   0.59887   0.56032   0.00000  Uiso   1.00
O686   O     0.36160   0.62935   0.50532   0.00000  Uiso   1.00
O687   O     0.55979   0.55771   0.39227   0.00000  Uiso   1.00
O688   O     0.44021   0.44229   0.60773   0.00000  Uiso   1.00
O689   O     0.56182   0.55895   0.63174   0.00000  Uiso   1.00
O690   O     0.43818   0.44105   0.36825   0.00000  Uiso   1.00
O691   O     0.50000   0.56108   0.46179   0.00000  Uiso   1.00
O692   O     0.50000   0.43893   0.46176   0.00000  Uiso   1.00
O693   O     0.50000   0.56107   0.53824   0.00000  Uiso   1.00
O694   O     0.42392   0.50000   0.52928   0.00000  Uiso   1.00
O695   O     0.57608   0.50000   0.47072   0.00000  Uiso   1.00
O696   O     0.42392   0.50000   0.45284   0.00000  Uiso   1.00
O697   O     0.57608   0.50000   0.54716   0.00000  Uiso   1.00
O698   O     0.65635   0.53145   0.44872   0.00000  Uiso   1.00
Zn699  Zn    0.50000   0.49999   0.55104   0.00000  Uiso   1.00
Zn700  Zn    0.50000   0.50001   0.44896   0.00000  Uiso   1.00
C701   C     0.83365   0.42017   0.49944   0.00000  Uiso   1.00
C702   C     0.79126   0.35468   0.51228   0.00000  Uiso   1.00
C703   C     0.83322   0.62401   0.50195   0.00000  Uiso   1.00
C704   C     0.83362   0.37599   0.49807   0.00000  Uiso   1.00
C705   C     0.86333   0.52904   0.36276   0.00000  Uiso   1.00
C706   C     0.80334   0.47096   0.63724   0.00000  Uiso   1.00
C707   C     0.86365   0.52904   0.64803   0.00000  Uiso   1.00
C708   C     0.80301   0.47096   0.35196   0.00000  Uiso   1.00
C709   C     0.92238   0.37736   0.47169   0.00000  Uiso   1.00
C710   C     0.74463   0.62258   0.52846   0.00000  Uiso   1.00
C711   C     0.83312   0.57983   0.50057   0.00000  Uiso   1.00
C712   C     0.73398   0.50073   0.48830   0.00000  Uiso   1.00
C713   C     0.93268   0.49927   0.51170   0.00000  Uiso   1.00
C714   C     0.67973   0.50714   0.48353   0.00000  Uiso   1.00
C715   C     0.98694   0.49286   0.51647   0.00000  Uiso   1.00
C716   C     0.87623   0.35514   0.48542   0.00000  Uiso   1.00
C717   C     0.79066   0.64486   0.51464   0.00000  Uiso   1.00
C718   C     0.87560   0.64531   0.48776   0.00000  Uiso   1.00
H719   H     0.90773   0.62809   0.47805   0.00000  Uiso   1.00
H720   H     0.76923   0.44828   0.40004   0.00000  Uiso   1.00
H721   H     0.75912   0.37187   0.52200   0.00000  Uiso   1.00
H722   H     0.68292   0.54211   0.43064   0.00000  Uiso   1.00
H723   H     0.98374   0.45787   0.56935   0.00000  Uiso   1.00
H724   H     0.66721   0.38645   0.48167   0.00000  Uiso   1.00
H725   H     0.99996   0.61235   0.51768   0.00000  Uiso   1.00
H726   H     0.91302   0.57719   0.37523   0.00000  Uiso   1.00
H727   H     0.75365   0.42281   0.62477   0.00000  Uiso   1.00
H728   H     0.89744   0.55172   0.59996   0.00000  Uiso   1.00
N729   N     0.83332   0.49999   0.61907   0.00000  Uiso   1.00
N730   N     0.83335   0.50001   0.38093   0.00000  Uiso   1.00
O731   O     0.83333   0.43892   0.53821   0.00000  Uiso   1.00
O732   O     0.67698   0.46853   0.55126   0.00000  Uiso   1.00
O733   O     0.91713   0.40196   0.44064   0.00000  Uiso   1.00
O734   O     0.97217   0.36942   0.49389   0.00000  Uiso   1.00
O735   O     0.74995   0.59887   0.56032   0.00000  Uiso   1.00
O736   O     0.69493   0.62935   0.50532   0.00000  Uiso   1.00
O737   O     0.89312   0.55771   0.39227   0.00000  Uiso   1.00
O738   O     0.77354   0.44229   0.60773   0.00000  Uiso   1.00
O739   O     0.89515   0.55895   0.63174   0.00000  Uiso   1.00
O740   O     0.77151   0.44105   0.36825   0.00000  Uiso   1.00
O741   O     0.83334   0.56108   0.46179   0.00000  Uiso   1.00
O742   O     0.83333   0.43893   0.46176   0.00000  Uiso   1.00
O743   O     0.83334   0.56107   0.53824   0.00000  Uiso   1.00
O744   O     0.75725   0.50000   0.52928   0.00000  Uiso   1.00
O745   O     0.90942   0.50000   0.47072   0.00000  Uiso   1.00
O746   O     0.75725   0.50000   0.45284   0.00000  Uiso   1.00
O747   O     0.90942   0.50000   0.54716   0.00000  Uiso   1.00
O748   O     0.98969   0.53145   0.44872   0.00000  Uiso   1.00
Zn749  Zn    0.83333   0.49999   0.55104   0.00000  Uiso   1.00
Zn750  Zn    0.83333   0.50001   0.44896   0.00000  Uiso   1.00
C751   C     0.16699   0.75351   0.49944   0.00000  Uiso   1.00
C752   C     0.12459   0.68802   0.51228   0.00000  Uiso   1.00
C753   C     0.16655   0.95735   0.50195   0.00000  Uiso   1.00
C754   C     0.16696   0.70932   0.49807   0.00000  Uiso   1.00
C755   C     0.19666   0.86237   0.36276   0.00000  Uiso   1.00
C756   C     0.13667   0.80430   0.63724   0.00000  Uiso   1.00
C757   C     0.19699   0.86238   0.64803   0.00000  Uiso   1.00
C758   C     0.13635   0.80429   0.35196   0.00000  Uiso   1.00
C759   C     0.25571   0.71069   0.47169   0.00000  Uiso   1.00
C760   C     0.07797   0.95592   0.52846   0.00000  Uiso   1.00
C761   C     0.16645   0.91316   0.50057   0.00000  Uiso   1.00
C762   C     0.06732   0.83406   0.48830   0.00000  Uiso   1.00
C763   C     0.26602   0.83261   0.51170   0.00000  Uiso   1.00
C764   C     0.01306   0.84047   0.48353   0.00000  Uiso   1.00
C765   C     0.32027   0.82619   0.51647   0.00000  Uiso   1.00
C766   C     0.20957   0.68847   0.48542   0.00000  Uiso   1.00
C767   C     0.12399   0.97820   0.51464   0.00000  Uiso   1.00
C768   C     0.20893   0.97864   0.48776   0.00000  Uiso   1.00
H769   H     0.24106   0.96143   0.47805   0.00000  Uiso   1.00
H770   H     0.10257   0.78162   0.40004   0.00000  Uiso   1.00
H771   H     0.09245   0.70521   0.52200   0.00000  Uiso   1.00
H772   H     0.01626   0.87545   0.43064   0.00000  Uiso   1.00
H773   H     0.31707   0.79121   0.56935   0.00000  Uiso   1.00
H774   H     0.00055   0.71978   0.48167   0.00000  Uiso   1.00
H775   H     0.33330   0.94568   0.51768   0.00000  Uiso   1.00
H776   H     0.24635   0.91052   0.37523   0.00000  Uiso   1.00
H777   H     0.08698   0.75615   0.62477   0.00000  Uiso   1.00
H778   H     0.23077   0.88505   0.59996   0.00000  Uiso   1.00
N779   N     0.16665   0.83332   0.61907   0.00000  Uiso   1.00
N780   N     0.16668   0.83334   0.38093   0.00000  Uiso   1.00
O781   O     0.16666   0.77225   0.53821   0.00000  Uiso   1.00
O782   O     0.01031   0.80186   0.55126   0.00000  Uiso   1.00
O783   O     0.25046   0.73530   0.44064   0.00000  Uiso   1.00
O784   O     0.30550   0.70275   0.49389   0.00000  Uiso   1.00
O785   O     0.08328   0.93220   0.56032   0.00000  Uiso   1.00
O786   O     0.02827   0.96269   0.50532   0.00000  Uiso   1.00
O787   O     0.22646   0.89105   0.39227   0.00000  Uiso   1.00
O788   O     0.10688   0.77562   0.60773   0.00000  Uiso   1.00
O789   O     0.22849   0.89229   0.63174   0.00000  Uiso   1.00
O790   O     0.10484   0.77438   0.36825   0.00000  Uiso   1.00
O791   O     0.16667   0.89442   0.46179   0.00000  Uiso   1.00
O792   O     0.16666   0.77226   0.46176   0.00000  Uiso   1.00
O793   O     0.16667   0.89441   0.53824   0.00000  Uiso   1.00
O794   O     0.09058   0.83333   0.52928   0.00000  Uiso   1.00
O795   O     0.24275   0.83334   0.47072   0.00000  Uiso   1.00
O796   O     0.09058   0.83334   0.45284   0.00000  Uiso   1.00
O797   O     0.24275   0.83333   0.54716   0.00000  Uiso   1.00
O798   O     0.32302   0.86479   0.44872   0.00000  Uiso   1.00
Zn799  Zn    0.16667   0.83333   0.55104   0.00000  Uiso   1.00
Zn800  Zn    0.16667   0.83334   0.44896   0.00000  Uiso   1.00
C801   C     0.50032   0.75351   0.49944   0.00000  Uiso   1.00
C802   C     0.45792   0.68802   0.51228   0.00000  Uiso   1.00
C803   C     0.49989   0.95735   0.50195   0.00000  Uiso   1.00
C804   C     0.50029   0.70932   0.49807   0.00000  Uiso   1.00
C805   C     0.52999   0.86237   0.36276   0.00000  Uiso   1.00
C806   C     0.47001   0.80430   0.63724   0.00000  Uiso   1.00
C807   C     0.53032   0.86238   0.64803   0.00000  Uiso   1.00
C808   C     0.46968   0.80429   0.35196   0.00000  Uiso   1.00
C809   C     0.58905   0.71069   0.47169   0.00000  Uiso   1.00
C810   C     0.41130   0.95592   0.52846   0.00000  Uiso   1.00
C811   C     0.49978   0.91316   0.50057   0.00000  Uiso   1.00
C812   C     0.40065   0.83406   0.48830   0.00000  Uiso   1.00
C813   C     0.59935   0.83261   0.51170   0.00000  Uiso   1.00
C814   C     0.34639   0.84047   0.48353   0.00000  Uiso   1.00
C815   C     0.65361   0.82619   0.51647   0.00000  Uiso   1.00
C816   C     0.54290   0.68847   0.48542   0.00000  Uiso   1.00
C817   C     0.45733   0.97820   0.51464   0.00000  Uiso   1.00
C818   C     0.54227   0.97864   0.48776   0.00000  Uiso   1.00
H819   H     0.57439   0.96143   0.47805   0.00000  Uiso   1.00
H820   H     0.43590   0.78162   0.40004   0.00000  Uiso   1.00
H821   H     0.42579   0.70521   0.52200   0.00000  Uiso   1.00
H822   H     0.34959   0.87545   0.43064   0.00000  Uiso   1.00
H823   H     0.65041   0.79121   0.56935   0.00000  Uiso   1.00
H824   H     0.33388   0.71978   0.48167   0.00000  Uiso   1.00
H825   H     0.66663   0.94568   0.51768   0.00000  Uiso   1.00
H826   H     0.57969   0.91052   0.37523   0.00000  Uiso   1.00
H827   H     0.42032   0.75615   0.62477   0.00000  Uiso   1.00
H828   H     0.56410   0.88505   0.59996   0.00000  Uiso   1.00
N829   N     0.49999   0.83332   0.61907   0.00000  Uiso   1.00
N830   N     0.50001   0.83334   0.38093   0.00000  Uiso   1.00
O831   O     0.50000   0.77225   0.53821   0.00000  Uiso   1.00
O832   O     0.34364   0.80186   0.55126   0.00000  Uiso   1.00
O833   O     0.58379   0.73530   0.44064   0.00000  Uiso   1.00
O834   O     0.63883   0.70275   0.49389   0.00000  Uiso   1.00
O835   O     0.41661   0.93220   0.56032   0.00000  Uiso   1.00
O836   O     0.36160   0.96269   0.50532   0.00000  Uiso   1.00
O837   O     0.55979   0.89105   0.39227   0.00000  Uiso   1.00
O838   O     0.44021   0.77562   0.60773   0.00000  Uiso   1.00
O839   O     0.56182   0.89229   0.63174   0.00000  Uiso   1.00
O840   O     0.43818   0.77438   0.36825   0.00000  Uiso   1.00
O841   O     0.50000   0.89442   0.46179   0.00000  Uiso   1.00
O842   O     0.50000   0.77226   0.46176   0.00000  Uiso   1.00
O843   O     0.50000   0.89441   0.53824   0.00000  Uiso   1.00
O844   O     0.42392   0.83333   0.52928   0.00000  Uiso   1.00
O845   O     0.57608   0.83334   0.47072   0.00000  Uiso   1.00
O846   O     0.42392   0.83334   0.45284   0.00000  Uiso   1.00
O847   O     0.57608   0.83333   0.54716   0.00000  Uiso   1.00
O848   O     0.65635   0.86479   0.44872   0.00000  Uiso   1.00
Zn849  Zn    0.50000   0.83333   0.55104   0.00000  Uiso   1.00
Zn850  Zn    0.50000   0.83334   0.44896   0.00000  Uiso   1.00
C851   C     0.83365   0.75351   0.49944   0.00000  Uiso   1.00
C852   C     0.79126   0.68802   0.51228   0.00000  Uiso   1.00
C853   C     0.83322   0.95735   0.50195   0.00000  Uiso   1.00
C854   C     0.83362   0.70932   0.49807   0.00000  Uiso   1.00
C855   C     0.86333   0.86237   0.36276   0.00000  Uiso   1.00
C856   C     0.80334   0.80430   0.63724   0.00000  Uiso   1.00
C857   C     0.86365   0.86238   0.64803   0.00000  Uiso   1.00
C858   C     0.80301   0.80429   0.35196   0.00000  Uiso   1.00
C859   C     0.92238   0.71069   0.47169   0.00000  Uiso   1.00
C860   C     0.74463   0.95592   0.52846   0.00000  Uiso   1.00
C861   C     0.83312   0.91316   0.50057   0.00000  Uiso   1.00
C862   C     0.73398   0.83406   0.48830   0.00000  Uiso   1.00
C863   C     0.93268   0.83261   0.51170   0.00000  Uiso   1.00
C864   C     0.67973   0.84047   0.48353   0.00000  Uiso   1.00
C865   C     0.98694   0.82619   0.51647   0.00000  Uiso   1.00
C866   C     0.87623   0.68847   0.48542   0.00000  Uiso   1.00
C867   C     0.79066   0.97820   0.51464   0.00000  Uiso   1.00
C868   C     0.87560   0.97864   0.48776   0.00000  Uiso   1.00
H869   H     0.90773   0.96143   0.47805   0.00000  Uiso   1.00
H870   H     0.76923   0.78162   0.40004   0.00000  Uiso   1.00
H871   H     0.75912   0.70521   0.52200   0.00000  Uiso   1.00
H872   H     0.68292   0.87545   0.43064   0.00000  Uiso   1.00
H873   H     0.98374   0.79121   0.56935   0.00000  Uiso   1.00
H874   H     0.66721   0.71978   0.48167   0.00000  Uiso   1.00
H875   H     0.99996   0.94568   0.51768   0.00000  Uiso   1.00
H876   H     0.91302   0.91052   0.37523   0.00000  Uiso   1.00
H877   H     0.75365   0.75615   0.62477   0.00000  Uiso   1.00
H878   H     0.89744   0.88505   0.59996   0.00000  Uiso   1.00
N879   N     0.83332   0.83332   0.61907   0.00000  Uiso   1.00
N880   N     0.83335   0.83334   0.38093   0.00000  Uiso   1.00
O881   O     0.83333   0.77225   0.53821   0.00000  Uiso   1.00
O882   O     0.67698   0.80186   0.55126   0.00000  Uiso   1.00
O883   O     0.91713   0.73530   0.44064   0.00000  Uiso   1.00
O884   O     0.97217   0.70275   0.49389   0.00000  Uiso   1.00
O885   O     0.74995   0.93220   0.56032   0.00000  Uiso   1.00
O886   O     0.69493   0.96269   0.50532   0.00000  Uiso   1.00
O887   O     0.89312   0.89105   0.39227   0.00000  Uiso   1.00
O888   O     0.77354   0.77562   0.60773   0.00000  Uiso   1.00
O889   O     0.89515   0.89229   0.63174   0.00000  Uiso   1.00
O890   O     0.77151   0.77438   0.36825   0.00000  Uiso   1.00
O891   O     0.83334   0.89442   0.46179   0.00000  Uiso   1.00
O892   O     0.83333   0.77226   0.46176   0.00000  Uiso   1.00
O893   O     0.83334   0.89441   0.53824   0.00000  Uiso   1.00
O894   O     0.75725   0.83333   0.52928   0.00000  Uiso   1.00
O895   O     0.90942   0.83334   0.47072   0.00000  Uiso   1.00
O896   O     0.75725   0.83334   0.45284   0.00000  Uiso   1.00
O897   O     0.90942   0.83333   0.54716   0.00000  Uiso   1.00
O898   O     0.98969   0.86479   0.44872   0.00000  Uiso   1.00
Zn899  Zn    0.83333   0.83333   0.55104   0.00000  Uiso   1.00
Zn900  Zn    0.83333   0.83334   0.44896   0.00000  Uiso   1.00
C901   C     0.16699   0.08684   0.83278   0.00000  Uiso   1.00
C902   C     0.12459   0.02135   0.84561   0.00000  Uiso   1.00
C903   C     0.16655   0.29068   0.83528   0.00000  Uiso   1.00
C904   C     0.16696   0.04265   0.83140   0.00000  Uiso   1.00
C905   C     0.19666   0.19570   0.69609   0.00000  Uiso   1.00
C906   C     0.13667   0.13763   0.97057   0.00000  Uiso   1.00
C907   C     0.19699   0.19571   0.98137   0.00000  Uiso   1.00
C908   C     0.13635   0.13763   0.68530   0.00000  Uiso   1.00
C909   C     0.25571   0.04403   0.80502   0.00000  Uiso   1.00
C910   C     0.07797   0.28925   0.86179   0.00000  Uiso   1.00
C911   C     0.16645   0.24650   0.83390   0.00000  Uiso   1.00
C912   C     0.06732   0.16739   0.82163   0.00000  Uiso   1.00
C913   C     0.26602   0.16594   0.84503   0.00000  Uiso   1.00
C914   C     0.01306   0.17380   0.81686   0.00000  Uiso   1.00
C915   C     0.32027   0.15952   0.84980   0.00000  Uiso   1.00
C916   C     0.20957   0.02180   0.81875   0.00000  Uiso   1.00
C917   C     0.12399   0.31153   0.84797   0.00000  Uiso   1.00
C918   C     0.20893   0.31197   0.82109   0.00000  Uiso   1.00
H919   H     0.24106   0.29476   0.81138   0.00000  Uiso   1.00
H920   H     0.10257   0.11495   0.73337   0.00000  Uiso   1.00
H921   H     0.09245   0.03854   0.85534   0.00000  Uiso   1.00
H922   H     0.01626   0.20878   0.76397   0.00000  Uiso   1.00
H923   H     0.31707   0.12454   0.90268   0.00000  Uiso   1.00
H924   H     0.00055   0.05311   0.81500   0.00000  Uiso   1.00
H925   H     0.33330   0.27902   0.85101   0.00000  Uiso   1.00
H926   H     0.24635   0.24385   0.70856   0.00000  Uiso   1.00
H927   H     0.08698   0.08948   0.95810   0.00000  Uiso   1.00
H928   H     0.23077   0.21838   0.93330   0.00000  Uiso   1.00
N929   N     0.16665   0.16666   0.95240   0.00000  Uiso   1.00
N930   N     0.16668   0.16668   0.71427   0.00000  Uiso   1.00
O931   O     0.16666   0.10558   0.87154   0.00000  Uiso   1.00
O932   O     0.01031   0.13520   0.88460   0.00000  Uiso   1.00
O933   O     0.25046   0.06863   0.77397   0.00000  Uiso   1.00
O934   O     0.30550   0.03609   0.82722   0.00000  Uiso   1.00
O935   O     0.08328   0.26553   0.89366   0.00000  Uiso   1.00
O936   O     0.02827   0.29602   0.83866   0.00000  Uiso   1.00
O937   O     0.22646   0.22438   0.72560   0.00000  Uiso   1.00
O938   O     0.10688   0.10895   0.94107   0.00000  Uiso   1.00
O939   O     0.22849   0.22562   0.96508   0.00000  Uiso   1.00
O940   O     0.10484   0.10772   0.70159   0.00000  Uiso   1.00
O941   O     0.16667   0.22775   0.79513   0.00000  Uiso   1.00
O942   O     0.16666   0.10559   0.79510   0.00000  Uiso   1.00
O943   O     0.16667   0.22774   0.87157   0.00000  Uiso   1.00
O944   O     0.09058   0.16666   0.86261   0.00000  Uiso   1.00
O945   O     0.24275   0.16667   0.80405   0.00000  Uiso   1.00
O946   O     0.09058   0.16667   0.78617   0.00000  Uiso   1.00
O947   O     0.24275   0.16666   0.88050   0.00000  Uiso   1.00
O948   O     0.32302   0.19812   0.78206   0.00000  Uiso   1.00
Zn949  Zn    0.16667   0.16666   0.88437   0.00000  Uiso   1.00
Zn950  Zn    0.16667   0.16667   0.78229   0.00000  Uiso   1.00
C951   C     0.50032   0.08684   0.83278   0.00000  Uiso   1.00
C952   C     0.45792   0.02135   0.84561   0.00000  Uiso   1.00
C953   C     0.49989   0.29068   0.83528   0.00000  Uiso   1.00
C954   C     0.50029   0.04265   0.83140   0.00000  Uiso   1.00
C955   C     0.52999   0.19570   0.69609   0.00000  Uiso   1.00
C956   C     0.47001   0.13763   0.97057   0.00000  Uiso   1.00
C957   C     0.53032   0.19571   0.98137   0.00000  Uiso   1.00
C958   C     0.46968   0.13763   0.68530   0.00000  Uiso   1.00
C959   C     0.58905   0.04403   0.80502   0.00000  Uiso   1.00
C960   C     0.41130   0.28925   0.86179   0.00000  Uiso   1.00
C961   C     0.49978   0.24650   0.83390   0.00000  Uiso   1.00
C962   C     0.40065   0.16739   0.82163   0.00000  Uiso   1.00
C963   C     0.59935   0.16594   0.84503   0.00000  Uiso   1.00
C964   C     0.34639   0.17380   0.81686   0.00000  Uiso   1.00
C965   C     0.65361   0.15952   0.84980   0.00000  Uiso   1.00
C966   C     0.54290   0.02180   0.81875   0.00000  Uiso   1.00
C967   C     0.45733   0.31153   0.84797   0.00000  Uiso   1.00
C968   C     0.54227   0.31197   0.82109   0.00000  Uiso   1.00
H969   H     0.57439   0.29476   0.81138   0.00000  Uiso   1.00
H970   H     0.43590   0.11495   0.73337   0.00000  Uiso   1.00
H971   H     0.42579   0.03854   0.85534   0.00000  Uiso   1.00
H972   H     0.34959   0.20878   0.76397   0.00000  Uiso   1.00
H973   H     0.65041   0.12454   0.90268   0.00000  Uiso   1.00
H974   H     0.33388   0.05311   0.81500   0.00000  Uiso   1.00
H975   H     0.66663   0.27902   0.85101   0.00000  Uiso   1.00
H976   H     0.57969   0.24385   0.70856   0.00000  Uiso   1.00
H977   H     0.42032   0.08948   0.95810   0.00000  Uiso   1.00
H978   H     0.56410   0.21838   0.93330   0.00000  Uiso   1.00
N979   N     0.49999   0.16666   0.95240   0.00000  Uiso   1.00
N980   N     0.50001   0.16668   0.71427   0.00000  Uiso   1.00
O981   O     0.50000   0.10558   0.87154   0.00000  Uiso   1.00
O982   O     0.34364   0.13520   0.88460   0.00000  Uiso   1.00
O983   O     0.58379   0.06863   0.77397   0.00000  Uiso   1.00
O984   O     0.63883   0.03609   0.82722   0.00000  Uiso   1.00
O985   O     0.41661   0.26553   0.89366   0.00000  Uiso   1.00
O986   O     0.36160   0.29602   0.83866   0.00000  Uiso   1.00
O987   O     0.55979   0.22438   0.72560   0.00000  Uiso   1.00
O988   O     0.44021   0.10895   0.94107   0.00000  Uiso   1.00
O989   O     0.56182   0.22562   0.96508   0.00000  Uiso   1.00
O990   O     0.43818   0.10772   0.70159   0.00000  Uiso   1.00
O991   O     0.50000   0.22775   0.79513   0.00000  Uiso   1.00
O992   O     0.50000   0.10559   0.79510   0.00000  Uiso   1.00
O993   O     0.50000   0.22774   0.87157   0.00000  Uiso   1.00
O994   O     0.42392   0.16666   0.86261   0.00000  Uiso   1.00
O995   O     0.57608   0.16667   0.80405   0.00000  Uiso   1.00
O996   O     0.42392   0.16667   0.78617   0.00000  Uiso   1.00
O997   O     0.57608   0.16666   0.88050   0.00000  Uiso   1.00
O998   O     0.65635   0.19812   0.78206   0.00000  Uiso   1.00
Zn999  Zn    0.50000   0.16666   0.88437   0.00000  Uiso   1.00
Zn1000 Zn    0.50000   0.16667   0.78229   0.00000  Uiso   1.00
C1001  C     0.83365   0.08684   0.83278   0.00000  Uiso   1.00
C1002  C     0.79126   0.02135   0.84561   0.00000  Uiso   1.00
C1003  C     0.83322   0.29068   0.83528   0.00000  Uiso   1.00
C1004  C     0.83362   0.04265   0.83140   0.00000  Uiso   1.00
C1005  C     0.86333   0.19570   0.69609   0.00000  Uiso   1.00
C1006  C     0.80334   0.13763   0.97057   0.00000  Uiso   1.00
C1007  C     0.86365   0.19571   0.98137   0.00000  Uiso   1.00
C1008  C     0.80301   0.13763   0.68530   0.00000  Uiso   1.00
C1009  C     0.92238   0.04403   0.80502   0.00000  Uiso   1.00
C1010  C     0.74463   0.28925   0.86179   0.00000  Uiso   1.00
C1011  C     0.83312   0.24650   0.83390   0.00000  Uiso   1.00
C1012  C     0.73398   0.16739   0.82163   0.00000  Uiso   1.00
C1013  C     0.93268   0.16594   0.84503   0.00000  Uiso   1.00
C1014  C     0.67973   0.17380   0.81686   0.00000  Uiso   1.00
C1015  C     0.98694   0.15952   0.84980   0.00000  Uiso   1.00
C1016  C     0.87623   0.02180   0.81875   0.00000  Uiso   1.00
C1017  C     0.79066   0.31153   0.84797   0.00000  Uiso   1.00
C1018  C     0.87560   0.31197   0.82109   0.00000  Uiso   1.00
H1019  H     0.90773   0.29476   0.81138   0.00000  Uiso   1.00
H1020  H     0.76923   0.11495   0.73337   0.00000  Uiso   1.00
H1021  H     0.75912   0.03854   0.85534   0.00000  Uiso   1.00
H1022  H     0.68292   0.20878   0.76397   0.00000  Uiso   1.00
H1023  H     0.98374   0.12454   0.90268   0.00000  Uiso   1.00
H1024  H     0.66721   0.05311   0.81500   0.00000  Uiso   1.00
H1025  H     0.99996   0.27902   0.85101   0.00000  Uiso   1.00
H1026  H     0.91302   0.24385   0.70856   0.00000  Uiso   1.00
H1027  H     0.75365   0.08948   0.95810   0.00000  Uiso   1.00
H1028  H     0.89744   0.21838   0.93330   0.00000  Uiso   1.00
N1029  N     0.83332   0.16666   0.95240   0.00000  Uiso   1.00
N1030  N     0.83335   0.16668   0.71427   0.00000  Uiso   1.00
O1031  O     0.83333   0.10558   0.87154   0.00000  Uiso   1.00
O1032  O     0.67698   0.13520   0.88460   0.00000  Uiso   1.00
O1033  O     0.91713   0.06863   0.77397   0.00000  Uiso   1.00
O1034  O     0.97217   0.03609   0.82722   0.00000  Uiso   1.00
O1035  O     0.74995   0.26553   0.89366   0.00000  Uiso   1.00
O1036  O     0.69493   0.29602   0.83866   0.00000  Uiso   1.00
O1037  O     0.89312   0.22438   0.72560   0.00000  Uiso   1.00
O1038  O     0.77354   0.10895   0.94107   0.00000  Uiso   1.00
O1039  O     0.89515   0.22562   0.96508   0.00000  Uiso   1.00
O1040  O     0.77151   0.10772   0.70159   0.00000  Uiso   1.00
O1041  O     0.83334   0.22775   0.79513   0.00000  Uiso   1.00
O1042  O     0.83333   0.10559   0.79510   0.00000  Uiso   1.00
O1043  O     0.83334   0.22774   0.87157   0.00000  Uiso   1.00
O1044  O     0.75725   0.16666   0.86261   0.00000  Uiso   1.00
O1045  O     0.90942   0.16667   0.80405   0.00000  Uiso   1.00
O1046  O     0.75725   0.16667   0.78617   0.00000  Uiso   1.00
O1047  O     0.90942   0.16666   0.88050   0.00000  Uiso   1.00
O1048  O     0.98969   0.19812   0.78206   0.00000  Uiso   1.00
Zn1049 Zn    0.83333   0.16666   0.88437   0.00000  Uiso   1.00
Zn1050 Zn    0.83333   0.16667   0.78229   0.00000  Uiso   1.00
C1051  C     0.16699   0.42017   0.83278   0.00000  Uiso   1.00
C1052  C     0.12459   0.35468   0.84561   0.00000  Uiso   1.00
C1053  C     0.16655   0.62401   0.83528   0.00000  Uiso   1.00
C1054  C     0.16696   0.37599   0.83140   0.00000  Uiso   1.00
C1055  C     0.19666   0.52904   0.69609   0.00000  Uiso   1.00
C1056  C     0.13667   0.47096   0.97057   0.00000  Uiso   1.00
C1057  C     0.19699   0.52904   0.98137   0.00000  Uiso   1.00
C1058  C     0.13635   0.47096   0.68530   0.00000  Uiso   1.00
C1059  C     0.25571   0.37736   0.80502   0.00000  Uiso   1.00
C1060  C     0.07797   0.62258   0.86179   0.00000  Uiso   1.00
C1061  C     0.16645   0.57983   0.83390   0.00000  Uiso   1.00
C1062  C     0.06732   0.50073   0.82163   0.00000  Uiso   1.00
C1063  C     0.26602   0.49927   0.84503   0.00000  Uiso   1.00
C1064  C     0.01306   0.50714   0.81686   0.00000  Uiso   1.00
C1065  C     0.32027   0.49286   0.84980   0.00000  Uiso   1.00
C1066  C     0.20957   0.35514   0.81875   0.00000  Uiso   1.00
C1067  C     0.12399   0.64486   0.84797   0.00000  Uiso   1.00
C1068  C     0.20893   0.64531   0.82109   0.00000  Uiso   1.00
H1069  H     0.24106   0.62809   0.81138   0.00000  Uiso   1.00
H1070  H     0.10257   0.44828   0.73337   0.00000  Uiso   1.00
H1071  H     0.09245   0.37187   0.85534   0.00000  Uiso   1.00
H1072  H     0.01626   0.54211   0.76397   0.00000  Uiso   1.00
H1073  H     0.31707   0.45787   0.90268   0.00000  Uiso   1.00
H1074  H     0.00055   0.38645   0.81500   0.00000  Uiso   1.00
H1075  H     0.33330   0.61235   0.85101   0.00000  Uiso   1.00
H1076  H     0.24635   0.57719   0.70856   0.00000  Uiso   1.00
H1077  H     0.08698   0.42281   0.95810   0.00000  Uiso   1.00
H1078  H     0.23077   0.55172   0.93330   0.00000  Uiso   1.00
N1079  N     0.16665   0.49999   0.95240   0.00000  Uiso   1.00
N1080  N     0.16668   0.50001   0.71427   0.00000  Uiso   1.00
O1081  O     0.16666   0.43892   0.87154   0.00000  Uiso   1.00
O1082  O     0.01031   0.46853   0.88460   0.00000  Uiso   1.00
O1083  O     0.25046   0.40196   0.77397   0.00000  Uiso   1.00
O1084  O     0.30550   0.36942   0.82722   0.00000  Uiso   1.00
O1085  O     0.08328   0.59887   0.89366   0.00000  Uiso   1.00
O1086  O     0.02827   0.62935   0.83866   0.00000  Uiso   1.00
O1087  O     0.22646   0.55771   0.72560   0.00000  Uiso   1.00
O1088  O     0.10688   0.44229   0.94107   0.00000  Uiso   1.00
O1089  O     0.22849   0.55895   0.96508   0.00000  Uiso   1.00
O1090  O     0.10484   0.44105   0.70159   0.00000  Uiso   1.00
O1091  O     0.16667   0.56108   0.79513   0.00000  Uiso   1.00
O1092  O     0.16666   0.43893   0.79510   0.00000  Uiso   1.00
O1093  O     0.16667   0.56107   0.87157   0.00000  Uiso   1.00
O1094  O     0.09058   0.50000   0.86261   0.00000  Uiso   1.00
O1095  O     0.24275   0.50000   0.80405   0.00000  Uiso   1.00
O1096  O     0.09058   0.50000   0.78617   0.00000  Uiso   1.00
O1097  O     0.24275   0.50000   0.88050   0.00000  Uiso   1.00
O1098  O     0.32302   0.53145   0.78206   0.00000  Uiso   1.00
Zn1099 Zn    0.16667   0.49999   0.88437   0.00000  Uiso   1.00
Zn1100 Zn    0.16667   0.50001   0.78229   0.00000  Uiso   1.00
C1101  C     0.50032   0.42017   0.83278   0.00000  Uiso   1.00
C1102  C     0.45792   0.35468   0.84561   0.00000  Uiso   1.00
C1103  C     0.49989   0.62401   0.83528   0.00000  Uiso   1.00
C1104  C     0.50029   0.37599   0.83140   0.00000  Uiso   1.00
C1105  C     0.52999   0.52904   0.69609   0.00000  Uiso   1.00
C1106  C     0.47001   0.47096   0.97057   0.00000  Uiso   1.00
C1107  C     0.53032   0.52904   0.98137   0.00000  Uiso   1.00
C1108  C     0.46968   0.47096   0.68530   0.00000  Uiso   1.00
C1109  C     0.58905   0.37736   0.80502   0.00000  Uiso   1.00
C1110  C     0.41130   0.62258   0.86179   0.00000  Uiso   1.00
C1111  C     0.49978   0.57983   0.83390   0.00000  Uiso   1.00
C1112  C     0.40065   0.50073   0.82163   0.00000  Uiso   1.00
C1113  C     0.59935   0.49927   0.84503   0.00000  Uiso   1.00
C1114  C     0.34639   0.50714   0.81686   0.00000  Uiso   1.00
C1115  C     0.65361   0.49286   0.84980   0.00000  Uiso   1.00
C1116  C     0.54290   0.35514   0.81875   0.00000  Uiso   1.00
C1117  C     0.45733   0.64486   0.84797   0.00000  Uiso   1.00
C1118  C     0.54227   0.64531   0.82109   0.00000  Uiso   1.00
H1119  H     0.57439   0.62809   0.81138   0.00000  Uiso   1.00
H1120  H     0.43590   0.44828   0.73337   0.00000  Uiso   1.00
H1121  H     0.42579   0.37187   0.85534   0.00000  Uiso   1.00
H1122  H     0.34959   0.54211   0.76397   0.00000  Uiso   1.00
H1123  H     0.65041   0.45787   0.90268   0.00000  Uiso   1.00
H1124  H     0.33388   0.38645   0.81500   0.00000  Uiso   1.00
H1125  H     0.66663   0.61235   0.85101   0.00000  Uiso   1.00
H1126  H     0.57969   0.57719   0.70856   0.00000  Uiso   1.00
H1127  H     0.42032   0.42281   0.95810   0.00000  Uiso   1.00
H1128  H     0.56410   0.55172   0.93330   0.00000  Uiso   1.00
N1129  N     0.49999   0.49999   0.95240   0.00000  Uiso   1.00
N1130  N     0.50001   0.50001   0.71427   0.00000  Uiso   1.00
O1131  O     0.50000   0.43892   0.87154   0.00000  Uiso   1.00
O1132  O     0.34364   0.46853   0.88460   0.00000  Uiso   1.00
O1133  O     0.58379   0.40196   0.77397   0.00000  Uiso   1.00
O1134  O     0.63883   0.36942   0.82722   0.00000  Uiso   1.00
O1135  O     0.41661   0.59887   0.89366   0.00000  Uiso   1.00
O1136  O     0.36160   0.62935   0.83866   0.00000  Uiso   1.00
O1137  O     0.55979   0.55771   0.72560   0.00000  Uiso   1.00
O1138  O     0.44021   0.44229   0.94107   0.00000  Uiso   1.00
O1139  O     0.56182   0.55895   0.96508   0.00000  Uiso   1.00
O1140  O     0.43818   0.44105   0.70159   0.00000  Uiso   1.00
O1141  O     0.50000   0.56108   0.79513   0.00000  Uiso   1.00
O1142  O     0.50000   0.43893   0.79510   0.00000  Uiso   1.00
O1143  O     0.50000   0.56107   0.87157   0.00000  Uiso   1.00
O1144  O     0.42392   0.50000   0.86261   0.00000  Uiso   1.00
O1145  O     0.57608   0.50000   0.80405   0.00000  Uiso   1.00
O1146  O     0.42392   0.50000   0.78617   0.00000  Uiso   1.00
O1147  O     0.57608   0.50000   0.88050   0.00000  Uiso   1.00
O1148  O     0.65635   0.53145   0.78206   0.00000  Uiso   1.00
Zn1149 Zn    0.50000   0.49999   0.88437   0.00000  Uiso   1.00
Zn1150 Zn    0.50000   0.50001   0.78229   0.00000  Uiso   1.00
C1151  C     0.83365   0.42017   0.83278   0.00000  Uiso   1.00
C1152  C     0.79126   0.35468   0.84561   0.00000  Uiso   1.00
C1153  C     0.83322   0.62401   0.83528   0.00000  Uiso   1.00
C1154  C     0.83362   0.37599   0.83140   0.00000  Uiso   1.00
C1155  C     0.86333   0.52904   0.69609   0.00000  Uiso   1.00
C1156  C     0.80334   0.47096   0.97057   0.00000  Uiso   1.00
C1157  C     0.86365   0.52904   0.98137   0.00000  Uiso   1.00
C1158  C     0.80301   0.47096   0.68530   0.00000  Uiso   1.00
C1159  C     0.92238   0.37736   0.80502   0.00000  Uiso   1.00
C1160  C     0.74463   0.62258   0.86179   0.00000  Uiso   1.00
C1161  C     0.83312   0.57983   0.83390   0.00000  Uiso   1.00
C1162  C     0.73398   0.50073   0.82163   0.00000  Uiso   1.00
C1163  C     0.93268   0.49927   0.84503   0.00000  Uiso   1.00
C1164  C     0.67973   0.50714   0.81686   0.00000  Uiso   1.00
C1165  C     0.98694   0.49286   0.84980   0.00000  Uiso   1.00
C1166  C     0.87623   0.35514   0.81875   0.00000  Uiso   1.00
C1167  C     0.79066   0.64486   0.84797   0.00000  Uiso   1.00
C1168  C     0.87560   0.64531   0.82109   0.00000  Uiso   1.00
H1169  H     0.90773   0.62809   0.81138   0.00000  Uiso   1.00
H1170  H     0.76923   0.44828   0.73337   0.00000  Uiso   1.00
H1171  H     0.75912   0.37187   0.85534   0.00000  Uiso   1.00
H1172  H     0.68292   0.54211   0.76397   0.00000  Uiso   1.00
H1173  H     0.98374   0.45787   0.90268   0.00000  Uiso   1.00
H1174  H     0.66721   0.38645   0.81500   0.00000  Uiso   1.00
H1175  H     0.99996   0.61235   0.85101   0.00000  Uiso   1.00
H1176  H     0.91302   0.57719   0.70856   0.00000  Uiso   1.00
H1177  H     0.75365   0.42281   0.95810   0.00000  Uiso   1.00
H1178  H     0.89744   0.55172   0.93330   0.00000  Uiso   1.00
N1179  N     0.83332   0.49999   0.95240   0.00000  Uiso   1.00
N1180  N     0.83335   0.50001   0.71427   0.00000  Uiso   1.00
O1181  O     0.83333   0.43892   0.87154   0.00000  Uiso   1.00
O1182  O     0.67698   0.46853   0.88460   0.00000  Uiso   1.00
O1183  O     0.91713   0.40196   0.77397   0.00000  Uiso   1.00
O1184  O     0.97217   0.36942   0.82722   0.00000  Uiso   1.00
O1185  O     0.74995   0.59887   0.89366   0.00000  Uiso   1.00
O1186  O     0.69493   0.62935   0.83866   0.00000  Uiso   1.00
O1187  O     0.89312   0.55771   0.72560   0.00000  Uiso   1.00
O1188  O     0.77354   0.44229   0.94107   0.00000  Uiso   1.00
O1189  O     0.89515   0.55895   0.96508   0.00000  Uiso   1.00
O1190  O     0.77151   0.44105   0.70159   0.00000  Uiso   1.00
O1191  O     0.83334   0.56108   0.79513   0.00000  Uiso   1.00
O1192  O     0.83333   0.43893   0.79510   0.00000  Uiso   1.00
O1193  O     0.83334   0.56107   0.87157   0.00000  Uiso   1.00
O1194  O     0.75725   0.50000   0.86261   0.00000  Uiso   1.00
O1195  O     0.90942   0.50000   0.80405   0.00000  Uiso   1.00
O1196  O     0.75725   0.50000   0.78617   0.00000  Uiso   1.00
O1197  O     0.90942   0.50000   0.88050   0.00000  Uiso   1.00
O1198  O     0.98969   0.53145   0.78206   0.00000  Uiso   1.00
Zn1199 Zn    0.83333   0.49999   0.88437   0.00000  Uiso   1.00
Zn1200 Zn    0.83333   0.50001   0.78229   0.00000  Uiso   1.00
C1201  C     0.16699   0.75351   0.83278   0.00000  Uiso   1.00
C1202  C     0.12459   0.68802   0.84561   0.00000  Uiso   1.00
C1203  C     0.16655   0.95735   0.83528   0.00000  Uiso   1.00
C1204  C     0.16696   0.70932   0.83140   0.00000  Uiso   1.00
C1205  C     0.19666   0.86237   0.69609   0.00000  Uiso   1.00
C1206  C     0.13667   0.80430   0.97057   0.00000  Uiso   1.00
C1207  C     0.19699   0.86238   0.98137   0.00000  Uiso   1.00
C1208  C     0.13635   0.80429   0.68530   0.00000  Uiso   1.00
C1209  C     0.25571   0.71069   0.80502   0.00000  Uiso   1.00
C1210  C     0.07797   0.95592   0.86179   0.00000  Uiso   1.00
C1211  C     0.16645   0.91316   0.83390   0.00000  Uiso   1.00
C1212  C     0.06732   0.83406   0.82163   0.00000  Uiso   1.00
C1213  C     0.26602   0.83261   0.84503   0.00000  Uiso   1.00
C1214  C     0.01306   0.84047   0.81686   0.00000  Uiso   1.00
C1215  C     0.32027   0.82619   0.84980   0.00000  Uiso   1.00
C1216  C     0.20957   0.68847   0.81875   0.00000  Uiso   1.00
C1217  C     0.12399   0.97820   0.84797   0.00000  Uiso   1.00
C1218  C     0.20893   0.97864   0.82109   0.00000  Uiso   1.00
H1219  H     0.24106   0.96143   0.81138   0.00000  Uiso   1.00
H1220  H     0.10257   0.78162   0.73337   0.00000  Uiso   1.00
H1221  H     0.09245   0.70521   0.85534   0.00000  Uiso   1.00
H1222  H     0.01626   0.87545   0.76397   0.00000  Uiso   1.00
H1223  H     0.31707   0.79121   0.90268   0.00000  Uiso   1.00
H1224  H     0.00055   0.71978   0.81500   0.00000  Uiso   1.00
H1225  H     0.33330   0.94568   0.85101   0.00000  Uiso   1.00
H1226  H     0.24635   0.91052   0.70856   0.00000  Uiso   1.00
H1227  H     0.08698   0.75615   0.95810   0.00000  Uiso   1.00
H1228  H     0.23077   0.88505   0.93330   0.00000  Uiso   1.00
N1229  N     0.16665   0.83332   0.95240   0.00000  Uiso   1.00
N1230  N     0.16668   0.83334   0.71427   0.00000  Uiso   1.00
O1231  O     0.16666   0.77225   0.87154   0.00000  Uiso   1.00
O1232  O     0.01031   0.80186   0.88460   0.00000  Uiso   1.00
O1233  O     0.25046   0.73530   0.77397   0.00000  Uiso   1.00
O1234  O     0.30550   0.70275   0.82722   0.00000  Uiso   1.00
O1235  O     0.08328   0.93220   0.89366   0.00000  Uiso   1.00
O1236  O     0.02827   0.96269   0.83866   0.00000  Uiso   1.00
O1237  O     0.22646   0.89105   0.72560   0.00000  Uiso   1.00
O1238  O     0.10688   0.77562   0.94107   0.00000  Uiso   1.00
O1239  O     0.22849   0.89229   0.96508   0.00000  Uiso   1.00
O1240  O     0.10484   0.77438   0.70159   0.00000  Uiso   1.00
O1241  O     0.16667   0.89442   0.79513   0.00000  Uiso   1.00
O1242  O     0.16666   0.77226   0.79510   0.00000  Uiso   1.00
O1243  O     0.16667   0.89441   0.87157   0.00000  Uiso   1.00
O1244  O     0.09058   0.83333   0.86261   0.00000  Uiso   1.00
O1245  O     0.24275   0.83334   0.80405   0.00000  Uiso   1.00
O1246  O     0.09058   0.83334   0.78617   0.00000  Uiso   1.00
O1247  O     0.24275   0.83333   0.88050   0.00000  Uiso   1.00
O1248  O     0.32302   0.86479   0.78206   0.00000  Uiso   1.00
Zn1249 Zn    0.16667   0.83333   0.88437   0.00000  Uiso   1.00
Zn1250 Zn    0.16667   0.83334   0.78229   0.00000  Uiso   1.00
C1251  C     0.50032   0.75351   0.83278   0.00000  Uiso   1.00
C1252  C     0.45792   0.68802   0.84561   0.00000  Uiso   1.00
C1253  C     0.49989   0.95735   0.83528   0.00000  Uiso   1.00
C1254  C     0.50029   0.70932   0.83140   0.00000  Uiso   1.00
C1255  C     0.52999   0.86237   0.69609   0.00000  Uiso   1.00
C1256  C     0.47001   0.80430   0.97057   0.00000  Uiso   1.00
C1257  C     0.53032   0.86238   0.98137   0.00000  Uiso   1.00
C1258  C     0.46968   0.80429   0.68530   0.00000  Uiso   1.00
C1259  C     0.58905   0.71069   0.80502   0.00000  Uiso   1.00
C1260  C     0.41130   0.95592   0.86179   0.00000  Uiso   1.00
C1261  C     0.49978   0.91316   0.83390   0.00000  Uiso   1.00
C1262  C     0.40065   0.83406   0.82163   0.00000  Uiso   1.00
C1263  C     0.59935   0.83261   0.84503   0.00000  Uiso   1.00
C1264  C     0.34639   0.84047   0.81686   0.00000  Uiso   1.00
C1265  C     0.65361   0.82619   0.84980   0.00000  Uiso   1.00
C1266  C     0.54290   0.68847   0.81875   0.00000  Uiso   1.00
C1267  C     0.45733   0.97820   0.84797   0.00000  Uiso   1.00
C1268  C     0.54227   0.97864   0.82109   0.00000  Uiso   1.00
H1269  H     0.57439   0.96143   0.81138   0.00000  Uiso   1.00
H1270  H     0.43590   0.78162   0.73337   0.00000  Uiso   1.00
H1271  H     0.42579   0.70521   0.85534   0.00000  Uiso   1.00
H1272  H     0.34959   0.87545   0.76397   0.00000  Uiso   1.00
H1273  H     0.65041   0.79121   0.90268   0.00000  Uiso   1.00
H1274  H     0.33388   0.71978   0.81500   0.00000  Uiso   1.00
H1275  H     0.66663   0.94568   0.85101   0.00000  Uiso   1.00
H1276  H     0.57969   0.91052   0.70856   0.00000  Uiso   1.00
H1277  H     0.42032   0.75615   0.95810   0.00000  Uiso   1.00
H1278  H     0.56410   0.88505   0.93330   0.00000  Uiso   1.00
N1279  N     0.49999   0.83332   0.95240   0.00000  Uiso   1.00
N1280  N     0.50001   0.83334   0.71427   0.00000  Uiso   1.00
O1281  O     0.50000   0.77225   0.87154   0.00000  Uiso   1.00
O1282  O     0.34364   0.80186   0.88460   0.00000  Uiso   1.00
O1283  O     0.58379   0.73530   0.77397   0.00000  Uiso   1.00
O1284  O     0.63883   0.70275   0.82722   0.00000  Uiso   1.00
O1285  O     0.41661   0.93220   0.89366   0.00000  Uiso   1.00
O1286  O     0.36160   0.96269   0.83866   0.00000  Uiso   1.00
O1287  O     0.55979   0.89105   0.72560   0.00000  Uiso   1.00
O1288  O     0.44021   0.77562   0.94107   0.00000  Uiso   1.00
O1289  O     0.56182   0.89229   0.96508   0.00000  Uiso   1.00
O1290  O     0.43818   0.77438   0.70159   0.00000  Uiso   1.00
O1291  O     0.50000   0.89442   0.79513   0.00000  Uiso   1.00
O1292  O     0.50000   0.77226   0.79510   0.00000  Uiso   1.00
O1293  O     0.50000   0.89441   0.87157   0.00000  Uiso   1.00
O1294  O     0.42392   0.83333   0.86261   0.00000  Uiso   1.00
O1295  O     0.57608   0.83334   0.80405   0.00000  Uiso   1.00
O1296  O     0.42392   0.83334   0.78617   0.00000  Uiso   1.00
O1297  O     0.57608   0.83333   0.88050   0.00000  Uiso   1.00
O1298  O     0.65635   0.86479   0.78206   0.00000  Uiso   1.00
Zn1299 Zn    0.50000   0.83333   0.88437   0.00000  Uiso   1.00
Zn1300 Zn    0.50000   0.83334   0.78229   0.00000  Uiso   1.00
C1301  C     0.83365   0.75351   0.83278   0.00000  Uiso   1.00
C1302  C     0.79126   0.68802   0.84561   0.00000  Uiso   1.00
C1303  C     0.83322   0.95735   0.83528   0.00000  Uiso   1.00
C1304  C     0.83362   0.70932   0.83140   0.00000  Uiso   1.00
C1305  C     0.86333   0.86237   0.69609   0.00000  Uiso   1.00
C1306  C     0.80334   0.80430   0.97057   0.00000  Uiso   1.00
C1307  C     0.86365   0.86238   0.98137   0.00000  Uiso   1.00
C1308  C     0.80301   0.80429   0.68530   0.00000  Uiso   1.00
C1309  C     0.92238   0.71069   0.80502   0.00000  Uiso   1.00
C1310  C     0.74463   0.95592   0.86179   0.00000  Uiso   1.00
C1311  C     0.83312   0.91316   0.83390   0.00000  Uiso   1.00
C1312  C     0.73398   0.83406   0.82163   0.00000  Uiso   1.00
C1313  C     0.93268   0.83261   0.84503   0.00000  Uiso   1.00
C1314  C     0.67973   0.84047   0.81686   0.00000  Uiso   1.00
C1315  C     0.98694   0.82619   0.84980   0.00000  Uiso   1.00
C1316  C     0.87623   0.68847   0.81875   0.00000  Uiso   1.00
C1317  C     0.79066   0.97820   0.84797   0.00000  Uiso   1.00
C1318  C     0.87560   0.97864   0.82109   0.00000  Uiso   1.00
H1319  H     0.90773   0.96143   0.81138   0.00000  Uiso   1.00
H1320  H     0.76923   0.78162   0.73337   0.00000  Uiso   1.00
H1321  H     0.75912   0.70521   0.85534   0.00000  Uiso   1.00
H1322  H     0.68292   0.87545   0.76397   0.00000  Uiso   1.00
H1323  H     0.98374   0.79121   0.90268   0.00000  Uiso   1.00
H1324  H     0.66721   0.71978   0.81500   0.00000  Uiso   1.00
H1325  H     0.99996   0.94568   0.85101   0.00000  Uiso   1.00
H1326  H     0.91302   0.91052   0.70856   0.00000  Uiso   1.00
H1327  H     0.75365   0.75615   0.95810   0.00000  Uiso   1.00
H1328  H     0.89744   0.88505   0.93330   0.00000  Uiso   1.00
N1329  N     0.83332   0.83332   0.95240   0.00000  Uiso   1.00
N1330  N     0.83335   0.83334   0.71427   0.00000  Uiso   1.00
O1331  O     0.83333   0.77225   0.87154   0.00000  Uiso   1.00
O1332  O     0.67698   0.80186   0.88460   0.00000  Uiso   1.00
O1333  O     0.91713   0.73530   0.77397   0.00000  Uiso   1.00
O1334  O     0.97217   0.70275   0.82722   0.00000  Uiso   1.00
O1335  O     0.74995   0.93220   0.89366   0.00000  Uiso   1.00
O1336  O     0.69493   0.96269   0.83866   0.00000  Uiso   1.00
O1337  O     0.89312   0.89105   0.72560   0.00000  Uiso   1.00
O1338  O     0.77354   0.77562   0.94107   0.00000  Uiso   1.00
O1339  O     0.89515   0.89229   0.96508   0.00000  Uiso   1.00
O1340  O     0.77151   0.77438   0.70159   0.00000  Uiso   1.00
O1341  O     0.83334   0.89442   0.79513   0.00000  Uiso   1.00
O1342  O     0.83333   0.77226   0.79510   0.00000  Uiso   1.00
O1343  O     0.83334   0.89441   0.87157   0.00000  Uiso   1.00
O1344  O     0.75725   0.83333   0.86261   0.00000  Uiso   1.00
O1345  O     0.90942   0.83334   0.80405   0.00000  Uiso   1.00
O1346  O     0.75725   0.83334   0.78617   0.00000  Uiso   1.00
O1347  O     0.90942   0.83333   0.88050   0.00000  Uiso   1.00
O1348  O     0.98969   0.86479   0.78206   0.00000  Uiso   1.00
Zn1349 Zn    0.83333   0.83333   0.88437   0.00000  Uiso   1.00
Zn1350 Zn    0.83333   0.83334   0.78229   0.00000  Uiso   1.00
loop_
_geom_bond_atom_site_label_1
_geom_bond_atom_site_label_2
_geom_bond_distance
_geom_bond_site_symmetry_2
_ccdc_geom_bond_type
C1     C4      1.407   .     S
C1     O42     1.283   .     A
C1     O31     1.287   .     A
C2     C4      1.395   .     A
C2     H21     1.086   .     S
C2     C317    1.378   1_545 S
C3     C17     1.404   .     A
C3     C11     1.407   .     S
C3     C18     1.394   .     A
C4     C16     1.405   .     A
C5     O37     1.381   .     S
C5     N30     1.360   .     A
C5     C907    1.431   1_554 S
C6     O38     1.381   .     S
C6     N29     1.360   .     A
C6     C458    1.431   .     S
C7     N29     1.386   .     A
C7     O39     1.376   .     S
C7     C455    1.431   .     S
C8     N30     1.386   .     A
C8     O40     1.376   .     S
C8     C906    1.431   1_554 S
C9     O33     1.222   .     D
C9     C16     1.483   .     S
C9     O34     1.396   .     S
C10    O35     1.222   .     D
C10    C17     1.482   .     S
C10    O36     1.396   .     S
C11    O43     1.283   .     A
C11    O41     1.286   .     A
C12    O46     1.292   .     A
C12    O44     1.279   .     A
C12    C14     1.417   .     S
C13    C15     1.417   .     S
C13    O45     1.279   .     A
C13    O47     1.292   .     A
C14    C115    1.351   1_455 S
C14    O148    1.389   1_455 S
C15    C64     1.351   .     S
C15    O82     1.389   .     S
C16    C318    1.378   1_545 S
C17    C152    1.378   .     S
C18    H19     1.086   .     S
C18    C166    1.378   .     S
H20    O40     0.979   .     S
H22    O148    0.991   1_455 S
H23    O82     0.991   .     S
H24    O134    1.014   1_455 S
H25    O86     1.014   .     S
H26    O37     0.989   .     S
H27    O38     0.989   .     S
H28    O39     0.979   .     S
N29    Zn49    2.024   .     S
N30    Zn50    2.024   .     S
O31    Zn49    1.973   .     S
O32    H123    0.991   1_455 S
O32    C115    1.389   1_455 S
O34    H74     1.014   .     S
O36    H125    1.014   1_455 S
O41    Zn50    1.973   .     S
O42    Zn50    1.992   .     S
O43    Zn49    1.992   .     S
O44    Zn49    1.984   .     S
O45    Zn50    1.984   .     S
O46    Zn50    1.995   .     S
O47    Zn49    1.995   .     S
O48    H72     0.991   .     S
O48    C64     1.389   .     S
C51    C54     1.407   .     S
C51    O92     1.283   .     A
C51    O81     1.287   .     A
C52    C54     1.395   .     A
C52    H71     1.086   .     S
C52    C367    1.378   1_545 S
C53    C67     1.404   .     A
C53    C61     1.407   .     S
C53    C68     1.394   .     A
C54    C66     1.405   .     A
C55    O87     1.381   .     S
C55    N80     1.360   .     A
C55    C957    1.431   1_554 S
C56    O88     1.381   .     S
C56    N79     1.360   .     A
C56    C508    1.431   .     S
C57    N79     1.386   .     A
C57    O89     1.376   .     S
C57    C505    1.431   .     S
C58    N80     1.386   .     A
C58    O90     1.376   .     S
C58    C956    1.431   1_554 S
C59    O83     1.222   .     D
C59    C66     1.483   .     S
C59    O84     1.396   .     S
C60    O85     1.222   .     D
C60    C67     1.482   .     S
C60    O86     1.396   .     S
C61    O93     1.283   .     A
C61    O91     1.286   .     A
C62    O96     1.292   .     A
C62    O94     1.279   .     A
C62    C64     1.417   .     S
C63    C65     1.417   .     S
C63    O95     1.279   .     A
C63    O97     1.292   .     A
C65    C114    1.351   .     S
C65    O132    1.389   .     S
C66    C368    1.378   1_545 S
C67    C202    1.378   .     S
C68    H69     1.086   .     S
C68    C216    1.378   .     S
H70    O90     0.979   .     S
H73    O132    0.991   .     S
H75    O136    1.014   .     S
H76    O87     0.989   .     S
H77    O88     0.989   .     S
H78    O89     0.979   .     S
N79    Zn99    2.024   .     S
N80    Zn100   2.024   .     S
O81    Zn99    1.973   .     S
O84    H124    1.014   .     S
O91    Zn100   1.973   .     S
O92    Zn100   1.992   .     S
O93    Zn99    1.992   .     S
O94    Zn99    1.984   .     S
O95    Zn100   1.984   .     S
O96    Zn100   1.995   .     S
O97    Zn99    1.995   .     S
O98    H122    0.991   .     S
O98    C114    1.389   .     S
C101   C104    1.407   .     S
C101   O142    1.283   .     A
C101   O131    1.287   .     A
C102   C104    1.395   .     A
C102   H121    1.086   .     S
C102   C417    1.378   1_545 S
C103   C117    1.404   .     A
C103   C111    1.407   .     S
C103   C118    1.394   .     A
C104   C116    1.405   .     A
C105   O137    1.381   .     S
C105   N130    1.360   .     A
C105   C1007   1.431   1_554 S
C106   O138    1.381   .     S
C106   N129    1.360   .     A
C106   C558    1.431   .     S
C107   N129    1.386   .     A
C107   O139    1.376   .     S
C107   C555    1.431   .     S
C108   N130    1.386   .     A
C108   O140    1.376   .     S
C108   C1006   1.431   1_554 S
C109   O133    1.222   .     D
C109   C116    1.483   .     S
C109   O134    1.396   .     S
C110   O135    1.222   .     D
C110   C117    1.482   .     S
C110   O136    1.396   .     S
C111   O143    1.283   .     A
C111   O141    1.286   .     A
C112   O146    1.292   .     A
C112   O144    1.279   .     A
C112   C114    1.417   .     S
C113   C115    1.417   .     S
C113   O145    1.279   .     A
C113   O147    1.292   .     A
C115   C14     1.351   1_655 S
C115   O32     1.389   1_655 S
C116   C418    1.378   1_545 S
C117   C252    1.378   .     S
C118   H119    1.086   .     S
C118   C266    1.378   .     S
H120   O140    0.979   .     S
H123   O32     0.991   1_655 S
H125   O36     1.014   1_655 S
H126   O137    0.989   .     S
H127   O138    0.989   .     S
H128   O139    0.979   .     S
N129   Zn149   2.024   .     S
N130   Zn150   2.024   .     S
O131   Zn149   1.973   .     S
O134   H24     1.014   1_655 S
O141   Zn150   1.973   .     S
O142   Zn150   1.992   .     S
O143   Zn149   1.992   .     S
O144   Zn149   1.984   .     S
O145   Zn150   1.984   .     S
O146   Zn150   1.995   .     S
O147   Zn149   1.995   .     S
O148   H22     0.991   1_655 S
O148   C14     1.389   1_655 S
C151   C154    1.407   .     S
C151   O192    1.283   .     A
C151   O181    1.287   .     A
C152   C154    1.395   .     A
C152   H171    1.086   .     S
C153   C167    1.404   .     A
C153   C161    1.407   .     S
C153   C168    1.394   .     A
C154   C166    1.405   .     A
C155   O187    1.381   .     S
C155   N180    1.360   .     A
C155   C1057   1.431   1_554 S
C156   O188    1.381   .     S
C156   N179    1.360   .     A
C156   C608    1.431   .     S
C157   N179    1.386   .     A
C157   O189    1.376   .     S
C157   C605    1.431   .     S
C158   N180    1.386   .     A
C158   O190    1.376   .     S
C158   C1056   1.431   1_554 S
C159   O183    1.222   .     D
C159   C166    1.483   .     S
C159   O184    1.396   .     S
C160   O185    1.222   .     D
C160   C167    1.482   .     S
C160   O186    1.396   .     S
C161   O193    1.283   .     A
C161   O191    1.286   .     A
C162   O196    1.292   .     A
C162   O194    1.279   .     A
C162   C164    1.417   .     S
C163   C165    1.417   .     S
C163   O195    1.279   .     A
C163   O197    1.292   .     A
C164   C265    1.351   1_455 S
C164   O298    1.389   1_455 S
C165   C214    1.351   .     S
C165   O232    1.389   .     S
C167   C302    1.378   .     S
C168   H169    1.086   .     S
C168   C316    1.378   .     S
H170   O190    0.979   .     S
H172   O298    0.991   1_455 S
H173   O232    0.991   .     S
H174   O284    1.014   1_455 S
H175   O236    1.014   .     S
H176   O187    0.989   .     S
H177   O188    0.989   .     S
H178   O189    0.979   .     S
N179   Zn199   2.024   .     S
N180   Zn200   2.024   .     S
O181   Zn199   1.973   .     S
O182   H273    0.991   1_455 S
O182   C265    1.389   1_455 S
O184   H224    1.014   .     S
O186   H275    1.014   1_455 S
O191   Zn200   1.973   .     S
O192   Zn200   1.992   .     S
O193   Zn199   1.992   .     S
O194   Zn199   1.984   .     S
O195   Zn200   1.984   .     S
O196   Zn200   1.995   .     S
O197   Zn199   1.995   .     S
O198   H222    0.991   .     S
O198   C214    1.389   .     S
C201   C204    1.407   .     S
C201   O242    1.283   .     A
C201   O231    1.287   .     A
C202   C204    1.395   .     A
C202   H221    1.086   .     S
C203   C217    1.404   .     A
C203   C211    1.407   .     S
C203   C218    1.394   .     A
C204   C216    1.405   .     A
C205   O237    1.381   .     S
C205   N230    1.360   .     A
C205   C1107   1.431   1_554 S
C206   O238    1.381   .     S
C206   N229    1.360   .     A
C206   C658    1.431   .     S
C207   N229    1.386   .     A
C207   O239    1.376   .     S
C207   C655    1.431   .     S
C208   N230    1.386   .     A
C208   O240    1.376   .     S
C208   C1106   1.431   1_554 S
C209   O233    1.222   .     D
C209   C216    1.483   .     S
C209   O234    1.396   .     S
C210   O235    1.222   .     D
C210   C217    1.482   .     S
C210   O236    1.396   .     S
C211   O243    1.283   .     A
C211   O241    1.286   .     A
C212   O246    1.292   .     A
C212   O244    1.279   .     A
C212   C214    1.417   .     S
C213   C215    1.417   .     S
C213   O245    1.279   .     A
C213   O247    1.292   .     A
C215   C264    1.351   .     S
C215   O282    1.389   .     S
C217   C352    1.378   .     S
C218   H219    1.086   .     S
C218   C366    1.378   .     S
H220   O240    0.979   .     S
H223   O282    0.991   .     S
H225   O286    1.014   .     S
H226   O237    0.989   .     S
H227   O238    0.989   .     S
H228   O239    0.979   .     S
N229   Zn249   2.024   .     S
N230   Zn250   2.024   .     S
O231   Zn249   1.973   .     S
O234   H274    1.014   .     S
O241   Zn250   1.973   .     S
O242   Zn250   1.992   .     S
O243   Zn249   1.992   .     S
O244   Zn249   1.984   .     S
O245   Zn250   1.984   .     S
O246   Zn250   1.995   .     S
O247   Zn249   1.995   .     S
O248   H272    0.991   .     S
O248   C264    1.389   .     S
C251   C254    1.407   .     S
C251   O292    1.283   .     A
C251   O281    1.287   .     A
C252   C254    1.395   .     A
C252   H271    1.086   .     S
C253   C267    1.404   .     A
C253   C261    1.407   .     S
C253   C268    1.394   .     A
C254   C266    1.405   .     A
C255   O287    1.381   .     S
C255   N280    1.360   .     A
C255   C1157   1.431   1_554 S
C256   O288    1.381   .     S
C256   N279    1.360   .     A
C256   C708    1.431   .     S
C257   N279    1.386   .     A
C257   O289    1.376   .     S
C257   C705    1.431   .     S
C258   N280    1.386   .     A
C258   O290    1.376   .     S
C258   C1156   1.431   1_554 S
C259   O283    1.222   .     D
C259   C266    1.483   .     S
C259   O284    1.396   .     S
C260   O285    1.222   .     D
C260   C267    1.482   .     S
C260   O286    1.396   .     S
C261   O293    1.283   .     A
C261   O291    1.286   .     A
C262   O296    1.292   .     A
C262   O294    1.279   .     A
C262   C264    1.417   .     S
C263   C265    1.417   .     S
C263   O295    1.279   .     A
C263   O297    1.292   .     A
C265   C164    1.351   1_655 S
C265   O182    1.389   1_655 S
C267   C402    1.378   .     S
C268   H269    1.086   .     S
C268   C416    1.378   .     S
H270   O290    0.979   .     S
H273   O182    0.991   1_655 S
H275   O186    1.014   1_655 S
H276   O287    0.989   .     S
H277   O288    0.989   .     S
H278   O289    0.979   .     S
N279   Zn299   2.024   .     S
N280   Zn300   2.024   .     S
O281   Zn299   1.973   .     S
O284   H174    1.014   1_655 S
O291   Zn300   1.973   .     S
O292   Zn300   1.992   .     S
O293   Zn299   1.992   .     S
O294   Zn299   1.984   .     S
O295   Zn300   1.984   .     S
O296   Zn300   1.995   .     S
O297   Zn299   1.995   .     S
O298   H172    0.991   1_655 S
O298   C164    1.389   1_655 S
C301   C304    1.407   .     S
C301   O342    1.283   .     A
C301   O331    1.287   .     A
C302   C304    1.395   .     A
C302   H321    1.086   .     S
C303   C317    1.404   .     A
C303   C311    1.407   .     S
C303   C318    1.394   .     A
C304   C316    1.405   .     A
C305   O337    1.381   .     S
C305   N330    1.360   .     A
C305   C1207   1.431   1_554 S
C306   O338    1.381   .     S
C306   N329    1.360   .     A
C306   C758    1.431   .     S
C307   N329    1.386   .     A
C307   O339    1.376   .     S
C307   C755    1.431   .     S
C308   N330    1.386   .     A
C308   O340    1.376   .     S
C308   C1206   1.431   1_554 S
C309   O333    1.222   .     D
C309   C316    1.483   .     S
C309   O334    1.396   .     S
C310   O335    1.222   .     D
C310   C317    1.482   .     S
C310   O336    1.396   .     S
C311   O343    1.283   .     A
C311   O341    1.286   .     A
C312   O346    1.292   .     A
C312   O344    1.279   .     A
C312   C314    1.417   .     S
C313   C315    1.417   .     S
C313   O345    1.279   .     A
C313   O347    1.292   .     A
C314   C415    1.351   1_455 S
C314   O448    1.389   1_455 S
C315   C364    1.351   .     S
C315   O382    1.389   .     S
C317   C2      1.378   1_565 S
C318   H319    1.086   .     S
C318   C16     1.378   1_565 S
H320   O340    0.979   .     S
H322   O448    0.991   1_455 S
H323   O382    0.991   .     S
H324   O434    1.014   1_455 S
H325   O386    1.014   .     S
H326   O337    0.989   .     S
H327   O338    0.989   .     S
H328   O339    0.979   .     S
N329   Zn349   2.024   .     S
N330   Zn350   2.024   .     S
O331   Zn349   1.973   .     S
O332   H423    0.991   1_455 S
O332   C415    1.389   1_455 S
O334   H374    1.014   .     S
O336   H425    1.014   1_455 S
O341   Zn350   1.973   .     S
O342   Zn350   1.992   .     S
O343   Zn349   1.992   .     S
O344   Zn349   1.984   .     S
O345   Zn350   1.984   .     S
O346   Zn350   1.995   .     S
O347   Zn349   1.995   .     S
O348   H372    0.991   .     S
O348   C364    1.389   .     S
C351   C354    1.407   .     S
C351   O392    1.283   .     A
C351   O381    1.287   .     A
C352   C354    1.395   .     A
C352   H371    1.086   .     S
C353   C367    1.404   .     A
C353   C361    1.407   .     S
C353   C368    1.394   .     A
C354   C366    1.405   .     A
C355   O387    1.381   .     S
C355   N380    1.360   .     A
C355   C1257   1.431   1_554 S
C356   O388    1.381   .     S
C356   N379    1.360   .     A
C356   C808    1.431   .     S
C357   N379    1.386   .     A
C357   O389    1.376   .     S
C357   C805    1.431   .     S
C358   N380    1.386   .     A
C358   O390    1.376   .     S
C358   C1256   1.431   1_554 S
C359   O383    1.222   .     D
C359   C366    1.483   .     S
C359   O384    1.396   .     S
C360   O385    1.222   .     D
C360   C367    1.482   .     S
C360   O386    1.396   .     S
C361   O393    1.283   .     A
C361   O391    1.286   .     A
C362   O396    1.292   .     A
C362   O394    1.279   .     A
C362   C364    1.417   .     S
C363   C365    1.417   .     S
C363   O395    1.279   .     A
C363   O397    1.292   .     A
C365   C414    1.351   .     S
C365   O432    1.389   .     S
C367   C52     1.378   1_565 S
C368   H369    1.086   .     S
C368   C66     1.378   1_565 S
H370   O390    0.979   .     S
H373   O432    0.991   .     S
H375   O436    1.014   .     S
H376   O387    0.989   .     S
H377   O388    0.989   .     S
H378   O389    0.979   .     S
N379   Zn399   2.024   .     S
N380   Zn400   2.024   .     S
O381   Zn399   1.973   .     S
O384   H424    1.014   .     S
O391   Zn400   1.973   .     S
O392   Zn400   1.992   .     S
O393   Zn399   1.992   .     S
O394   Zn399   1.984   .     S
O395   Zn400   1.984   .     S
O396   Zn400   1.995   .     S
O397   Zn399   1.995   .     S
O398   H422    0.991   .     S
O398   C414    1.389   .     S
C401   C404    1.407   .     S
C401   O442    1.283   .     A
C401   O431    1.287   .     A
C402   C404    1.395   .     A
C402   H421    1.086   .     S
C403   C417    1.404   .     A
C403   C411    1.407   .     S
C403   C418    1.394   .     A
C404   C416    1.405   .     A
C405   O437    1.381   .     S
C405   N430    1.360   .     A
C405   C1307   1.431   1_554 S
C406   O438    1.381   .     S
C406   N429    1.360   .     A
C406   C858    1.431   .     S
C407   N429    1.386   .     A
C407   O439    1.376   .     S
C407   C855    1.431   .     S
C408   N430    1.386   .     A
C408   O440    1.376   .     S
C408   C1306   1.431   1_554 S
C409   O433    1.222   .     D
C409   C416    1.483   .     S
C409   O434    1.396   .     S
C410   O435    1.222   .     D
C410   C417    1.482   .     S
C410   O436    1.396   .     S
C411   O443    1.283   .     A
C411   O441    1.286   .     A
C412   O446    1.292   .     A
C412   O444    1.279   .     A
C412   C414    1.417   .     S
C413   C415    1.417   .     S
C413   O445    1.279   .     A
C413   O447    1.292   .     A
C415   C314    1.351   1_655 S
C415   O332    1.389   1_655 S
C417   C102    1.378   1_565 S
C418   H419    1.086   .     S
C418   C116    1.378   1_565 S
H420   O440    0.979   .     S
H423   O332    0.991   1_655 S
H425   O336    1.014   1_655 S
H426   O437    0.989   .     S
H427   O438    0.989   .     S
H428   O439    0.979   .     S
N429   Zn449   2.024   .     S
N430   Zn450   2.024   .     S
O431   Zn449   1.973   .     S
O434   H324    1.014   1_655 S
O441   Zn450   1.973   .     S
O442   Zn450   1.992   .     S
O443   Zn449   1.992   .     S
O444   Zn449   1.984   .     S
O445   Zn450   1.984   .     S
O446   Zn450   1.995   .     S
O447   Zn449   1.995   .     S
O448   H322    0.991   1_655 S
O448   C314    1.389   1_655 S
C451   C454    1.407   .     S
C451   O492    1.283   .     A
C451   O481    1.287   .     A
C452   C454    1.395   .     A
C452   H471    1.086   .     S
C452   C767    1.378   1_545 S
C453   C467    1.404   .     A
C453   C461    1.407   .     S
C453   C468    1.394   .     A
C454   C466    1.405   .     A
C455   O487    1.381   .     S
C455   N480    1.360   .     A
C456   O488    1.381   .     S
C456   N479    1.360   .     A
C456   C908    1.431   .     S
C457   N479    1.386   .     A
C457   O489    1.376   .     S
C457   C905    1.431   .     S
C458   N480    1.386   .     A
C458   O490    1.376   .     S
C459   O483    1.222   .     D
C459   C466    1.483   .     S
C459   O484    1.396   .     S
C460   O485    1.222   .     D
C460   C467    1.482   .     S
C460   O486    1.396   .     S
C461   O493    1.283   .     A
C461   O491    1.286   .     A
C462   O496    1.292   .     A
C462   O494    1.279   .     A
C462   C464    1.417   .     S
C463   C465    1.417   .     S
C463   O495    1.279   .     A
C463   O497    1.292   .     A
C464   C565    1.351   1_455 S
C464   O598    1.389   1_455 S
C465   C514    1.351   .     S
C465   O532    1.389   .     S
C466   C768    1.378   1_545 S
C467   C602    1.378   .     S
C468   H469    1.086   .     S
C468   C616    1.378   .     S
H470   O490    0.979   .     S
H472   O598    0.991   1_455 S
H473   O532    0.991   .     S
H474   O584    1.014   1_455 S
H475   O536    1.014   .     S
H476   O487    0.989   .     S
H477   O488    0.989   .     S
H478   O489    0.979   .     S
N479   Zn499   2.024   .     S
N480   Zn500   2.024   .     S
O481   Zn499   1.973   .     S
O482   H573    0.991   1_455 S
O482   C565    1.389   1_455 S
O484   H524    1.014   .     S
O486   H575    1.014   1_455 S
O491   Zn500   1.973   .     S
O492   Zn500   1.992   .     S
O493   Zn499   1.992   .     S
O494   Zn499   1.984   .     S
O495   Zn500   1.984   .     S
O496   Zn500   1.995   .     S
O497   Zn499   1.995   .     S
O498   H522    0.991   .     S
O498   C514    1.389   .     S
C501   C504    1.407   .     S
C501   O542    1.283   .     A
C501   O531    1.287   .     A
C502   C504    1.395   .     A
C502   H521    1.086   .     S
C502   C817    1.378   1_545 S
C503   C517    1.404   .     A
C503   C511    1.407   .     S
C503   C518    1.394   .     A
C504   C516    1.405   .     A
C505   O537    1.381   .     S
C505   N530    1.360   .     A
C506   O538    1.381   .     S
C506   N529    1.360   .     A
C506   C958    1.431   .     S
C507   N529    1.386   .     A
C507   O539    1.376   .     S
C507   C955    1.431   .     S
C508   N530    1.386   .     A
C508   O540    1.376   .     S
C509   O533    1.222   .     D
C509   C516    1.483   .     S
C509   O534    1.396   .     S
C510   O535    1.222   .     D
C510   C517    1.482   .     S
C510   O536    1.396   .     S
C511   O543    1.283   .     A
C511   O541    1.286   .     A
C512   O546    1.292   .     A
C512   O544    1.279   .     A
C512   C514    1.417   .     S
C513   C515    1.417   .     S
C513   O545    1.279   .     A
C513   O547    1.292   .     A
C515   C564    1.351   .     S
C515   O582    1.389   .     S
C516   C818    1.378   1_545 S
C517   C652    1.378   .     S
C518   H519    1.086   .     S
C518   C666    1.378   .     S
H520   O540    0.979   .     S
H523   O582    0.991   .     S
H525   O586    1.014   .     S
H526   O537    0.989   .     S
H527   O538    0.989   .     S
H528   O539    0.979   .     S
N529   Zn549   2.024   .     S
N530   Zn550   2.024   .     S
O531   Zn549   1.973   .     S
O534   H574    1.014   .     S
O541   Zn550   1.973   .     S
O542   Zn550   1.992   .     S
O543   Zn549   1.992   .     S
O544   Zn549   1.984   .     S
O545   Zn550   1.984   .     S
O546   Zn550   1.995   .     S
O547   Zn549   1.995   .     S
O548   H572    0.991   .     S
O548   C564    1.389   .     S
C551   C554    1.407   .     S
C551   O592    1.283   .     A
C551   O581    1.287   .     A
C552   C554    1.395   .     A
C552   H571    1.086   .     S
C552   C867    1.378   1_545 S
C553   C567    1.404   .     A
C553   C561    1.407   .     S
C553   C568    1.394   .     A
C554   C566    1.405   .     A
C555   O587    1.381   .     S
C555   N580    1.360   .     A
C556   O588    1.381   .     S
C556   N579    1.360   .     A
C556   C1008   1.431   .     S
C557   N579    1.386   .     A
C557   O589    1.376   .     S
C557   C1005   1.431   .     S
C558   N580    1.386   .     A
C558   O590    1.376   .     S
C559   O583    1.222   .     D
C559   C566    1.483   .     S
C559   O584    1.396   .     S
C560   O585    1.222   .     D
C560   C567    1.482   .     S
C560   O586    1.396   .     S
C561   O593    1.283   .     A
C561   O591    1.286   .     A
C562   O596    1.292   .     A
C562   O594    1.279   .     A
C562   C564    1.417   .     S
C563   C565    1.417   .     S
C563   O595    1.279   .     A
C563   O597    1.292   .     A
C565   C464    1.351   1_655 S
C565   O482    1.389   1_655 S
C566   C868    1.378   1_545 S
C567   C702    1.378   .     S
C568   H569    1.086   .     S
C568   C716    1.378   .     S
H570   O590    0.979   .     S
H573   O482    0.991   1_655 S
H575   O486    1.014   1_655 S
H576   O587    0.989   .     S
H577   O588    0.989   .     S
H578   O589    0.979   .     S
N579   Zn599   2.024   .     S
N580   Zn600   2.024   .     S
O581   Zn599   1.973   .     S
O584   H474    1.014   1_655 S
O591   Zn600   1.973   .     S
O592   Zn600   1.992   .     S
O593   Zn599   1.992   .     S
O594   Zn599   1.984   .     S
O595   Zn600   1.984   .     S
O596   Zn600   1.995   .     S
O597   Zn599   1.995   .     S
O598   H472    0.991   1_655 S
O598   C464    1.389   1_655 S
C601   C604    1.407   .     S
C601   O642    1.283   .     A
C601   O631    1.287   .     A
C602   C604    1.395   .     A
C602   H621    1.086   .     S
C603   C617    1.404   .     A
C603   C611    1.407   .     S
C603   C618    1.394   .     A
C604   C616    1.405   .     A
C605   O637    1.381   .     S
C605   N630    1.360   .     A
C606   O638    1.381   .     S
C606   N629    1.360   .     A
C606   C1058   1.431   .     S
C607   N629    1.386   .     A
C607   O639    1.376   .     S
C607   C1055   1.431   .     S
C608   N630    1.386   .     A
C608   O640    1.376   .     S
C609   O633    1.222   .     D
C609   C616    1.483   .     S
C609   O634    1.396   .     S
C610   O635    1.222   .     D
C610   C617    1.482   .     S
C610   O636    1.396   .     S
C611   O643    1.283   .     A
C611   O641    1.286   .     A
C612   O646    1.292   .     A
C612   O644    1.279   .     A
C612   C614    1.417   .     S
C613   C615    1.417   .     S
C613   O645    1.279   .     A
C613   O647    1.292   .     A
C614   C715    1.351   1_455 S
C614   O748    1.389   1_455 S
C615   C664    1.351   .     S
C615   O682    1.389   .     S
C617   C752    1.378   .     S
C618   H619    1.086   .     S
C618   C766    1.378   .     S
H620   O640    0.979   .     S
H622   O748    0.991   1_455 S
H623   O682    0.991   .     S
H624   O734    1.014   1_455 S
H625   O686    1.014   .     S
H626   O637    0.989   .     S
H627   O638    0.989   .     S
H628   O639    0.979   .     S
N629   Zn649   2.024   .     S
N630   Zn650   2.024   .     S
O631   Zn649   1.973   .     S
O632   H723    0.991   1_455 S
O632   C715    1.389   1_455 S
O634   H674    1.014   .     S
O636   H725    1.014   1_455 S
O641   Zn650   1.973   .     S
O642   Zn650   1.992   .     S
O643   Zn649   1.992   .     S
O644   Zn649   1.984   .     S
O645   Zn650   1.984   .     S
O646   Zn650   1.995   .     S
O647   Zn649   1.995   .     S
O648   H672    0.991   .     S
O648   C664    1.389   .     S
C651   C654    1.407   .     S
C651   O692    1.283   .     A
C651   O681    1.287   .     A
C652   C654    1.395   .     A
C652   H671    1.086   .     S
C653   C667    1.404   .     A
C653   C661    1.407   .     S
C653   C668    1.394   .     A
C654   C666    1.405   .     A
C655   O687    1.381   .     S
C655   N680    1.360   .     A
C656   O688    1.381   .     S
C656   N679    1.360   .     A
C656   C1108   1.431   .     S
C657   N679    1.386   .     A
C657   O689    1.376   .     S
C657   C1105   1.431   .     S
C658   N680    1.386   .     A
C658   O690    1.376   .     S
C659   O683    1.222   .     D
C659   C666    1.483   .     S
C659   O684    1.396   .     S
C660   O685    1.222   .     D
C660   C667    1.482   .     S
C660   O686    1.396   .     S
C661   O693    1.283   .     A
C661   O691    1.286   .     A
C662   O696    1.292   .     A
C662   O694    1.279   .     A
C662   C664    1.417   .     S
C663   C665    1.417   .     S
C663   O695    1.279   .     A
C663   O697    1.292   .     A
C665   C714    1.351   .     S
C665   O732    1.389   .     S
C667   C802    1.378   .     S
C668   H669    1.086   .     S
C668   C816    1.378   .     S
H670   O690    0.979   .     S
H673   O732    0.991   .     S
H675   O736    1.014   .     S
H676   O687    0.989   .     S
H677   O688    0.989   .     S
H678   O689    0.979   .     S
N679   Zn699   2.024   .     S
N680   Zn700   2.024   .     S
O681   Zn699   1.973   .     S
O684   H724    1.014   .     S
O691   Zn700   1.973   .     S
O692   Zn700   1.992   .     S
O693   Zn699   1.992   .     S
O694   Zn699   1.984   .     S
O695   Zn700   1.984   .     S
O696   Zn700   1.995   .     S
O697   Zn699   1.995   .     S
O698   H722    0.991   .     S
O698   C714    1.389   .     S
C701   C704    1.407   .     S
C701   O742    1.283   .     A
C701   O731    1.287   .     A
C702   C704    1.395   .     A
C702   H721    1.086   .     S
C703   C717    1.404   .     A
C703   C711    1.407   .     S
C703   C718    1.394   .     A
C704   C716    1.405   .     A
C705   O737    1.381   .     S
C705   N730    1.360   .     A
C706   O738    1.381   .     S
C706   N729    1.360   .     A
C706   C1158   1.431   .     S
C707   N729    1.386   .     A
C707   O739    1.376   .     S
C707   C1155   1.431   .     S
C708   N730    1.386   .     A
C708   O740    1.376   .     S
C709   O733    1.222   .     D
C709   C716    1.483   .     S
C709   O734    1.396   .     S
C710   O735    1.222   .     D
C710   C717    1.482   .     S
C710   O736    1.396   .     S
C711   O743    1.283   .     A
C711   O741    1.286   .     A
C712   O746    1.292   .     A
C712   O744    1.279   .     A
C712   C714    1.417   .     S
C713   C715    1.417   .     S
C713   O745    1.279   .     A
C713   O747    1.292   .     A
C715   C614    1.351   1_655 S
C715   O632    1.389   1_655 S
C717   C852    1.378   .     S
C718   H719    1.086   .     S
C718   C866    1.378   .     S
H720   O740    0.979   .     S
H723   O632    0.991   1_655 S
H725   O636    1.014   1_655 S
H726   O737    0.989   .     S
H727   O738    0.989   .     S
H728   O739    0.979   .     S
N729   Zn749   2.024   .     S
N730   Zn750   2.024   .     S
O731   Zn749   1.973   .     S
O734   H624    1.014   1_655 S
O741   Zn750   1.973   .     S
O742   Zn750   1.992   .     S
O743   Zn749   1.992   .     S
O744   Zn749   1.984   .     S
O745   Zn750   1.984   .     S
O746   Zn750   1.995   .     S
O747   Zn749   1.995   .     S
O748   H622    0.991   1_655 S
O748   C614    1.389   1_655 S
C751   C754    1.407   .     S
C751   O792    1.283   .     A
C751   O781    1.287   .     A
C752   C754    1.395   .     A
C752   H771    1.086   .     S
C753   C767    1.404   .     A
C753   C761    1.407   .     S
C753   C768    1.394   .     A
C754   C766    1.405   .     A
C755   O787    1.381   .     S
C755   N780    1.360   .     A
C756   O788    1.381   .     S
C756   N779    1.360   .     A
C756   C1208   1.431   .     S
C757   N779    1.386   .     A
C757   O789    1.376   .     S
C757   C1205   1.431   .     S
C758   N780    1.386   .     A
C758   O790    1.376   .     S
C759   O783    1.222   .     D
C759   C766    1.483   .     S
C759   O784    1.396   .     S
C760   O785    1.222   .     D
C760   C767    1.482   .     S
C760   O786    1.396   .     S
C761   O793    1.283   .     A
C761   O791    1.286   .     A
C762   O796    1.292   .     A
C762   O794    1.279   .     A
C762   C764    1.417   .     S
C763   C765    1.417   .     S
C763   O795    1.279   .     A
C763   O797    1.292   .     A
C764   C865    1.351   1_455 S
C764   O898    1.389   1_455 S
C765   C814    1.351   .     S
C765   O832    1.389   .     S
C767   C452    1.378   1_565 S
C768   H769    1.086   .     S
C768   C466    1.378   1_565 S
H770   O790    0.979   .     S
H772   O898    0.991   1_455 S
H773   O832    0.991   .     S
H774   O884    1.014   1_455 S
H775   O836    1.014   .     S
H776   O787    0.989   .     S
H777   O788    0.989   .     S
H778   O789    0.979   .     S
N779   Zn799   2.024   .     S
N780   Zn800   2.024   .     S
O781   Zn799   1.973   .     S
O782   H873    0.991   1_455 S
O782   C865    1.389   1_455 S
O784   H824    1.014   .     S
O786   H875    1.014   1_455 S
O791   Zn800   1.973   .     S
O792   Zn800   1.992   .     S
O793   Zn799   1.992   .     S
O794   Zn799   1.984   .     S
O795   Zn800   1.984   .     S
O796   Zn800   1.995   .     S
O797   Zn799   1.995   .     S
O798   H822    0.991   .     S
O798   C814    1.389   .     S
C801   C804    1.407   .     S
C801   O842    1.283   .     A
C801   O831    1.287   .     A
C802   C804    1.395   .     A
C802   H821    1.086   .     S
C803   C817    1.404   .     A
C803   C811    1.407   .     S
C803   C818    1.394   .     A
C804   C816    1.405   .     A
C805   O837    1.381   .     S
C805   N830    1.360   .     A
C806   O838    1.381   .     S
C806   N829    1.360   .     A
C806   C1258   1.431   .     S
C807   N829    1.386   .     A
C807   O839    1.376   .     S
C807   C1255   1.431   .     S
C808   N830    1.386   .     A
C808   O840    1.376   .     S
C809   O833    1.222   .     D
C809   C816    1.483   .     S
C809   O834    1.396   .     S
C810   O835    1.222   .     D
C810   C817    1.482   .     S
C810   O836    1.396   .     S
C811   O843    1.283   .     A
C811   O841    1.286   .     A
C812   O846    1.292   .     A
C812   O844    1.279   .     A
C812   C814    1.417   .     S
C813   C815    1.417   .     S
C813   O845    1.279   .     A
C813   O847    1.292   .     A
C815   C864    1.351   .     S
C815   O882    1.389   .     S
C817   C502    1.378   1_565 S
C818   H819    1.086   .     S
C818   C516    1.378   1_565 S
H820   O840    0.979   .     S
H823   O882    0.991   .     S
H825   O886    1.014   .     S
H826   O837    0.989   .     S
H827   O838    0.989   .     S
H828   O839    0.979   .     S
N829   Zn849   2.024   .     S
N830   Zn850   2.024   .     S
O831   Zn849   1.973   .     S
O834   H874    1.014   .     S
O841   Zn850   1.973   .     S
O842   Zn850   1.992   .     S
O843   Zn849   1.992   .     S
O844   Zn849   1.984   .     S
O845   Zn850   1.984   .     S
O846   Zn850   1.995   .     S
O847   Zn849   1.995   .     S
O848   H872    0.991   .     S
O848   C864    1.389   .     S
C851   C854    1.407   .     S
C851   O892    1.283   .     A
C851   O881    1.287   .     A
C852   C854    1.395   .     A
C852   H871    1.086   .     S
C853   C867    1.404   .     A
C853   C861    1.407   .     S
C853   C868    1.394   .     A
C854   C866    1.405   .     A
C855   O887    1.381   .     S
C855   N880    1.360   .     A
C856   O888    1.381   .     S
C856   N879    1.360   .     A
C856   C1308   1.431   .     S
C857   N879    1.386   .     A
C857   O889    1.376   .     S
C857   C1305   1.431   .     S
C858   N880    1.386   .     A
C858   O890    1.376   .     S
C859   O883    1.222   .     D
C859   C866    1.483   .     S
C859   O884    1.396   .     S
C860   O885    1.222   .     D
C860   C867    1.482   .     S
C860   O886    1.396   .     S
C861   O893    1.283   .     A
C861   O891    1.286   .     A
C862   O896    1.292   .     A
C862   O894    1.279   .     A
C862   C864    1.417   .     S
C863   C865    1.417   .     S
C863   O895    1.279   .     A
C863   O897    1.292   .     A
C865   C764    1.351   1_655 S
C865   O782    1.389   1_655 S
C867   C552    1.378   1_565 S
C868   H869    1.086   .     S
C868   C566    1.378   1_565 S
H870   O890    0.979   .     S
H873   O782    0.991   1_655 S
H875   O786    1.014   1_655 S
H876   O887    0.989   .     S
H877   O888    0.989   .     S
H878   O889    0.979   .     S
N879   Zn899   2.024   .     S
N880   Zn900   2.024   .     S
O881   Zn899   1.973   .     S
O884   H774    1.014   1_655 S
O891   Zn900   1.973   .     S
O892   Zn900   1.992   .     S
O893   Zn899   1.992   .     S
O894   Zn899   1.984   .     S
O895   Zn900   1.984   .     S
O896   Zn900   1.995   .     S
O897   Zn899   1.995   .     S
O898   H772    0.991   1_655 S
O898   C764    1.389   1_655 S
C901   C904    1.407   .     S
C901   O942    1.283   .     A
C901   O931    1.287   .     A
C902   C904    1.395   .     A
C902   H921    1.086   .     S
C902   C1217   1.378   1_545 S
C903   C917    1.404   .     A
C903   C911    1.407   .     S
C903   C918    1.394   .     A
C904   C916    1.405   .     A
C905   O937    1.381   .     S
C905   N930    1.360   .     A
C906   O938    1.381   .     S
C906   N929    1.360   .     A
C906   C8      1.431   1_556 S
C907   N929    1.386   .     A
C907   O939    1.376   .     S
C907   C5      1.431   1_556 S
C908   N930    1.386   .     A
C908   O940    1.376   .     S
C909   O933    1.222   .     D
C909   C916    1.483   .     S
C909   O934    1.396   .     S
C910   O935    1.222   .     D
C910   C917    1.482   .     S
C910   O936    1.396   .     S
C911   O943    1.283   .     A
C911   O941    1.286   .     A
C912   O946    1.292   .     A
C912   O944    1.279   .     A
C912   C914    1.417   .     S
C913   C915    1.417   .     S
C913   O945    1.279   .     A
C913   O947    1.292   .     A
C914   C1015   1.351   1_455 S
C914   O1048   1.389   1_455 S
C915   C964    1.351   .     S
C915   O982    1.389   .     S
C916   C1218   1.378   1_545 S
C917   C1052   1.378   .     S
C918   H919    1.086   .     S
C918   C1066   1.378   .     S
H920   O940    0.979   .     S
H922   O1048   0.991   1_455 S
H923   O982    0.991   .     S
H924   O1034   1.014   1_455 S
H925   O986    1.014   .     S
H926   O937    0.989   .     S
H927   O938    0.989   .     S
H928   O939    0.979   .     S
N929   Zn949   2.024   .     S
N930   Zn950   2.024   .     S
O931   Zn949   1.973   .     S
O932   H1023   0.991   1_455 S
O932   C1015   1.389   1_455 S
O934   H974    1.014   .     S
O936   H1025   1.014   1_455 S
O941   Zn950   1.973   .     S
O942   Zn950   1.992   .     S
O943   Zn949   1.992   .     S
O944   Zn949   1.984   .     S
O945   Zn950   1.984   .     S
O946   Zn950   1.995   .     S
O947   Zn949   1.995   .     S
O948   H972    0.991   .     S
O948   C964    1.389   .     S
C951   C954    1.407   .     S
C951   O992    1.283   .     A
C951   O981    1.287   .     A
C952   C954    1.395   .     A
C952   H971    1.086   .     S
C952   C1267   1.378   1_545 S
C953   C967    1.404   .     A
C953   C961    1.407   .     S
C953   C968    1.394   .     A
C954   C966    1.405   .     A
C955   O987    1.381   .     S
C955   N980    1.360   .     A
C956   O988    1.381   .     S
C956   N979    1.360   .     A
C956   C58     1.431   1_556 S
C957   N979    1.386   .     A
C957   O989    1.376   .     S
C957   C55     1.431   1_556 S
C958   N980    1.386   .     A
C958   O990    1.376   .     S
C959   O983    1.222   .     D
C959   C966    1.483   .     S
C959   O984    1.396   .     S
C960   O985    1.222   .     D
C960   C967    1.482   .     S
C960   O986    1.396   .     S
C961   O993    1.283   .     A
C961   O991    1.286   .     A
C962   O996    1.292   .     A
C962   O994    1.279   .     A
C962   C964    1.417   .     S
C963   C965    1.417   .     S
C963   O995    1.279   .     A
C963   O997    1.292   .     A
C965   C1014   1.351   .     S
C965   O1032   1.389   .     S
C966   C1268   1.378   1_545 S
C967   C1102   1.378   .     S
C968   H969    1.086   .     S
C968   C1116   1.378   .     S
H970   O990    0.979   .     S
H973   O1032   0.991   .     S
H975   O1036   1.014   .     S
H976   O987    0.989   .     S
H977   O988    0.989   .     S
H978   O989    0.979   .     S
N979   Zn999   2.024   .     S
N980   Zn1000  2.024   .     S
O981   Zn999   1.973   .     S
O984   H1024   1.014   .     S
O991   Zn1000  1.973   .     S
O992   Zn1000  1.992   .     S
O993   Zn999   1.992   .     S
O994   Zn999   1.984   .     S
O995   Zn1000  1.984   .     S
O996   Zn1000  1.995   .     S
O997   Zn999   1.995   .     S
O998   H1022   0.991   .     S
O998   C1014   1.389   .     S
C1001  C1004   1.407   .     S
C1001  O1042   1.283   .     A
C1001  O1031   1.287   .     A
C1002  C1004   1.395   .     A
C1002  H1021   1.086   .     S
C1002  C1317   1.378   1_545 S
C1003  C1017   1.404   .     A
C1003  C1011   1.407   .     S
C1003  C1018   1.394   .     A
C1004  C1016   1.405   .     A
C1005  O1037   1.381   .     S
C1005  N1030   1.360   .     A
C1006  O1038   1.381   .     S
C1006  N1029   1.360   .     A
C1006  C108    1.431   1_556 S
C1007  N1029   1.386   .     A
C1007  O1039   1.376   .     S
C1007  C105    1.431   1_556 S
C1008  N1030   1.386   .     A
C1008  O1040   1.376   .     S
C1009  O1033   1.222   .     D
C1009  C1016   1.483   .     S
C1009  O1034   1.396   .     S
C1010  O1035   1.222   .     D
C1010  C1017   1.482   .     S
C1010  O1036   1.396   .     S
C1011  O1043   1.283   .     A
C1011  O1041   1.286   .     A
C1012  O1046   1.292   .     A
C1012  O1044   1.279   .     A
C1012  C1014   1.417   .     S
C1013  C1015   1.417   .     S
C1013  O1045   1.279   .     A
C1013  O1047   1.292   .     A
C1015  C914    1.351   1_655 S
C1015  O932    1.389   1_655 S
C1016  C1318   1.378   1_545 S
C1017  C1152   1.378   .     S
C1018  H1019   1.086   .     S
C1018  C1166   1.378   .     S
H1020  O1040   0.979   .     S
H1023  O932    0.991   1_655 S
H1025  O936    1.014   1_655 S
H1026  O1037   0.989   .     S
H1027  O1038   0.989   .     S
H1028  O1039   0.979   .     S
N1029  Zn1049  2.024   .     S
N1030  Zn1050  2.024   .     S
O1031  Zn1049  1.973   .     S
O1034  H924    1.014   1_655 S
O1041  Zn1050  1.973   .     S
O1042  Zn1050  1.992   .     S
O1043  Zn1049  1.992   .     S
O1044  Zn1049  1.984   .     S
O1045  Zn1050  1.984   .     S
O1046  Zn1050  1.995   .     S
O1047  Zn1049  1.995   .     S
O1048  H922    0.991   1_655 S
O1048  C914    1.389   1_655 S
C1051  C1054   1.407   .     S
C1051  O1092   1.283   .     A
C1051  O1081   1.287   .     A
C1052  C1054   1.395   .     A
C1052  H1071   1.086   .     S
C1053  C1067   1.404   .     A
C1053  C1061   1.407   .     S
C1053  C1068   1.394   .     A
C1054  C1066   1.405   .     A
C1055  O1087   1.381   .     S
C1055  N1080   1.360   .     A
C1056  O1088   1.381   .     S
C1056  N1079   1.360   .     A
C1056  C158    1.431   1_556 S
C1057  N1079   1.386   .     A
C1057  O1089   1.376   .     S
C1057  C155    1.431   1_556 S
C1058  N1080   1.386   .     A
C1058  O1090   1.376   .     S
C1059  O1083   1.222   .     D
C1059  C1066   1.483   .     S
C1059  O1084   1.396   .     S
C1060  O1085   1.222   .     D
C1060  C1067   1.482   .     S
C1060  O1086   1.396   .     S
C1061  O1093   1.283   .     A
C1061  O1091   1.286   .     A
C1062  O1096   1.292   .     A
C1062  O1094   1.279   .     A
C1062  C1064   1.417   .     S
C1063  C1065   1.417   .     S
C1063  O1095   1.279   .     A
C1063  O1097   1.292   .     A
C1064  C1165   1.351   1_455 S
C1064  O1198   1.389   1_455 S
C1065  C1114   1.351   .     S
C1065  O1132   1.389   .     S
C1067  C1202   1.378   .     S
C1068  H1069   1.086   .     S
C1068  C1216   1.378   .     S
H1070  O1090   0.979   .     S
H1072  O1198   0.991   1_455 S
H1073  O1132   0.991   .     S
H1074  O1184   1.014   1_455 S
H1075  O1136   1.014   .     S
H1076  O1087   0.989   .     S
H1077  O1088   0.989   .     S
H1078  O1089   0.979   .     S
N1079  Zn1099  2.024   .     S
N1080  Zn1100  2.024   .     S
O1081  Zn1099  1.973   .     S
O1082  H1173   0.991   1_455 S
O1082  C1165   1.389   1_455 S
O1084  H1124   1.014   .     S
O1086  H1175   1.014   1_455 S
O1091  Zn1100  1.973   .     S
O1092  Zn1100  1.992   .     S
O1093  Zn1099  1.992   .     S
O1094  Zn1099  1.984   .     S
O1095  Zn1100  1.984   .     S
O1096  Zn1100  1.995   .     S
O1097  Zn1099  1.995   .     S
O1098  H1122   0.991   .     S
O1098  C1114   1.389   .     S
C1101  C1104   1.407   .     S
C1101  O1142   1.283   .     A
C1101  O1131   1.287   .     A
C1102  C1104   1.395   .     A
C1102  H1121   1.086   .     S
C1103  C1117   1.404   .     A
C1103  C1111   1.407   .     S
C1103  C1118   1.394   .     A
C1104  C1116   1.405   .     A
C1105  O1137   1.381   .     S
C1105  N1130   1.360   .     A
C1106  O1138   1.381   .     S
C1106  N1129   1.360   .     A
C1106  C208    1.431   1_556 S
C1107  N1129   1.386   .     A
C1107  O1139   1.376   .     S
C1107  C205    1.431   1_556 S
C1108  N1130   1.386   .     A
C1108  O1140   1.376   .     S
C1109  O1133   1.222   .     D
C1109  C1116   1.483   .     S
C1109  O1134   1.396   .     S
C1110  O1135   1.222   .     D
C1110  C1117   1.482   .     S
C1110  O1136   1.396   .     S
C1111  O1143   1.283   .     A
C1111  O1141   1.286   .     A
C1112  O1146   1.292   .     A
C1112  O1144   1.279   .     A
C1112  C1114   1.417   .     S
C1113  C1115   1.417   .     S
C1113  O1145   1.279   .     A
C1113  O1147   1.292   .     A
C1115  C1164   1.351   .     S
C1115  O1182   1.389   .     S
C1117  C1252   1.378   .     S
C1118  H1119   1.086   .     S
C1118  C1266   1.378   .     S
H1120  O1140   0.979   .     S
H1123  O1182   0.991   .     S
H1125  O1186   1.014   .     S
H1126  O1137   0.989   .     S
H1127  O1138   0.989   .     S
H1128  O1139   0.979   .     S
N1129  Zn1149  2.024   .     S
N1130  Zn1150  2.024   .     S
O1131  Zn1149  1.973   .     S
O1134  H1174   1.014   .     S
O1141  Zn1150  1.973   .     S
O1142  Zn1150  1.992   .     S
O1143  Zn1149  1.992   .     S
O1144  Zn1149  1.984   .     S
O1145  Zn1150  1.984   .     S
O1146  Zn1150  1.995   .     S
O1147  Zn1149  1.995   .     S
O1148  H1172   0.991   .     S
O1148  C1164   1.389   .     S
C1151  C1154   1.407   .     S
C1151  O1192   1.283   .     A
C1151  O1181   1.287   .     A
C1152  C1154   1.395   .     A
C1152  H1171   1.086   .     S
C1153  C1167   1.404   .     A
C1153  C1161   1.407   .     S
C1153  C1168   1.394   .     A
C1154  C1166   1.405   .     A
C1155  O1187   1.381   .     S
C1155  N1180   1.360   .     A
C1156  O1188   1.381   .     S
C1156  N1179   1.360   .     A
C1156  C258    1.431   1_556 S
C1157  N1179   1.386   .     A
C1157  O1189   1.376   .     S
C1157  C255    1.431   1_556 S
C1158  N1180   1.386   .     A
C1158  O1190   1.376   .     S
C1159  O1183   1.222   .     D
C1159  C1166   1.483   .     S
C1159  O1184   1.396   .     S
C1160  O1185   1.222   .     D
C1160  C1167   1.482   .     S
C1160  O1186   1.396   .     S
C1161  O1193   1.283   .     A
C1161  O1191   1.286   .     A
C1162  O1196   1.292   .     A
C1162  O1194   1.279   .     A
C1162  C1164   1.417   .     S
C1163  C1165   1.417   .     S
C1163  O1195   1.279   .     A
C1163  O1197   1.292   .     A
C1165  C1064   1.351   1_655 S
C1165  O1082   1.389   1_655 S
C1167  C1302   1.378   .     S
C1168  H1169   1.086   .     S
C1168  C1316   1.378   .     S
H1170  O1190   0.979   .     S
H1173  O1082   0.991   1_655 S
H1175  O1086   1.014   1_655 S
H1176  O1187   0.989   .     S
H1177  O1188   0.989   .     S
H1178  O1189   0.979   .     S
N1179  Zn1199  2.024   .     S
N1180  Zn1200  2.024   .     S
O1181  Zn1199  1.973   .     S
O1184  H1074   1.014   1_655 S
O1191  Zn1200  1.973   .     S
O1192  Zn1200  1.992   .     S
O1193  Zn1199  1.992   .     S
O1194  Zn1199  1.984   .     S
O1195  Zn1200  1.984   .     S
O1196  Zn1200  1.995   .     S
O1197  Zn1199  1.995   .     S
O1198  H1072   0.991   1_655 S
O1198  C1064   1.389   1_655 S
C1201  C1204   1.407   .     S
C1201  O1242   1.283   .     A
C1201  O1231   1.287   .     A
C1202  C1204   1.395   .     A
C1202  H1221   1.086   .     S
C1203  C1217   1.404   .     A
C1203  C1211   1.407   .     S
C1203  C1218   1.394   .     A
C1204  C1216   1.405   .     A
C1205  O1237   1.381   .     S
C1205  N1230   1.360   .     A
C1206  O1238   1.381   .     S
C1206  N1229   1.360   .     A
C1206  C308    1.431   1_556 S
C1207  N1229   1.386   .     A
C1207  O1239   1.376   .     S
C1207  C305    1.431   1_556 S
C1208  N1230   1.386   .     A
C1208  O1240   1.376   .     S
C1209  O1233   1.222   .     D
C1209  C1216   1.483   .     S
C1209  O1234   1.396   .     S
C1210  O1235   1.222   .     D
C1210  C1217   1.482   .     S
C1210  O1236   1.396   .     S
C1211  O1243   1.283   .     A
C1211  O1241   1.286   .     A
C1212  O1246   1.292   .     A
C1212  O1244   1.279   .     A
C1212  C1214   1.417   .     S
C1213  C1215   1.417   .     S
C1213  O1245   1.279   .     A
C1213  O1247   1.292   .     A
C1214  C1315   1.351   1_455 S
C1214  O1348   1.389   1_455 S
C1215  C1264   1.351   .     S
C1215  O1282   1.389   .     S
C1217  C902    1.378   1_565 S
C1218  H1219   1.086   .     S
C1218  C916    1.378   1_565 S
H1220  O1240   0.979   .     S
H1222  O1348   0.991   1_455 S
H1223  O1282   0.991   .     S
H1224  O1334   1.014   1_455 S
H1225  O1286   1.014   .     S
H1226  O1237   0.989   .     S
H1227  O1238   0.989   .     S
H1228  O1239   0.979   .     S
N1229  Zn1249  2.024   .     S
N1230  Zn1250  2.024   .     S
O1231  Zn1249  1.973   .     S
O1232  H1323   0.991   1_455 S
O1232  C1315   1.389   1_455 S
O1234  H1274   1.014   .     S
O1236  H1325   1.014   1_455 S
O1241  Zn1250  1.973   .     S
O1242  Zn1250  1.992   .     S
O1243  Zn1249  1.992   .     S
O1244  Zn1249  1.984   .     S
O1245  Zn1250  1.984   .     S
O1246  Zn1250  1.995   .     S
O1247  Zn1249  1.995   .     S
O1248  H1272   0.991   .     S
O1248  C1264   1.389   .     S
C1251  C1254   1.407   .     S
C1251  O1292   1.283   .     A
C1251  O1281   1.287   .     A
C1252  C1254   1.395   .     A
C1252  H1271   1.086   .     S
C1253  C1267   1.404   .     A
C1253  C1261   1.407   .     S
C1253  C1268   1.394   .     A
C1254  C1266   1.405   .     A
C1255  O1287   1.381   .     S
C1255  N1280   1.360   .     A
C1256  O1288   1.381   .     S
C1256  N1279   1.360   .     A
C1256  C358    1.431   1_556 S
C1257  N1279   1.386   .     A
C1257  O1289   1.376   .     S
C1257  C355    1.431   1_556 S
C1258  N1280   1.386   .     A
C1258  O1290   1.376   .     S
C1259  O1283   1.222   .     D
C1259  C1266   1.483   .     S
C1259  O1284   1.396   .     S
C1260  O1285   1.222   .     D
C1260  C1267   1.482   .     S
C1260  O1286   1.396   .     S
C1261  O1293   1.283   .     A
C1261  O1291   1.286   .     A
C1262  O1296   1.292   .     A
C1262  O1294   1.279   .     A
C1262  C1264   1.417   .     S
C1263  C1265   1.417   .     S
C1263  O1295   1.279   .     A
C1263  O1297   1.292   .     A
C1265  C1314   1.351   .     S
C1265  O1332   1.389   .     S
C1267  C952    1.378   1_565 S
C1268  H1269   1.086   .     S
C1268  C966    1.378   1_565 S
H1270  O1290   0.979   .     S
H1273  O1332   0.991   .     S
H1275  O1336   1.014   .     S
H1276  O1287   0.989   .     S
H1277  O1288   0.989   .     S
H1278  O1289   0.979   .     S
N1279  Zn1299  2.024   .     S
N1280  Zn1300  2.024   .     S
O1281  Zn1299  1.973   .     S
O1284  H1324   1.014   .     S
O1291  Zn1300  1.973   .     S
O1292  Zn1300  1.992   .     S
O1293  Zn1299  1.992   .     S
O1294  Zn1299  1.984   .     S
O1295  Zn1300  1.984   .     S
O1296  Zn1300  1.995   .     S
O1297  Zn1299  1.995   .     S
O1298  H1322   0.991   .     S
O1298  C1314   1.389   .     S
C1301  C1304   1.407   .     S
C1301  O1342   1.283   .     A
C1301  O1331   1.287   .     A
C1302  C1304   1.395   .     A
C1302  H1321   1.086   .     S
C1303  C1317   1.404   .     A
C1303  C1311   1.407   .     S
C1303  C1318   1.394   .     A
C1304  C1316   1.405   .     A
C1305  O1337   1.381   .     S
C1305  N1330   1.360   .     A
C1306  O1338   1.381   .     S
C1306  N1329   1.360   .     A
C1306  C408    1.431   1_556 S
C1307  N1329   1.386   .     A
C1307  O1339   1.376   .     S
C1307  C405    1.431   1_556 S
C1308  N1330   1.386   .     A
C1308  O1340   1.376   .     S
C1309  O1333   1.222   .     D
C1309  C1316   1.483   .     S
C1309  O1334   1.396   .     S
C1310  O1335   1.222   .     D
C1310  C1317   1.482   .     S
C1310  O1336   1.396   .     S
C1311  O1343   1.283   .     A
C1311  O1341   1.286   .     A
C1312  O1346   1.292   .     A
C1312  O1344   1.279   .     A
C1312  C1314   1.417   .     S
C1313  C1315   1.417   .     S
C1313  O1345   1.279   .     A
C1313  O1347   1.292   .     A
C1315  C1214   1.351   1_655 S
C1315  O1232   1.389   1_655 S
C1317  C1002   1.378   1_565 S
C1318  H1319   1.086   .     S
C1318  C1016   1.378   1_565 S
H1320  O1340   0.979   .     S
H1323  O1232   0.991   1_655 S
H1325  O1236   1.014   1_655 S
H1326  O1337   0.989   .     S
H1327  O1338   0.989   .     S
H1328  O1339   0.979   .     S
N1329  Zn1349  2.024   .     S
N1330  Zn1350  2.024   .     S
O1331  Zn1349  1.973   .     S
O1334  H1224   1.014   1_655 S
O1341  Zn1350  1.973   .     S
O1342  Zn1350  1.992   .     S
O1343  Zn1349  1.992   .     S
O1344  Zn1349  1.984   .     S
O1345  Zn1350  1.984   .     S
O1346  Zn1350  1.995   .     S
O1347  Zn1349  1.995   .     S
O1348  H1222   0.991   1_655 S
O1348  C1214   1.389   1_655 S
