data_str_m3_o2_o10_pcu_sym.21
_audit_creation_date              2020-01-03
_audit_creation_method            'Materials Studio'
_symmetry_space_group_name_H-M    'P1'
_symmetry_Int_Tables_number       1
_symmetry_cell_setting            triclinic
loop_
_symmetry_equiv_pos_as_xyz
  x,y,z
_cell_length_a                    25.7675
_cell_length_b                    29.8658
_cell_length_c                    28.6210
_cell_angle_alpha                 89.7235
_cell_angle_beta                  97.9914
_cell_angle_gamma                 91.9887
loop_
_atom_site_label
_atom_site_type_symbol
_atom_site_fract_x
_atom_site_fract_y
_atom_site_fract_z
_atom_site_U_iso_or_equiv
_atom_site_adp_type
_atom_site_occupancy
C1     C     0.16658   0.16424   0.25013   0.00000  Uiso   1.00
C2     C     0.12025   0.23915   0.44141   0.00000  Uiso   1.00
C3     C     0.16451   0.25211   0.02596   0.00000  Uiso   1.00
C4     C     0.16487   0.25267   0.47282   0.00000  Uiso   1.00
C5     C     0.06730   0.24976   0.23787   0.00000  Uiso   1.00
C6     C     0.26604   0.25068   0.26212   0.00000  Uiso   1.00
C7     C     0.01261   0.24577   0.23180   0.00000  Uiso   1.00
C8     C     0.32072   0.25537   0.26806   0.00000  Uiso   1.00
C9     C     0.11720   0.04749   0.23352   0.00000  Uiso   1.00
C10    C     0.19348   0.45516   0.22539   0.00000  Uiso   1.00
C11    C     0.11936   0.09363   0.23291   0.00000  Uiso   1.00
C12    C     0.16557   0.33590   0.24983   0.00000  Uiso   1.00
C13    C     0.19543   0.40924   0.22509   0.00000  Uiso   1.00
C14    C     0.16593   0.11653   0.25058   0.00000  Uiso   1.00
C15    C     0.16172   0.38371   0.24956   0.00000  Uiso   1.00
C16    C     0.21082   0.09411   0.27013   0.00000  Uiso   1.00
C17    C     0.12433   0.40380   0.27351   0.00000  Uiso   1.00
C18    C     0.20824   0.04721   0.27251   0.00000  Uiso   1.00
C19    C     0.12319   0.45074   0.27503   0.00000  Uiso   1.00
C20    C     0.16120   0.02434   0.25336   0.00000  Uiso   1.00
C21    C     0.15896   0.47594   0.25141   0.00000  Uiso   1.00
C22    C     0.29017   0.13094   0.25136   0.00000  Uiso   1.00
C23    C     0.14086   0.21655   0.04851   0.00000  Uiso   1.00
C24    C     0.09600   0.37077   0.34452   0.00000  Uiso   1.00
C25    C     0.25335   0.00692   0.33905   0.00000  Uiso   1.00
C26    C     0.10563   0.49135   0.34440   0.00000  Uiso   1.00
C27    C     0.13499   0.13737   0.11787   0.00000  Uiso   1.00
C28    C     0.25799   0.33251   0.38303   0.00000  Uiso   1.00
C29    C     0.28438   0.31450   0.12006   0.00000  Uiso   1.00
C30    C     0.03903   0.18715   0.37984   0.00000  Uiso   1.00
C31    C     0.21018   0.26537   0.45297   0.00000  Uiso   1.00
C32    C     0.14057   0.21651   0.09803   0.00000  Uiso   1.00
C33    C     0.20926   0.26677   0.40345   0.00000  Uiso   1.00
C34    C     0.19487   0.28270   0.10485   0.00000  Uiso   1.00
C35    C     0.12323   0.23351   0.39236   0.00000  Uiso   1.00
C36    C     0.18927   0.28639   0.05497   0.00000  Uiso   1.00
F37    F     0.32174   0.22859   0.18997   0.00000  Uiso   1.00
F38    F     0.07422   0.23265   0.45881   0.00000  Uiso   1.00
F39    F     0.01154   0.27275   0.30980   0.00000  Uiso   1.00
F40    F     0.07263   0.02526   0.21392   0.00000  Uiso   1.00
F41    F     0.22582   0.47968   0.20067   0.00000  Uiso   1.00
F42    F     0.07607   0.11618   0.21520   0.00000  Uiso   1.00
F43    F     0.23132   0.38970   0.20200   0.00000  Uiso   1.00
F44    F     0.11740   0.18166   0.02251   0.00000  Uiso   1.00
F45    F     0.25563   0.27627   0.48125   0.00000  Uiso   1.00
F46    F     0.20717   0.32414   0.03496   0.00000  Uiso   1.00
H47    H     0.27885   0.10616   0.31733   0.00000  Uiso   1.00
H48    H     0.28989   0.48877   0.35034   0.00000  Uiso   1.00
H49    H     0.21967   0.48323   0.34123   0.00000  Uiso   1.00
H50    H     0.25166   0.03556   0.36337   0.00000  Uiso   1.00
H51    H     0.05032   0.45530   0.29849   0.00000  Uiso   1.00
H52    H     0.07302   0.00614   0.36004   0.00000  Uiso   1.00
H53    H     0.13538   0.01846   0.34115   0.00000  Uiso   1.00
H54    H     0.12318   0.46501   0.36852   0.00000  Uiso   1.00
H55    H     0.09632   0.18870   0.14739   0.00000  Uiso   1.00
H56    H     0.10933   0.11231   0.13308   0.00000  Uiso   1.00
H57    H     0.17453   0.13802   0.13904   0.00000  Uiso   1.00
H58    H     0.30417   0.10035   0.23581   0.00000  Uiso   1.00
H59    H     0.13856   0.12617   0.08165   0.00000  Uiso   1.00
H60    H     0.28837   0.27071   0.40022   0.00000  Uiso   1.00
H61    H     0.26535   0.34652   0.41934   0.00000  Uiso   1.00
H62    H     0.22157   0.34636   0.36415   0.00000  Uiso   1.00
H63    H     0.29111   0.34301   0.36396   0.00000  Uiso   1.00
H64    H     0.23267   0.30965   0.16767   0.00000  Uiso   1.00
H65    H     0.29877   0.28019   0.11654   0.00000  Uiso   1.00
H66    H     0.31118   0.33239   0.14824   0.00000  Uiso   1.00
H67    H     0.28622   0.33336   0.08689   0.00000  Uiso   1.00
H68    H     0.09818   0.18930   0.33812   0.00000  Uiso   1.00
H69    H     0.32475   0.15157   0.26716   0.00000  Uiso   1.00
H70    H     0.05266   0.16311   0.40830   0.00000  Uiso   1.00
H71    H     0.01488   0.16818   0.35092   0.00000  Uiso   1.00
H72    H     0.01343   0.21232   0.39218   0.00000  Uiso   1.00
H73    H     0.26785   0.15077   0.22293   0.00000  Uiso   1.00
H74    H     0.04822   0.38087   0.28005   0.00000  Uiso   1.00
H75    H     0.06848   0.39117   0.36133   0.00000  Uiso   1.00
H76    H     0.13689   0.38076   0.35941   0.00000  Uiso   1.00
H77    H     0.08909   0.33499   0.35319   0.00000  Uiso   1.00
H78    H     0.28875   0.03686   0.28536   0.00000  Uiso   1.00
N79    N     0.16667   0.24999   0.12623   0.00000  Uiso   1.00
N80    N     0.08330   0.20906   0.36201   0.00000  Uiso   1.00
N81    N     0.16667   0.25001   0.37376   0.00000  Uiso   1.00
N82    N     0.25778   0.11901   0.28729   0.00000  Uiso   1.00
N83    N     0.08685   0.37643   0.29379   0.00000  Uiso   1.00
N84    N     0.25316   0.02278   0.29123   0.00000  Uiso   1.00
N85    N     0.08568   0.47252   0.29865   0.00000  Uiso   1.00
N86    N     0.11216   0.18112   0.11756   0.00000  Uiso   1.00
N87    N     0.25389   0.28413   0.38460   0.00000  Uiso   1.00
N88    N     0.23148   0.31257   0.13217   0.00000  Uiso   1.00
O89    O     0.16667   0.18454   0.28974   0.00000  Uiso   1.00
O90    O     0.16666   0.31547   0.21026   0.00000  Uiso   1.00
O91    O     0.16667   0.18453   0.21026   0.00000  Uiso   1.00
O92    O     0.16666   0.31547   0.28974   0.00000  Uiso   1.00
O93    O     0.09058   0.25000   0.28044   0.00000  Uiso   1.00
O94    O     0.24275   0.25000   0.21955   0.00000  Uiso   1.00
O95    O     0.09058   0.25000   0.20096   0.00000  Uiso   1.00
O96    O     0.24275   0.25001   0.29903   0.00000  Uiso   1.00
Zn97   Zn    0.16667   0.25001   0.30307   0.00000  Uiso   1.00
Zn98   Zn    0.16667   0.25000   0.19693   0.00000  Uiso   1.00
C99    C     0.49992   0.16424   0.25013   0.00000  Uiso   1.00
C100   C     0.45358   0.23915   0.44141   0.00000  Uiso   1.00
C101   C     0.49784   0.25211   0.02596   0.00000  Uiso   1.00
C102   C     0.49820   0.25267   0.47282   0.00000  Uiso   1.00
C103   C     0.40063   0.24976   0.23787   0.00000  Uiso   1.00
C104   C     0.59938   0.25068   0.26212   0.00000  Uiso   1.00
C105   C     0.34594   0.24577   0.23180   0.00000  Uiso   1.00
C106   C     0.65405   0.25537   0.26806   0.00000  Uiso   1.00
C107   C     0.45054   0.04749   0.23352   0.00000  Uiso   1.00
C108   C     0.52681   0.45516   0.22539   0.00000  Uiso   1.00
C109   C     0.45270   0.09363   0.23291   0.00000  Uiso   1.00
C110   C     0.49890   0.33590   0.24983   0.00000  Uiso   1.00
C111   C     0.52876   0.40924   0.22509   0.00000  Uiso   1.00
C112   C     0.49926   0.11653   0.25058   0.00000  Uiso   1.00
C113   C     0.49505   0.38371   0.24956   0.00000  Uiso   1.00
C114   C     0.54415   0.09411   0.27013   0.00000  Uiso   1.00
C115   C     0.45766   0.40380   0.27351   0.00000  Uiso   1.00
C116   C     0.54157   0.04721   0.27251   0.00000  Uiso   1.00
C117   C     0.45652   0.45074   0.27503   0.00000  Uiso   1.00
C118   C     0.49453   0.02434   0.25336   0.00000  Uiso   1.00
C119   C     0.49229   0.47594   0.25141   0.00000  Uiso   1.00
C120   C     0.62350   0.13094   0.25136   0.00000  Uiso   1.00
C121   C     0.47420   0.21655   0.04851   0.00000  Uiso   1.00
C122   C     0.42934   0.37077   0.34452   0.00000  Uiso   1.00
C123   C     0.58668   0.00692   0.33905   0.00000  Uiso   1.00
C124   C     0.43896   0.49135   0.34440   0.00000  Uiso   1.00
C125   C     0.46832   0.13737   0.11787   0.00000  Uiso   1.00
C126   C     0.59133   0.33251   0.38303   0.00000  Uiso   1.00
C127   C     0.61772   0.31450   0.12006   0.00000  Uiso   1.00
C128   C     0.37237   0.18715   0.37984   0.00000  Uiso   1.00
C129   C     0.54352   0.26537   0.45297   0.00000  Uiso   1.00
C130   C     0.47391   0.21651   0.09803   0.00000  Uiso   1.00
C131   C     0.54259   0.26677   0.40345   0.00000  Uiso   1.00
C132   C     0.52821   0.28270   0.10485   0.00000  Uiso   1.00
C133   C     0.45656   0.23351   0.39236   0.00000  Uiso   1.00
C134   C     0.52260   0.28639   0.05497   0.00000  Uiso   1.00
F135   F     0.65508   0.22859   0.18997   0.00000  Uiso   1.00
F136   F     0.40755   0.23265   0.45881   0.00000  Uiso   1.00
F137   F     0.34488   0.27275   0.30980   0.00000  Uiso   1.00
F138   F     0.40597   0.02526   0.21392   0.00000  Uiso   1.00
F139   F     0.55915   0.47968   0.20067   0.00000  Uiso   1.00
F140   F     0.40940   0.11618   0.21520   0.00000  Uiso   1.00
F141   F     0.56465   0.38970   0.20200   0.00000  Uiso   1.00
F142   F     0.45073   0.18166   0.02251   0.00000  Uiso   1.00
F143   F     0.58897   0.27627   0.48125   0.00000  Uiso   1.00
F144   F     0.54051   0.32414   0.03496   0.00000  Uiso   1.00
H145   H     0.61218   0.10616   0.31733   0.00000  Uiso   1.00
H146   H     0.62322   0.48877   0.35034   0.00000  Uiso   1.00
H147   H     0.55301   0.48323   0.34123   0.00000  Uiso   1.00
H148   H     0.58500   0.03556   0.36337   0.00000  Uiso   1.00
H149   H     0.38365   0.45530   0.29849   0.00000  Uiso   1.00
H150   H     0.40636   0.00614   0.36004   0.00000  Uiso   1.00
H151   H     0.46871   0.01846   0.34115   0.00000  Uiso   1.00
H152   H     0.45651   0.46501   0.36852   0.00000  Uiso   1.00
H153   H     0.42965   0.18870   0.14739   0.00000  Uiso   1.00
H154   H     0.44266   0.11231   0.13308   0.00000  Uiso   1.00
H155   H     0.50786   0.13802   0.13904   0.00000  Uiso   1.00
H156   H     0.63751   0.10035   0.23581   0.00000  Uiso   1.00
H157   H     0.47190   0.12617   0.08165   0.00000  Uiso   1.00
H158   H     0.62170   0.27071   0.40022   0.00000  Uiso   1.00
H159   H     0.59869   0.34652   0.41934   0.00000  Uiso   1.00
H160   H     0.55490   0.34636   0.36415   0.00000  Uiso   1.00
H161   H     0.62444   0.34301   0.36396   0.00000  Uiso   1.00
H162   H     0.56601   0.30965   0.16767   0.00000  Uiso   1.00
H163   H     0.63211   0.28019   0.11654   0.00000  Uiso   1.00
H164   H     0.64451   0.33239   0.14824   0.00000  Uiso   1.00
H165   H     0.61956   0.33336   0.08689   0.00000  Uiso   1.00
H166   H     0.43151   0.18930   0.33812   0.00000  Uiso   1.00
H167   H     0.65808   0.15157   0.26716   0.00000  Uiso   1.00
H168   H     0.38599   0.16311   0.40830   0.00000  Uiso   1.00
H169   H     0.34822   0.16818   0.35092   0.00000  Uiso   1.00
H170   H     0.34677   0.21232   0.39218   0.00000  Uiso   1.00
H171   H     0.60118   0.15077   0.22293   0.00000  Uiso   1.00
H172   H     0.38155   0.38087   0.28005   0.00000  Uiso   1.00
H173   H     0.40181   0.39117   0.36133   0.00000  Uiso   1.00
H174   H     0.47022   0.38076   0.35941   0.00000  Uiso   1.00
H175   H     0.42242   0.33499   0.35319   0.00000  Uiso   1.00
H176   H     0.62208   0.03686   0.28536   0.00000  Uiso   1.00
N177   N     0.50000   0.24999   0.12623   0.00000  Uiso   1.00
N178   N     0.41663   0.20906   0.36201   0.00000  Uiso   1.00
N179   N     0.50000   0.25001   0.37376   0.00000  Uiso   1.00
N180   N     0.59112   0.11901   0.28729   0.00000  Uiso   1.00
N181   N     0.42019   0.37643   0.29379   0.00000  Uiso   1.00
N182   N     0.58649   0.02278   0.29123   0.00000  Uiso   1.00
N183   N     0.41901   0.47252   0.29865   0.00000  Uiso   1.00
N184   N     0.44549   0.18112   0.11756   0.00000  Uiso   1.00
N185   N     0.58722   0.28413   0.38460   0.00000  Uiso   1.00
N186   N     0.56481   0.31257   0.13217   0.00000  Uiso   1.00
O187   O     0.50000   0.18454   0.28974   0.00000  Uiso   1.00
O188   O     0.50000   0.31547   0.21026   0.00000  Uiso   1.00
O189   O     0.50000   0.18453   0.21026   0.00000  Uiso   1.00
O190   O     0.50000   0.31547   0.28974   0.00000  Uiso   1.00
O191   O     0.42392   0.25000   0.28044   0.00000  Uiso   1.00
O192   O     0.57608   0.25000   0.21955   0.00000  Uiso   1.00
O193   O     0.42392   0.25000   0.20096   0.00000  Uiso   1.00
O194   O     0.57608   0.25001   0.29903   0.00000  Uiso   1.00
Zn195  Zn    0.50000   0.25001   0.30307   0.00000  Uiso   1.00
Zn196  Zn    0.50000   0.25000   0.19693   0.00000  Uiso   1.00
C197   C     0.83325   0.16424   0.25013   0.00000  Uiso   1.00
C198   C     0.78691   0.23915   0.44141   0.00000  Uiso   1.00
C199   C     0.83118   0.25211   0.02596   0.00000  Uiso   1.00
C200   C     0.83153   0.25267   0.47282   0.00000  Uiso   1.00
C201   C     0.73397   0.24976   0.23787   0.00000  Uiso   1.00
C202   C     0.93271   0.25068   0.26212   0.00000  Uiso   1.00
C203   C     0.67927   0.24577   0.23180   0.00000  Uiso   1.00
C204   C     0.98738   0.25537   0.26806   0.00000  Uiso   1.00
C205   C     0.78387   0.04749   0.23352   0.00000  Uiso   1.00
C206   C     0.86014   0.45516   0.22539   0.00000  Uiso   1.00
C207   C     0.78603   0.09363   0.23291   0.00000  Uiso   1.00
C208   C     0.83223   0.33590   0.24983   0.00000  Uiso   1.00
C209   C     0.86210   0.40924   0.22509   0.00000  Uiso   1.00
C210   C     0.83259   0.11653   0.25058   0.00000  Uiso   1.00
C211   C     0.82839   0.38371   0.24956   0.00000  Uiso   1.00
C212   C     0.87749   0.09411   0.27013   0.00000  Uiso   1.00
C213   C     0.79100   0.40380   0.27351   0.00000  Uiso   1.00
C214   C     0.87491   0.04721   0.27251   0.00000  Uiso   1.00
C215   C     0.78986   0.45074   0.27503   0.00000  Uiso   1.00
C216   C     0.82786   0.02434   0.25336   0.00000  Uiso   1.00
C217   C     0.82563   0.47594   0.25141   0.00000  Uiso   1.00
C218   C     0.95684   0.13094   0.25136   0.00000  Uiso   1.00
C219   C     0.80753   0.21655   0.04851   0.00000  Uiso   1.00
C220   C     0.76267   0.37077   0.34452   0.00000  Uiso   1.00
C221   C     0.92002   0.00692   0.33905   0.00000  Uiso   1.00
C222   C     0.77230   0.49135   0.34440   0.00000  Uiso   1.00
C223   C     0.80165   0.13737   0.11787   0.00000  Uiso   1.00
C224   C     0.92466   0.33251   0.38303   0.00000  Uiso   1.00
C225   C     0.95105   0.31450   0.12006   0.00000  Uiso   1.00
C226   C     0.70570   0.18715   0.37984   0.00000  Uiso   1.00
C227   C     0.87685   0.26537   0.45297   0.00000  Uiso   1.00
C228   C     0.80724   0.21651   0.09803   0.00000  Uiso   1.00
C229   C     0.87593   0.26677   0.40345   0.00000  Uiso   1.00
C230   C     0.86154   0.28270   0.10485   0.00000  Uiso   1.00
C231   C     0.78989   0.23351   0.39236   0.00000  Uiso   1.00
C232   C     0.85594   0.28639   0.05497   0.00000  Uiso   1.00
F233   F     0.98841   0.22859   0.18997   0.00000  Uiso   1.00
F234   F     0.74088   0.23265   0.45881   0.00000  Uiso   1.00
F235   F     0.67821   0.27275   0.30980   0.00000  Uiso   1.00
F236   F     0.73930   0.02526   0.21392   0.00000  Uiso   1.00
F237   F     0.89249   0.47968   0.20067   0.00000  Uiso   1.00
F238   F     0.74274   0.11618   0.21520   0.00000  Uiso   1.00
F239   F     0.89798   0.38970   0.20200   0.00000  Uiso   1.00
F240   F     0.78407   0.18166   0.02251   0.00000  Uiso   1.00
F241   F     0.92230   0.27627   0.48125   0.00000  Uiso   1.00
F242   F     0.87384   0.32414   0.03496   0.00000  Uiso   1.00
H243   H     0.94551   0.10616   0.31733   0.00000  Uiso   1.00
H244   H     0.95655   0.48877   0.35034   0.00000  Uiso   1.00
H245   H     0.88634   0.48323   0.34123   0.00000  Uiso   1.00
H246   H     0.91833   0.03556   0.36337   0.00000  Uiso   1.00
H247   H     0.71698   0.45530   0.29849   0.00000  Uiso   1.00
H248   H     0.73969   0.00614   0.36004   0.00000  Uiso   1.00
H249   H     0.80205   0.01846   0.34115   0.00000  Uiso   1.00
H250   H     0.78985   0.46501   0.36852   0.00000  Uiso   1.00
H251   H     0.76298   0.18870   0.14739   0.00000  Uiso   1.00
H252   H     0.77599   0.11231   0.13308   0.00000  Uiso   1.00
H253   H     0.84119   0.13802   0.13904   0.00000  Uiso   1.00
H254   H     0.97084   0.10035   0.23581   0.00000  Uiso   1.00
H255   H     0.80523   0.12617   0.08165   0.00000  Uiso   1.00
H256   H     0.95504   0.27071   0.40022   0.00000  Uiso   1.00
H257   H     0.93202   0.34652   0.41934   0.00000  Uiso   1.00
H258   H     0.88824   0.34636   0.36415   0.00000  Uiso   1.00
H259   H     0.95778   0.34301   0.36396   0.00000  Uiso   1.00
H260   H     0.89934   0.30965   0.16767   0.00000  Uiso   1.00
H261   H     0.96544   0.28019   0.11654   0.00000  Uiso   1.00
H262   H     0.97785   0.33239   0.14824   0.00000  Uiso   1.00
H263   H     0.95289   0.33336   0.08689   0.00000  Uiso   1.00
H264   H     0.76485   0.18930   0.33812   0.00000  Uiso   1.00
H265   H     0.99142   0.15157   0.26716   0.00000  Uiso   1.00
H266   H     0.71932   0.16311   0.40830   0.00000  Uiso   1.00
H267   H     0.68155   0.16818   0.35092   0.00000  Uiso   1.00
H268   H     0.68010   0.21232   0.39218   0.00000  Uiso   1.00
H269   H     0.93452   0.15077   0.22293   0.00000  Uiso   1.00
H270   H     0.71489   0.38087   0.28005   0.00000  Uiso   1.00
H271   H     0.73514   0.39117   0.36133   0.00000  Uiso   1.00
H272   H     0.80356   0.38076   0.35941   0.00000  Uiso   1.00
H273   H     0.75575   0.33499   0.35319   0.00000  Uiso   1.00
H274   H     0.95542   0.03686   0.28536   0.00000  Uiso   1.00
N275   N     0.83333   0.24999   0.12623   0.00000  Uiso   1.00
N276   N     0.74997   0.20906   0.36201   0.00000  Uiso   1.00
N277   N     0.83333   0.25001   0.37376   0.00000  Uiso   1.00
N278   N     0.92445   0.11901   0.28729   0.00000  Uiso   1.00
N279   N     0.75352   0.37643   0.29379   0.00000  Uiso   1.00
N280   N     0.91982   0.02278   0.29123   0.00000  Uiso   1.00
N281   N     0.75235   0.47252   0.29865   0.00000  Uiso   1.00
N282   N     0.77882   0.18112   0.11756   0.00000  Uiso   1.00
N283   N     0.92056   0.28413   0.38460   0.00000  Uiso   1.00
N284   N     0.89815   0.31257   0.13217   0.00000  Uiso   1.00
O285   O     0.83334   0.18454   0.28974   0.00000  Uiso   1.00
O286   O     0.83333   0.31547   0.21026   0.00000  Uiso   1.00
O287   O     0.83334   0.18453   0.21026   0.00000  Uiso   1.00
O288   O     0.83333   0.31547   0.28974   0.00000  Uiso   1.00
O289   O     0.75725   0.25000   0.28044   0.00000  Uiso   1.00
O290   O     0.90942   0.25000   0.21955   0.00000  Uiso   1.00
O291   O     0.75725   0.25000   0.20096   0.00000  Uiso   1.00
O292   O     0.90942   0.25001   0.29903   0.00000  Uiso   1.00
Zn293  Zn    0.83333   0.25001   0.30307   0.00000  Uiso   1.00
Zn294  Zn    0.83333   0.25000   0.19693   0.00000  Uiso   1.00
C295   C     0.16658   0.66424   0.25013   0.00000  Uiso   1.00
C296   C     0.12025   0.73915   0.44141   0.00000  Uiso   1.00
C297   C     0.16451   0.75211   0.02596   0.00000  Uiso   1.00
C298   C     0.16487   0.75267   0.47282   0.00000  Uiso   1.00
C299   C     0.06730   0.74976   0.23787   0.00000  Uiso   1.00
C300   C     0.26604   0.75068   0.26212   0.00000  Uiso   1.00
C301   C     0.01261   0.74577   0.23180   0.00000  Uiso   1.00
C302   C     0.32072   0.75537   0.26806   0.00000  Uiso   1.00
C303   C     0.11720   0.54749   0.23352   0.00000  Uiso   1.00
C304   C     0.19348   0.95516   0.22539   0.00000  Uiso   1.00
C305   C     0.11936   0.59363   0.23291   0.00000  Uiso   1.00
C306   C     0.16557   0.83590   0.24983   0.00000  Uiso   1.00
C307   C     0.19543   0.90924   0.22509   0.00000  Uiso   1.00
C308   C     0.16593   0.61653   0.25058   0.00000  Uiso   1.00
C309   C     0.16172   0.88371   0.24956   0.00000  Uiso   1.00
C310   C     0.21082   0.59411   0.27013   0.00000  Uiso   1.00
C311   C     0.12433   0.90380   0.27351   0.00000  Uiso   1.00
C312   C     0.20824   0.54721   0.27251   0.00000  Uiso   1.00
C313   C     0.12319   0.95074   0.27503   0.00000  Uiso   1.00
C314   C     0.16120   0.52434   0.25336   0.00000  Uiso   1.00
C315   C     0.15896   0.97594   0.25141   0.00000  Uiso   1.00
C316   C     0.29017   0.63094   0.25136   0.00000  Uiso   1.00
C317   C     0.14086   0.71655   0.04851   0.00000  Uiso   1.00
C318   C     0.09600   0.87077   0.34452   0.00000  Uiso   1.00
C319   C     0.25335   0.50692   0.33905   0.00000  Uiso   1.00
C320   C     0.10563   0.99135   0.34440   0.00000  Uiso   1.00
C321   C     0.13499   0.63737   0.11787   0.00000  Uiso   1.00
C322   C     0.25799   0.83251   0.38303   0.00000  Uiso   1.00
C323   C     0.28438   0.81450   0.12006   0.00000  Uiso   1.00
C324   C     0.03903   0.68715   0.37984   0.00000  Uiso   1.00
C325   C     0.21018   0.76537   0.45297   0.00000  Uiso   1.00
C326   C     0.14057   0.71651   0.09803   0.00000  Uiso   1.00
C327   C     0.20926   0.76677   0.40345   0.00000  Uiso   1.00
C328   C     0.19487   0.78270   0.10485   0.00000  Uiso   1.00
C329   C     0.12323   0.73351   0.39236   0.00000  Uiso   1.00
C330   C     0.18927   0.78639   0.05497   0.00000  Uiso   1.00
F331   F     0.32174   0.72859   0.18997   0.00000  Uiso   1.00
F332   F     0.07422   0.73265   0.45881   0.00000  Uiso   1.00
F333   F     0.01154   0.77275   0.30980   0.00000  Uiso   1.00
F334   F     0.07263   0.52526   0.21392   0.00000  Uiso   1.00
F335   F     0.22582   0.97968   0.20067   0.00000  Uiso   1.00
F336   F     0.07607   0.61618   0.21520   0.00000  Uiso   1.00
F337   F     0.23132   0.88970   0.20200   0.00000  Uiso   1.00
F338   F     0.11740   0.68166   0.02251   0.00000  Uiso   1.00
F339   F     0.25563   0.77627   0.48125   0.00000  Uiso   1.00
F340   F     0.20717   0.82414   0.03496   0.00000  Uiso   1.00
H341   H     0.27885   0.60616   0.31733   0.00000  Uiso   1.00
H342   H     0.28989   0.98877   0.35034   0.00000  Uiso   1.00
H343   H     0.21967   0.98323   0.34123   0.00000  Uiso   1.00
H344   H     0.25166   0.53556   0.36337   0.00000  Uiso   1.00
H345   H     0.05032   0.95530   0.29849   0.00000  Uiso   1.00
H346   H     0.07302   0.50614   0.36004   0.00000  Uiso   1.00
H347   H     0.13538   0.51846   0.34115   0.00000  Uiso   1.00
H348   H     0.12318   0.96501   0.36852   0.00000  Uiso   1.00
H349   H     0.09632   0.68870   0.14739   0.00000  Uiso   1.00
H350   H     0.10933   0.61231   0.13308   0.00000  Uiso   1.00
H351   H     0.17453   0.63802   0.13904   0.00000  Uiso   1.00
H352   H     0.30417   0.60035   0.23581   0.00000  Uiso   1.00
H353   H     0.13856   0.62617   0.08165   0.00000  Uiso   1.00
H354   H     0.28837   0.77071   0.40022   0.00000  Uiso   1.00
H355   H     0.26535   0.84652   0.41934   0.00000  Uiso   1.00
H356   H     0.22157   0.84636   0.36415   0.00000  Uiso   1.00
H357   H     0.29111   0.84301   0.36396   0.00000  Uiso   1.00
H358   H     0.23267   0.80965   0.16767   0.00000  Uiso   1.00
H359   H     0.29877   0.78019   0.11654   0.00000  Uiso   1.00
H360   H     0.31118   0.83239   0.14824   0.00000  Uiso   1.00
H361   H     0.28622   0.83336   0.08689   0.00000  Uiso   1.00
H362   H     0.09818   0.68930   0.33812   0.00000  Uiso   1.00
H363   H     0.32475   0.65157   0.26716   0.00000  Uiso   1.00
H364   H     0.05266   0.66311   0.40830   0.00000  Uiso   1.00
H365   H     0.01488   0.66818   0.35092   0.00000  Uiso   1.00
H366   H     0.01343   0.71232   0.39218   0.00000  Uiso   1.00
H367   H     0.26785   0.65077   0.22293   0.00000  Uiso   1.00
H368   H     0.04822   0.88087   0.28005   0.00000  Uiso   1.00
H369   H     0.06848   0.89117   0.36133   0.00000  Uiso   1.00
H370   H     0.13689   0.88076   0.35941   0.00000  Uiso   1.00
H371   H     0.08909   0.83499   0.35319   0.00000  Uiso   1.00
H372   H     0.28875   0.53686   0.28536   0.00000  Uiso   1.00
N373   N     0.16667   0.74999   0.12623   0.00000  Uiso   1.00
N374   N     0.08330   0.70906   0.36201   0.00000  Uiso   1.00
N375   N     0.16667   0.75001   0.37376   0.00000  Uiso   1.00
N376   N     0.25778   0.61901   0.28729   0.00000  Uiso   1.00
N377   N     0.08685   0.87643   0.29379   0.00000  Uiso   1.00
N378   N     0.25316   0.52278   0.29123   0.00000  Uiso   1.00
N379   N     0.08568   0.97252   0.29865   0.00000  Uiso   1.00
N380   N     0.11216   0.68112   0.11756   0.00000  Uiso   1.00
N381   N     0.25389   0.78413   0.38460   0.00000  Uiso   1.00
N382   N     0.23148   0.81257   0.13217   0.00000  Uiso   1.00
O383   O     0.16667   0.68454   0.28974   0.00000  Uiso   1.00
O384   O     0.16666   0.81547   0.21026   0.00000  Uiso   1.00
O385   O     0.16667   0.68453   0.21026   0.00000  Uiso   1.00
O386   O     0.16666   0.81547   0.28974   0.00000  Uiso   1.00
O387   O     0.09058   0.75000   0.28044   0.00000  Uiso   1.00
O388   O     0.24275   0.75000   0.21955   0.00000  Uiso   1.00
O389   O     0.09058   0.75000   0.20096   0.00000  Uiso   1.00
O390   O     0.24275   0.75001   0.29903   0.00000  Uiso   1.00
Zn391  Zn    0.16667   0.75001   0.30307   0.00000  Uiso   1.00
Zn392  Zn    0.16667   0.75000   0.19693   0.00000  Uiso   1.00
C393   C     0.49992   0.66424   0.25013   0.00000  Uiso   1.00
C394   C     0.45358   0.73915   0.44141   0.00000  Uiso   1.00
C395   C     0.49784   0.75211   0.02596   0.00000  Uiso   1.00
C396   C     0.49820   0.75267   0.47282   0.00000  Uiso   1.00
C397   C     0.40063   0.74976   0.23787   0.00000  Uiso   1.00
C398   C     0.59938   0.75068   0.26212   0.00000  Uiso   1.00
C399   C     0.34594   0.74577   0.23180   0.00000  Uiso   1.00
C400   C     0.65405   0.75537   0.26806   0.00000  Uiso   1.00
C401   C     0.45054   0.54749   0.23352   0.00000  Uiso   1.00
C402   C     0.52681   0.95516   0.22539   0.00000  Uiso   1.00
C403   C     0.45270   0.59363   0.23291   0.00000  Uiso   1.00
C404   C     0.49890   0.83590   0.24983   0.00000  Uiso   1.00
C405   C     0.52876   0.90924   0.22509   0.00000  Uiso   1.00
C406   C     0.49926   0.61653   0.25058   0.00000  Uiso   1.00
C407   C     0.49505   0.88371   0.24956   0.00000  Uiso   1.00
C408   C     0.54415   0.59411   0.27013   0.00000  Uiso   1.00
C409   C     0.45766   0.90380   0.27351   0.00000  Uiso   1.00
C410   C     0.54157   0.54721   0.27251   0.00000  Uiso   1.00
C411   C     0.45652   0.95074   0.27503   0.00000  Uiso   1.00
C412   C     0.49453   0.52434   0.25336   0.00000  Uiso   1.00
C413   C     0.49229   0.97594   0.25141   0.00000  Uiso   1.00
C414   C     0.62350   0.63094   0.25136   0.00000  Uiso   1.00
C415   C     0.47420   0.71655   0.04851   0.00000  Uiso   1.00
C416   C     0.42934   0.87077   0.34452   0.00000  Uiso   1.00
C417   C     0.58668   0.50692   0.33905   0.00000  Uiso   1.00
C418   C     0.43896   0.99135   0.34440   0.00000  Uiso   1.00
C419   C     0.46832   0.63737   0.11787   0.00000  Uiso   1.00
C420   C     0.59133   0.83251   0.38303   0.00000  Uiso   1.00
C421   C     0.61772   0.81450   0.12006   0.00000  Uiso   1.00
C422   C     0.37237   0.68715   0.37984   0.00000  Uiso   1.00
C423   C     0.54352   0.76537   0.45297   0.00000  Uiso   1.00
C424   C     0.47391   0.71651   0.09803   0.00000  Uiso   1.00
C425   C     0.54259   0.76677   0.40345   0.00000  Uiso   1.00
C426   C     0.52821   0.78270   0.10485   0.00000  Uiso   1.00
C427   C     0.45656   0.73351   0.39236   0.00000  Uiso   1.00
C428   C     0.52260   0.78639   0.05497   0.00000  Uiso   1.00
F429   F     0.65508   0.72859   0.18997   0.00000  Uiso   1.00
F430   F     0.40755   0.73265   0.45881   0.00000  Uiso   1.00
F431   F     0.34488   0.77275   0.30980   0.00000  Uiso   1.00
F432   F     0.40597   0.52526   0.21392   0.00000  Uiso   1.00
F433   F     0.55915   0.97968   0.20067   0.00000  Uiso   1.00
F434   F     0.40940   0.61618   0.21520   0.00000  Uiso   1.00
F435   F     0.56465   0.88970   0.20200   0.00000  Uiso   1.00
F436   F     0.45073   0.68166   0.02251   0.00000  Uiso   1.00
F437   F     0.58897   0.77627   0.48125   0.00000  Uiso   1.00
F438   F     0.54051   0.82414   0.03496   0.00000  Uiso   1.00
H439   H     0.61218   0.60616   0.31733   0.00000  Uiso   1.00
H440   H     0.62322   0.98877   0.35034   0.00000  Uiso   1.00
H441   H     0.55301   0.98323   0.34123   0.00000  Uiso   1.00
H442   H     0.58500   0.53556   0.36337   0.00000  Uiso   1.00
H443   H     0.38365   0.95530   0.29849   0.00000  Uiso   1.00
H444   H     0.40636   0.50614   0.36004   0.00000  Uiso   1.00
H445   H     0.46871   0.51846   0.34115   0.00000  Uiso   1.00
H446   H     0.45651   0.96501   0.36852   0.00000  Uiso   1.00
H447   H     0.42965   0.68870   0.14739   0.00000  Uiso   1.00
H448   H     0.44266   0.61231   0.13308   0.00000  Uiso   1.00
H449   H     0.50786   0.63802   0.13904   0.00000  Uiso   1.00
H450   H     0.63751   0.60035   0.23581   0.00000  Uiso   1.00
H451   H     0.47190   0.62617   0.08165   0.00000  Uiso   1.00
H452   H     0.62170   0.77071   0.40022   0.00000  Uiso   1.00
H453   H     0.59869   0.84652   0.41934   0.00000  Uiso   1.00
H454   H     0.55490   0.84636   0.36415   0.00000  Uiso   1.00
H455   H     0.62444   0.84301   0.36396   0.00000  Uiso   1.00
H456   H     0.56601   0.80965   0.16767   0.00000  Uiso   1.00
H457   H     0.63211   0.78019   0.11654   0.00000  Uiso   1.00
H458   H     0.64451   0.83239   0.14824   0.00000  Uiso   1.00
H459   H     0.61956   0.83336   0.08689   0.00000  Uiso   1.00
H460   H     0.43151   0.68930   0.33812   0.00000  Uiso   1.00
H461   H     0.65808   0.65157   0.26716   0.00000  Uiso   1.00
H462   H     0.38599   0.66311   0.40830   0.00000  Uiso   1.00
H463   H     0.34822   0.66818   0.35092   0.00000  Uiso   1.00
H464   H     0.34677   0.71232   0.39218   0.00000  Uiso   1.00
H465   H     0.60118   0.65077   0.22293   0.00000  Uiso   1.00
H466   H     0.38155   0.88087   0.28005   0.00000  Uiso   1.00
H467   H     0.40181   0.89117   0.36133   0.00000  Uiso   1.00
H468   H     0.47022   0.88076   0.35941   0.00000  Uiso   1.00
H469   H     0.42242   0.83499   0.35319   0.00000  Uiso   1.00
H470   H     0.62208   0.53686   0.28536   0.00000  Uiso   1.00
N471   N     0.50000   0.74999   0.12623   0.00000  Uiso   1.00
N472   N     0.41663   0.70906   0.36201   0.00000  Uiso   1.00
N473   N     0.50000   0.75001   0.37376   0.00000  Uiso   1.00
N474   N     0.59112   0.61901   0.28729   0.00000  Uiso   1.00
N475   N     0.42019   0.87643   0.29379   0.00000  Uiso   1.00
N476   N     0.58649   0.52278   0.29123   0.00000  Uiso   1.00
N477   N     0.41901   0.97252   0.29865   0.00000  Uiso   1.00
N478   N     0.44549   0.68112   0.11756   0.00000  Uiso   1.00
N479   N     0.58722   0.78413   0.38460   0.00000  Uiso   1.00
N480   N     0.56481   0.81257   0.13217   0.00000  Uiso   1.00
O481   O     0.50000   0.68454   0.28974   0.00000  Uiso   1.00
O482   O     0.50000   0.81547   0.21026   0.00000  Uiso   1.00
O483   O     0.50000   0.68453   0.21026   0.00000  Uiso   1.00
O484   O     0.50000   0.81547   0.28974   0.00000  Uiso   1.00
O485   O     0.42392   0.75000   0.28044   0.00000  Uiso   1.00
O486   O     0.57608   0.75000   0.21955   0.00000  Uiso   1.00
O487   O     0.42392   0.75000   0.20096   0.00000  Uiso   1.00
O488   O     0.57608   0.75001   0.29903   0.00000  Uiso   1.00
Zn489  Zn    0.50000   0.75001   0.30307   0.00000  Uiso   1.00
Zn490  Zn    0.50000   0.75000   0.19693   0.00000  Uiso   1.00
C491   C     0.83325   0.66424   0.25013   0.00000  Uiso   1.00
C492   C     0.78691   0.73915   0.44141   0.00000  Uiso   1.00
C493   C     0.83118   0.75211   0.02596   0.00000  Uiso   1.00
C494   C     0.83153   0.75267   0.47282   0.00000  Uiso   1.00
C495   C     0.73397   0.74976   0.23787   0.00000  Uiso   1.00
C496   C     0.93271   0.75068   0.26212   0.00000  Uiso   1.00
C497   C     0.67927   0.74577   0.23180   0.00000  Uiso   1.00
C498   C     0.98738   0.75537   0.26806   0.00000  Uiso   1.00
C499   C     0.78387   0.54749   0.23352   0.00000  Uiso   1.00
C500   C     0.86014   0.95516   0.22539   0.00000  Uiso   1.00
C501   C     0.78603   0.59363   0.23291   0.00000  Uiso   1.00
C502   C     0.83223   0.83590   0.24983   0.00000  Uiso   1.00
C503   C     0.86210   0.90924   0.22509   0.00000  Uiso   1.00
C504   C     0.83259   0.61653   0.25058   0.00000  Uiso   1.00
C505   C     0.82839   0.88371   0.24956   0.00000  Uiso   1.00
C506   C     0.87749   0.59411   0.27013   0.00000  Uiso   1.00
C507   C     0.79100   0.90380   0.27351   0.00000  Uiso   1.00
C508   C     0.87491   0.54721   0.27251   0.00000  Uiso   1.00
C509   C     0.78986   0.95074   0.27503   0.00000  Uiso   1.00
C510   C     0.82786   0.52434   0.25336   0.00000  Uiso   1.00
C511   C     0.82563   0.97594   0.25141   0.00000  Uiso   1.00
C512   C     0.95684   0.63094   0.25136   0.00000  Uiso   1.00
C513   C     0.80753   0.71655   0.04851   0.00000  Uiso   1.00
C514   C     0.76267   0.87077   0.34452   0.00000  Uiso   1.00
C515   C     0.92002   0.50692   0.33905   0.00000  Uiso   1.00
C516   C     0.77230   0.99135   0.34440   0.00000  Uiso   1.00
C517   C     0.80165   0.63737   0.11787   0.00000  Uiso   1.00
C518   C     0.92466   0.83251   0.38303   0.00000  Uiso   1.00
C519   C     0.95105   0.81450   0.12006   0.00000  Uiso   1.00
C520   C     0.70570   0.68715   0.37984   0.00000  Uiso   1.00
C521   C     0.87685   0.76537   0.45297   0.00000  Uiso   1.00
C522   C     0.80724   0.71651   0.09803   0.00000  Uiso   1.00
C523   C     0.87593   0.76677   0.40345   0.00000  Uiso   1.00
C524   C     0.86154   0.78270   0.10485   0.00000  Uiso   1.00
C525   C     0.78989   0.73351   0.39236   0.00000  Uiso   1.00
C526   C     0.85594   0.78639   0.05497   0.00000  Uiso   1.00
F527   F     0.98841   0.72859   0.18997   0.00000  Uiso   1.00
F528   F     0.74088   0.73265   0.45881   0.00000  Uiso   1.00
F529   F     0.67821   0.77275   0.30980   0.00000  Uiso   1.00
F530   F     0.73930   0.52526   0.21392   0.00000  Uiso   1.00
F531   F     0.89249   0.97968   0.20067   0.00000  Uiso   1.00
F532   F     0.74274   0.61618   0.21520   0.00000  Uiso   1.00
F533   F     0.89798   0.88970   0.20200   0.00000  Uiso   1.00
F534   F     0.78407   0.68166   0.02251   0.00000  Uiso   1.00
F535   F     0.92230   0.77627   0.48125   0.00000  Uiso   1.00
F536   F     0.87384   0.82414   0.03496   0.00000  Uiso   1.00
H537   H     0.94551   0.60616   0.31733   0.00000  Uiso   1.00
H538   H     0.95655   0.98877   0.35034   0.00000  Uiso   1.00
H539   H     0.88634   0.98323   0.34123   0.00000  Uiso   1.00
H540   H     0.91833   0.53556   0.36337   0.00000  Uiso   1.00
H541   H     0.71698   0.95530   0.29849   0.00000  Uiso   1.00
H542   H     0.73969   0.50614   0.36004   0.00000  Uiso   1.00
H543   H     0.80205   0.51846   0.34115   0.00000  Uiso   1.00
H544   H     0.78985   0.96501   0.36852   0.00000  Uiso   1.00
H545   H     0.76298   0.68870   0.14739   0.00000  Uiso   1.00
H546   H     0.77599   0.61231   0.13308   0.00000  Uiso   1.00
H547   H     0.84119   0.63802   0.13904   0.00000  Uiso   1.00
H548   H     0.97084   0.60035   0.23581   0.00000  Uiso   1.00
H549   H     0.80523   0.62617   0.08165   0.00000  Uiso   1.00
H550   H     0.95504   0.77071   0.40022   0.00000  Uiso   1.00
H551   H     0.93202   0.84652   0.41934   0.00000  Uiso   1.00
H552   H     0.88824   0.84636   0.36415   0.00000  Uiso   1.00
H553   H     0.95778   0.84301   0.36396   0.00000  Uiso   1.00
H554   H     0.89934   0.80965   0.16767   0.00000  Uiso   1.00
H555   H     0.96544   0.78019   0.11654   0.00000  Uiso   1.00
H556   H     0.97785   0.83239   0.14824   0.00000  Uiso   1.00
H557   H     0.95289   0.83336   0.08689   0.00000  Uiso   1.00
H558   H     0.76485   0.68930   0.33812   0.00000  Uiso   1.00
H559   H     0.99142   0.65157   0.26716   0.00000  Uiso   1.00
H560   H     0.71932   0.66311   0.40830   0.00000  Uiso   1.00
H561   H     0.68155   0.66818   0.35092   0.00000  Uiso   1.00
H562   H     0.68010   0.71232   0.39218   0.00000  Uiso   1.00
H563   H     0.93452   0.65077   0.22293   0.00000  Uiso   1.00
H564   H     0.71489   0.88087   0.28005   0.00000  Uiso   1.00
H565   H     0.73514   0.89117   0.36133   0.00000  Uiso   1.00
H566   H     0.80356   0.88076   0.35941   0.00000  Uiso   1.00
H567   H     0.75575   0.83499   0.35319   0.00000  Uiso   1.00
H568   H     0.95542   0.53686   0.28536   0.00000  Uiso   1.00
N569   N     0.83333   0.74999   0.12623   0.00000  Uiso   1.00
N570   N     0.74997   0.70906   0.36201   0.00000  Uiso   1.00
N571   N     0.83333   0.75001   0.37376   0.00000  Uiso   1.00
N572   N     0.92445   0.61901   0.28729   0.00000  Uiso   1.00
N573   N     0.75352   0.87643   0.29379   0.00000  Uiso   1.00
N574   N     0.91982   0.52278   0.29123   0.00000  Uiso   1.00
N575   N     0.75235   0.97252   0.29865   0.00000  Uiso   1.00
N576   N     0.77882   0.68112   0.11756   0.00000  Uiso   1.00
N577   N     0.92056   0.78413   0.38460   0.00000  Uiso   1.00
N578   N     0.89815   0.81257   0.13217   0.00000  Uiso   1.00
O579   O     0.83334   0.68454   0.28974   0.00000  Uiso   1.00
O580   O     0.83333   0.81547   0.21026   0.00000  Uiso   1.00
O581   O     0.83334   0.68453   0.21026   0.00000  Uiso   1.00
O582   O     0.83333   0.81547   0.28974   0.00000  Uiso   1.00
O583   O     0.75725   0.75000   0.28044   0.00000  Uiso   1.00
O584   O     0.90942   0.75000   0.21955   0.00000  Uiso   1.00
O585   O     0.75725   0.75000   0.20096   0.00000  Uiso   1.00
O586   O     0.90942   0.75001   0.29903   0.00000  Uiso   1.00
Zn587  Zn    0.83333   0.75001   0.30307   0.00000  Uiso   1.00
Zn588  Zn    0.83333   0.75000   0.19693   0.00000  Uiso   1.00
C589   C     0.16658   0.16424   0.75013   0.00000  Uiso   1.00
C590   C     0.12025   0.23915   0.94141   0.00000  Uiso   1.00
C591   C     0.16451   0.25211   0.52596   0.00000  Uiso   1.00
C592   C     0.16487   0.25267   0.97282   0.00000  Uiso   1.00
C593   C     0.06730   0.24976   0.73787   0.00000  Uiso   1.00
C594   C     0.26604   0.25068   0.76212   0.00000  Uiso   1.00
C595   C     0.01261   0.24577   0.73180   0.00000  Uiso   1.00
C596   C     0.32072   0.25537   0.76806   0.00000  Uiso   1.00
C597   C     0.11720   0.04749   0.73352   0.00000  Uiso   1.00
C598   C     0.19348   0.45516   0.72539   0.00000  Uiso   1.00
C599   C     0.11936   0.09363   0.73291   0.00000  Uiso   1.00
C600   C     0.16557   0.33590   0.74983   0.00000  Uiso   1.00
C601   C     0.19543   0.40924   0.72509   0.00000  Uiso   1.00
C602   C     0.16593   0.11653   0.75058   0.00000  Uiso   1.00
C603   C     0.16172   0.38371   0.74956   0.00000  Uiso   1.00
C604   C     0.21082   0.09411   0.77013   0.00000  Uiso   1.00
C605   C     0.12433   0.40380   0.77351   0.00000  Uiso   1.00
C606   C     0.20824   0.04721   0.77251   0.00000  Uiso   1.00
C607   C     0.12319   0.45074   0.77503   0.00000  Uiso   1.00
C608   C     0.16120   0.02434   0.75336   0.00000  Uiso   1.00
C609   C     0.15896   0.47594   0.75141   0.00000  Uiso   1.00
C610   C     0.29017   0.13094   0.75136   0.00000  Uiso   1.00
C611   C     0.14086   0.21655   0.54851   0.00000  Uiso   1.00
C612   C     0.09600   0.37077   0.84452   0.00000  Uiso   1.00
C613   C     0.25335   0.00692   0.83905   0.00000  Uiso   1.00
C614   C     0.10563   0.49135   0.84440   0.00000  Uiso   1.00
C615   C     0.13499   0.13737   0.61787   0.00000  Uiso   1.00
C616   C     0.25799   0.33251   0.88303   0.00000  Uiso   1.00
C617   C     0.28438   0.31450   0.62006   0.00000  Uiso   1.00
C618   C     0.03903   0.18715   0.87984   0.00000  Uiso   1.00
C619   C     0.21018   0.26537   0.95297   0.00000  Uiso   1.00
C620   C     0.14057   0.21651   0.59803   0.00000  Uiso   1.00
C621   C     0.20926   0.26677   0.90345   0.00000  Uiso   1.00
C622   C     0.19487   0.28270   0.60485   0.00000  Uiso   1.00
C623   C     0.12323   0.23351   0.89236   0.00000  Uiso   1.00
C624   C     0.18927   0.28639   0.55497   0.00000  Uiso   1.00
F625   F     0.32174   0.22859   0.68997   0.00000  Uiso   1.00
F626   F     0.07422   0.23265   0.95881   0.00000  Uiso   1.00
F627   F     0.01154   0.27275   0.80980   0.00000  Uiso   1.00
F628   F     0.07263   0.02526   0.71392   0.00000  Uiso   1.00
F629   F     0.22582   0.47968   0.70067   0.00000  Uiso   1.00
F630   F     0.07607   0.11618   0.71520   0.00000  Uiso   1.00
F631   F     0.23132   0.38970   0.70200   0.00000  Uiso   1.00
F632   F     0.11740   0.18166   0.52251   0.00000  Uiso   1.00
F633   F     0.25563   0.27627   0.98125   0.00000  Uiso   1.00
F634   F     0.20717   0.32414   0.53496   0.00000  Uiso   1.00
H635   H     0.27885   0.10616   0.81733   0.00000  Uiso   1.00
H636   H     0.28989   0.48877   0.85034   0.00000  Uiso   1.00
H637   H     0.21967   0.48323   0.84123   0.00000  Uiso   1.00
H638   H     0.25166   0.03556   0.86337   0.00000  Uiso   1.00
H639   H     0.05032   0.45530   0.79849   0.00000  Uiso   1.00
H640   H     0.07302   0.00614   0.86004   0.00000  Uiso   1.00
H641   H     0.13538   0.01846   0.84115   0.00000  Uiso   1.00
H642   H     0.12318   0.46501   0.86852   0.00000  Uiso   1.00
H643   H     0.09632   0.18870   0.64739   0.00000  Uiso   1.00
H644   H     0.10933   0.11231   0.63308   0.00000  Uiso   1.00
H645   H     0.17453   0.13802   0.63904   0.00000  Uiso   1.00
H646   H     0.30417   0.10035   0.73581   0.00000  Uiso   1.00
H647   H     0.13856   0.12617   0.58165   0.00000  Uiso   1.00
H648   H     0.28837   0.27071   0.90022   0.00000  Uiso   1.00
H649   H     0.26535   0.34652   0.91934   0.00000  Uiso   1.00
H650   H     0.22157   0.34636   0.86415   0.00000  Uiso   1.00
H651   H     0.29111   0.34301   0.86396   0.00000  Uiso   1.00
H652   H     0.23267   0.30965   0.66767   0.00000  Uiso   1.00
H653   H     0.29877   0.28019   0.61654   0.00000  Uiso   1.00
H654   H     0.31118   0.33239   0.64824   0.00000  Uiso   1.00
H655   H     0.28622   0.33336   0.58689   0.00000  Uiso   1.00
H656   H     0.09818   0.18930   0.83812   0.00000  Uiso   1.00
H657   H     0.32475   0.15157   0.76716   0.00000  Uiso   1.00
H658   H     0.05266   0.16311   0.90830   0.00000  Uiso   1.00
H659   H     0.01488   0.16818   0.85092   0.00000  Uiso   1.00
H660   H     0.01343   0.21232   0.89218   0.00000  Uiso   1.00
H661   H     0.26785   0.15077   0.72293   0.00000  Uiso   1.00
H662   H     0.04822   0.38087   0.78005   0.00000  Uiso   1.00
H663   H     0.06848   0.39117   0.86133   0.00000  Uiso   1.00
H664   H     0.13689   0.38076   0.85941   0.00000  Uiso   1.00
H665   H     0.08909   0.33499   0.85319   0.00000  Uiso   1.00
H666   H     0.28875   0.03686   0.78536   0.00000  Uiso   1.00
N667   N     0.16667   0.24999   0.62623   0.00000  Uiso   1.00
N668   N     0.08330   0.20906   0.86201   0.00000  Uiso   1.00
N669   N     0.16667   0.25001   0.87376   0.00000  Uiso   1.00
N670   N     0.25778   0.11901   0.78729   0.00000  Uiso   1.00
N671   N     0.08685   0.37643   0.79379   0.00000  Uiso   1.00
N672   N     0.25316   0.02278   0.79123   0.00000  Uiso   1.00
N673   N     0.08568   0.47252   0.79865   0.00000  Uiso   1.00
N674   N     0.11216   0.18112   0.61756   0.00000  Uiso   1.00
N675   N     0.25389   0.28413   0.88460   0.00000  Uiso   1.00
N676   N     0.23148   0.31257   0.63217   0.00000  Uiso   1.00
O677   O     0.16667   0.18454   0.78974   0.00000  Uiso   1.00
O678   O     0.16666   0.31547   0.71026   0.00000  Uiso   1.00
O679   O     0.16667   0.18453   0.71026   0.00000  Uiso   1.00
O680   O     0.16666   0.31547   0.78974   0.00000  Uiso   1.00
O681   O     0.09058   0.25000   0.78044   0.00000  Uiso   1.00
O682   O     0.24275   0.25000   0.71955   0.00000  Uiso   1.00
O683   O     0.09058   0.25000   0.70096   0.00000  Uiso   1.00
O684   O     0.24275   0.25001   0.79903   0.00000  Uiso   1.00
Zn685  Zn    0.16667   0.25001   0.80307   0.00000  Uiso   1.00
Zn686  Zn    0.16667   0.25000   0.69693   0.00000  Uiso   1.00
C687   C     0.49992   0.16424   0.75013   0.00000  Uiso   1.00
C688   C     0.45358   0.23915   0.94141   0.00000  Uiso   1.00
C689   C     0.49784   0.25211   0.52596   0.00000  Uiso   1.00
C690   C     0.49820   0.25267   0.97282   0.00000  Uiso   1.00
C691   C     0.40063   0.24976   0.73787   0.00000  Uiso   1.00
C692   C     0.59938   0.25068   0.76212   0.00000  Uiso   1.00
C693   C     0.34594   0.24577   0.73180   0.00000  Uiso   1.00
C694   C     0.65405   0.25537   0.76806   0.00000  Uiso   1.00
C695   C     0.45054   0.04749   0.73352   0.00000  Uiso   1.00
C696   C     0.52681   0.45516   0.72539   0.00000  Uiso   1.00
C697   C     0.45270   0.09363   0.73291   0.00000  Uiso   1.00
C698   C     0.49890   0.33590   0.74983   0.00000  Uiso   1.00
C699   C     0.52876   0.40924   0.72509   0.00000  Uiso   1.00
C700   C     0.49926   0.11653   0.75058   0.00000  Uiso   1.00
C701   C     0.49505   0.38371   0.74956   0.00000  Uiso   1.00
C702   C     0.54415   0.09411   0.77013   0.00000  Uiso   1.00
C703   C     0.45766   0.40380   0.77351   0.00000  Uiso   1.00
C704   C     0.54157   0.04721   0.77251   0.00000  Uiso   1.00
C705   C     0.45652   0.45074   0.77503   0.00000  Uiso   1.00
C706   C     0.49453   0.02434   0.75336   0.00000  Uiso   1.00
C707   C     0.49229   0.47594   0.75141   0.00000  Uiso   1.00
C708   C     0.62350   0.13094   0.75136   0.00000  Uiso   1.00
C709   C     0.47420   0.21655   0.54851   0.00000  Uiso   1.00
C710   C     0.42934   0.37077   0.84452   0.00000  Uiso   1.00
C711   C     0.58668   0.00692   0.83905   0.00000  Uiso   1.00
C712   C     0.43896   0.49135   0.84440   0.00000  Uiso   1.00
C713   C     0.46832   0.13737   0.61787   0.00000  Uiso   1.00
C714   C     0.59133   0.33251   0.88303   0.00000  Uiso   1.00
C715   C     0.61772   0.31450   0.62006   0.00000  Uiso   1.00
C716   C     0.37237   0.18715   0.87984   0.00000  Uiso   1.00
C717   C     0.54352   0.26537   0.95297   0.00000  Uiso   1.00
C718   C     0.47391   0.21651   0.59803   0.00000  Uiso   1.00
C719   C     0.54259   0.26677   0.90345   0.00000  Uiso   1.00
C720   C     0.52821   0.28270   0.60485   0.00000  Uiso   1.00
C721   C     0.45656   0.23351   0.89236   0.00000  Uiso   1.00
C722   C     0.52260   0.28639   0.55497   0.00000  Uiso   1.00
F723   F     0.65508   0.22859   0.68997   0.00000  Uiso   1.00
F724   F     0.40755   0.23265   0.95881   0.00000  Uiso   1.00
F725   F     0.34488   0.27275   0.80980   0.00000  Uiso   1.00
F726   F     0.40597   0.02526   0.71392   0.00000  Uiso   1.00
F727   F     0.55915   0.47968   0.70067   0.00000  Uiso   1.00
F728   F     0.40940   0.11618   0.71520   0.00000  Uiso   1.00
F729   F     0.56465   0.38970   0.70200   0.00000  Uiso   1.00
F730   F     0.45073   0.18166   0.52251   0.00000  Uiso   1.00
F731   F     0.58897   0.27627   0.98125   0.00000  Uiso   1.00
F732   F     0.54051   0.32414   0.53496   0.00000  Uiso   1.00
H733   H     0.61218   0.10616   0.81733   0.00000  Uiso   1.00
H734   H     0.62322   0.48877   0.85034   0.00000  Uiso   1.00
H735   H     0.55301   0.48323   0.84123   0.00000  Uiso   1.00
H736   H     0.58500   0.03556   0.86337   0.00000  Uiso   1.00
H737   H     0.38365   0.45530   0.79849   0.00000  Uiso   1.00
H738   H     0.40636   0.00614   0.86004   0.00000  Uiso   1.00
H739   H     0.46871   0.01846   0.84115   0.00000  Uiso   1.00
H740   H     0.45651   0.46501   0.86852   0.00000  Uiso   1.00
H741   H     0.42965   0.18870   0.64739   0.00000  Uiso   1.00
H742   H     0.44266   0.11231   0.63308   0.00000  Uiso   1.00
H743   H     0.50786   0.13802   0.63904   0.00000  Uiso   1.00
H744   H     0.63751   0.10035   0.73581   0.00000  Uiso   1.00
H745   H     0.47190   0.12617   0.58165   0.00000  Uiso   1.00
H746   H     0.62170   0.27071   0.90022   0.00000  Uiso   1.00
H747   H     0.59869   0.34652   0.91934   0.00000  Uiso   1.00
H748   H     0.55490   0.34636   0.86415   0.00000  Uiso   1.00
H749   H     0.62444   0.34301   0.86396   0.00000  Uiso   1.00
H750   H     0.56601   0.30965   0.66767   0.00000  Uiso   1.00
H751   H     0.63211   0.28019   0.61654   0.00000  Uiso   1.00
H752   H     0.64451   0.33239   0.64824   0.00000  Uiso   1.00
H753   H     0.61956   0.33336   0.58689   0.00000  Uiso   1.00
H754   H     0.43151   0.18930   0.83812   0.00000  Uiso   1.00
H755   H     0.65808   0.15157   0.76716   0.00000  Uiso   1.00
H756   H     0.38599   0.16311   0.90830   0.00000  Uiso   1.00
H757   H     0.34822   0.16818   0.85092   0.00000  Uiso   1.00
H758   H     0.34677   0.21232   0.89218   0.00000  Uiso   1.00
H759   H     0.60118   0.15077   0.72293   0.00000  Uiso   1.00
H760   H     0.38155   0.38087   0.78005   0.00000  Uiso   1.00
H761   H     0.40181   0.39117   0.86133   0.00000  Uiso   1.00
H762   H     0.47022   0.38076   0.85941   0.00000  Uiso   1.00
H763   H     0.42242   0.33499   0.85319   0.00000  Uiso   1.00
H764   H     0.62208   0.03686   0.78536   0.00000  Uiso   1.00
N765   N     0.50000   0.24999   0.62623   0.00000  Uiso   1.00
N766   N     0.41663   0.20906   0.86201   0.00000  Uiso   1.00
N767   N     0.50000   0.25001   0.87376   0.00000  Uiso   1.00
N768   N     0.59112   0.11901   0.78729   0.00000  Uiso   1.00
N769   N     0.42019   0.37643   0.79379   0.00000  Uiso   1.00
N770   N     0.58649   0.02278   0.79123   0.00000  Uiso   1.00
N771   N     0.41901   0.47252   0.79865   0.00000  Uiso   1.00
N772   N     0.44549   0.18112   0.61756   0.00000  Uiso   1.00
N773   N     0.58722   0.28413   0.88460   0.00000  Uiso   1.00
N774   N     0.56481   0.31257   0.63217   0.00000  Uiso   1.00
O775   O     0.50000   0.18454   0.78974   0.00000  Uiso   1.00
O776   O     0.50000   0.31547   0.71026   0.00000  Uiso   1.00
O777   O     0.50000   0.18453   0.71026   0.00000  Uiso   1.00
O778   O     0.50000   0.31547   0.78974   0.00000  Uiso   1.00
O779   O     0.42392   0.25000   0.78044   0.00000  Uiso   1.00
O780   O     0.57608   0.25000   0.71955   0.00000  Uiso   1.00
O781   O     0.42392   0.25000   0.70096   0.00000  Uiso   1.00
O782   O     0.57608   0.25001   0.79903   0.00000  Uiso   1.00
Zn783  Zn    0.50000   0.25001   0.80307   0.00000  Uiso   1.00
Zn784  Zn    0.50000   0.25000   0.69693   0.00000  Uiso   1.00
C785   C     0.83325   0.16424   0.75013   0.00000  Uiso   1.00
C786   C     0.78691   0.23915   0.94141   0.00000  Uiso   1.00
C787   C     0.83118   0.25211   0.52596   0.00000  Uiso   1.00
C788   C     0.83153   0.25267   0.97282   0.00000  Uiso   1.00
C789   C     0.73397   0.24976   0.73787   0.00000  Uiso   1.00
C790   C     0.93271   0.25068   0.76212   0.00000  Uiso   1.00
C791   C     0.67927   0.24577   0.73180   0.00000  Uiso   1.00
C792   C     0.98738   0.25537   0.76806   0.00000  Uiso   1.00
C793   C     0.78387   0.04749   0.73352   0.00000  Uiso   1.00
C794   C     0.86014   0.45516   0.72539   0.00000  Uiso   1.00
C795   C     0.78603   0.09363   0.73291   0.00000  Uiso   1.00
C796   C     0.83223   0.33590   0.74983   0.00000  Uiso   1.00
C797   C     0.86210   0.40924   0.72509   0.00000  Uiso   1.00
C798   C     0.83259   0.11653   0.75058   0.00000  Uiso   1.00
C799   C     0.82839   0.38371   0.74956   0.00000  Uiso   1.00
C800   C     0.87749   0.09411   0.77013   0.00000  Uiso   1.00
C801   C     0.79100   0.40380   0.77351   0.00000  Uiso   1.00
C802   C     0.87491   0.04721   0.77251   0.00000  Uiso   1.00
C803   C     0.78986   0.45074   0.77503   0.00000  Uiso   1.00
C804   C     0.82786   0.02434   0.75336   0.00000  Uiso   1.00
C805   C     0.82563   0.47594   0.75141   0.00000  Uiso   1.00
C806   C     0.95684   0.13094   0.75136   0.00000  Uiso   1.00
C807   C     0.80753   0.21655   0.54851   0.00000  Uiso   1.00
C808   C     0.76267   0.37077   0.84452   0.00000  Uiso   1.00
C809   C     0.92002   0.00692   0.83905   0.00000  Uiso   1.00
C810   C     0.77230   0.49135   0.84440   0.00000  Uiso   1.00
C811   C     0.80165   0.13737   0.61787   0.00000  Uiso   1.00
C812   C     0.92466   0.33251   0.88303   0.00000  Uiso   1.00
C813   C     0.95105   0.31450   0.62006   0.00000  Uiso   1.00
C814   C     0.70570   0.18715   0.87984   0.00000  Uiso   1.00
C815   C     0.87685   0.26537   0.95297   0.00000  Uiso   1.00
C816   C     0.80724   0.21651   0.59803   0.00000  Uiso   1.00
C817   C     0.87593   0.26677   0.90345   0.00000  Uiso   1.00
C818   C     0.86154   0.28270   0.60485   0.00000  Uiso   1.00
C819   C     0.78989   0.23351   0.89236   0.00000  Uiso   1.00
C820   C     0.85594   0.28639   0.55497   0.00000  Uiso   1.00
F821   F     0.98841   0.22859   0.68997   0.00000  Uiso   1.00
F822   F     0.74088   0.23265   0.95881   0.00000  Uiso   1.00
F823   F     0.67821   0.27275   0.80980   0.00000  Uiso   1.00
F824   F     0.73930   0.02526   0.71392   0.00000  Uiso   1.00
F825   F     0.89249   0.47968   0.70067   0.00000  Uiso   1.00
F826   F     0.74274   0.11618   0.71520   0.00000  Uiso   1.00
F827   F     0.89798   0.38970   0.70200   0.00000  Uiso   1.00
F828   F     0.78407   0.18166   0.52251   0.00000  Uiso   1.00
F829   F     0.92230   0.27627   0.98125   0.00000  Uiso   1.00
F830   F     0.87384   0.32414   0.53496   0.00000  Uiso   1.00
H831   H     0.94551   0.10616   0.81733   0.00000  Uiso   1.00
H832   H     0.95655   0.48877   0.85034   0.00000  Uiso   1.00
H833   H     0.88634   0.48323   0.84123   0.00000  Uiso   1.00
H834   H     0.91833   0.03556   0.86337   0.00000  Uiso   1.00
H835   H     0.71698   0.45530   0.79849   0.00000  Uiso   1.00
H836   H     0.73969   0.00614   0.86004   0.00000  Uiso   1.00
H837   H     0.80205   0.01846   0.84115   0.00000  Uiso   1.00
H838   H     0.78985   0.46501   0.86852   0.00000  Uiso   1.00
H839   H     0.76298   0.18870   0.64739   0.00000  Uiso   1.00
H840   H     0.77599   0.11231   0.63308   0.00000  Uiso   1.00
H841   H     0.84119   0.13802   0.63904   0.00000  Uiso   1.00
H842   H     0.97084   0.10035   0.73581   0.00000  Uiso   1.00
H843   H     0.80523   0.12617   0.58165   0.00000  Uiso   1.00
H844   H     0.95504   0.27071   0.90022   0.00000  Uiso   1.00
H845   H     0.93202   0.34652   0.91934   0.00000  Uiso   1.00
H846   H     0.88824   0.34636   0.86415   0.00000  Uiso   1.00
H847   H     0.95778   0.34301   0.86396   0.00000  Uiso   1.00
H848   H     0.89934   0.30965   0.66767   0.00000  Uiso   1.00
H849   H     0.96544   0.28019   0.61654   0.00000  Uiso   1.00
H850   H     0.97785   0.33239   0.64824   0.00000  Uiso   1.00
H851   H     0.95289   0.33336   0.58689   0.00000  Uiso   1.00
H852   H     0.76485   0.18930   0.83812   0.00000  Uiso   1.00
H853   H     0.99142   0.15157   0.76716   0.00000  Uiso   1.00
H854   H     0.71932   0.16311   0.90830   0.00000  Uiso   1.00
H855   H     0.68155   0.16818   0.85092   0.00000  Uiso   1.00
H856   H     0.68010   0.21232   0.89218   0.00000  Uiso   1.00
H857   H     0.93452   0.15077   0.72293   0.00000  Uiso   1.00
H858   H     0.71489   0.38087   0.78005   0.00000  Uiso   1.00
H859   H     0.73514   0.39117   0.86133   0.00000  Uiso   1.00
H860   H     0.80356   0.38076   0.85941   0.00000  Uiso   1.00
H861   H     0.75575   0.33499   0.85319   0.00000  Uiso   1.00
H862   H     0.95542   0.03686   0.78536   0.00000  Uiso   1.00
N863   N     0.83333   0.24999   0.62623   0.00000  Uiso   1.00
N864   N     0.74997   0.20906   0.86201   0.00000  Uiso   1.00
N865   N     0.83333   0.25001   0.87376   0.00000  Uiso   1.00
N866   N     0.92445   0.11901   0.78729   0.00000  Uiso   1.00
N867   N     0.75352   0.37643   0.79379   0.00000  Uiso   1.00
N868   N     0.91982   0.02278   0.79123   0.00000  Uiso   1.00
N869   N     0.75235   0.47252   0.79865   0.00000  Uiso   1.00
N870   N     0.77882   0.18112   0.61756   0.00000  Uiso   1.00
N871   N     0.92056   0.28413   0.88460   0.00000  Uiso   1.00
N872   N     0.89815   0.31257   0.63217   0.00000  Uiso   1.00
O873   O     0.83334   0.18454   0.78974   0.00000  Uiso   1.00
O874   O     0.83333   0.31547   0.71026   0.00000  Uiso   1.00
O875   O     0.83334   0.18453   0.71026   0.00000  Uiso   1.00
O876   O     0.83333   0.31547   0.78974   0.00000  Uiso   1.00
O877   O     0.75725   0.25000   0.78044   0.00000  Uiso   1.00
O878   O     0.90942   0.25000   0.71955   0.00000  Uiso   1.00
O879   O     0.75725   0.25000   0.70096   0.00000  Uiso   1.00
O880   O     0.90942   0.25001   0.79903   0.00000  Uiso   1.00
Zn881  Zn    0.83333   0.25001   0.80307   0.00000  Uiso   1.00
Zn882  Zn    0.83333   0.25000   0.69693   0.00000  Uiso   1.00
C883   C     0.16658   0.66424   0.75013   0.00000  Uiso   1.00
C884   C     0.12025   0.73915   0.94141   0.00000  Uiso   1.00
C885   C     0.16451   0.75211   0.52596   0.00000  Uiso   1.00
C886   C     0.16487   0.75267   0.97282   0.00000  Uiso   1.00
C887   C     0.06730   0.74976   0.73787   0.00000  Uiso   1.00
C888   C     0.26604   0.75068   0.76212   0.00000  Uiso   1.00
C889   C     0.01261   0.74577   0.73180   0.00000  Uiso   1.00
C890   C     0.32072   0.75537   0.76806   0.00000  Uiso   1.00
C891   C     0.11720   0.54749   0.73352   0.00000  Uiso   1.00
C892   C     0.19348   0.95516   0.72539   0.00000  Uiso   1.00
C893   C     0.11936   0.59363   0.73291   0.00000  Uiso   1.00
C894   C     0.16557   0.83590   0.74983   0.00000  Uiso   1.00
C895   C     0.19543   0.90924   0.72509   0.00000  Uiso   1.00
C896   C     0.16593   0.61653   0.75058   0.00000  Uiso   1.00
C897   C     0.16172   0.88371   0.74956   0.00000  Uiso   1.00
C898   C     0.21082   0.59411   0.77013   0.00000  Uiso   1.00
C899   C     0.12433   0.90380   0.77351   0.00000  Uiso   1.00
C900   C     0.20824   0.54721   0.77251   0.00000  Uiso   1.00
C901   C     0.12319   0.95074   0.77503   0.00000  Uiso   1.00
C902   C     0.16120   0.52434   0.75336   0.00000  Uiso   1.00
C903   C     0.15896   0.97594   0.75141   0.00000  Uiso   1.00
C904   C     0.29017   0.63094   0.75136   0.00000  Uiso   1.00
C905   C     0.14086   0.71655   0.54851   0.00000  Uiso   1.00
C906   C     0.09600   0.87077   0.84452   0.00000  Uiso   1.00
C907   C     0.25335   0.50692   0.83905   0.00000  Uiso   1.00
C908   C     0.10563   0.99135   0.84440   0.00000  Uiso   1.00
C909   C     0.13499   0.63737   0.61787   0.00000  Uiso   1.00
C910   C     0.25799   0.83251   0.88303   0.00000  Uiso   1.00
C911   C     0.28438   0.81450   0.62006   0.00000  Uiso   1.00
C912   C     0.03903   0.68715   0.87984   0.00000  Uiso   1.00
C913   C     0.21018   0.76537   0.95297   0.00000  Uiso   1.00
C914   C     0.14057   0.71651   0.59803   0.00000  Uiso   1.00
C915   C     0.20926   0.76677   0.90345   0.00000  Uiso   1.00
C916   C     0.19487   0.78270   0.60485   0.00000  Uiso   1.00
C917   C     0.12323   0.73351   0.89236   0.00000  Uiso   1.00
C918   C     0.18927   0.78639   0.55497   0.00000  Uiso   1.00
F919   F     0.32174   0.72859   0.68997   0.00000  Uiso   1.00
F920   F     0.07422   0.73265   0.95881   0.00000  Uiso   1.00
F921   F     0.01154   0.77275   0.80980   0.00000  Uiso   1.00
F922   F     0.07263   0.52526   0.71392   0.00000  Uiso   1.00
F923   F     0.22582   0.97968   0.70067   0.00000  Uiso   1.00
F924   F     0.07607   0.61618   0.71520   0.00000  Uiso   1.00
F925   F     0.23132   0.88970   0.70200   0.00000  Uiso   1.00
F926   F     0.11740   0.68166   0.52251   0.00000  Uiso   1.00
F927   F     0.25563   0.77627   0.98125   0.00000  Uiso   1.00
F928   F     0.20717   0.82414   0.53496   0.00000  Uiso   1.00
H929   H     0.27885   0.60616   0.81733   0.00000  Uiso   1.00
H930   H     0.28989   0.98877   0.85034   0.00000  Uiso   1.00
H931   H     0.21967   0.98323   0.84123   0.00000  Uiso   1.00
H932   H     0.25166   0.53556   0.86337   0.00000  Uiso   1.00
H933   H     0.05032   0.95530   0.79849   0.00000  Uiso   1.00
H934   H     0.07302   0.50614   0.86004   0.00000  Uiso   1.00
H935   H     0.13538   0.51846   0.84115   0.00000  Uiso   1.00
H936   H     0.12318   0.96501   0.86852   0.00000  Uiso   1.00
H937   H     0.09632   0.68870   0.64739   0.00000  Uiso   1.00
H938   H     0.10933   0.61231   0.63308   0.00000  Uiso   1.00
H939   H     0.17453   0.63802   0.63904   0.00000  Uiso   1.00
H940   H     0.30417   0.60035   0.73581   0.00000  Uiso   1.00
H941   H     0.13856   0.62617   0.58165   0.00000  Uiso   1.00
H942   H     0.28837   0.77071   0.90022   0.00000  Uiso   1.00
H943   H     0.26535   0.84652   0.91934   0.00000  Uiso   1.00
H944   H     0.22157   0.84636   0.86415   0.00000  Uiso   1.00
H945   H     0.29111   0.84301   0.86396   0.00000  Uiso   1.00
H946   H     0.23267   0.80965   0.66767   0.00000  Uiso   1.00
H947   H     0.29877   0.78019   0.61654   0.00000  Uiso   1.00
H948   H     0.31118   0.83239   0.64824   0.00000  Uiso   1.00
H949   H     0.28622   0.83336   0.58689   0.00000  Uiso   1.00
H950   H     0.09818   0.68930   0.83812   0.00000  Uiso   1.00
H951   H     0.32475   0.65157   0.76716   0.00000  Uiso   1.00
H952   H     0.05266   0.66311   0.90830   0.00000  Uiso   1.00
H953   H     0.01488   0.66818   0.85092   0.00000  Uiso   1.00
H954   H     0.01343   0.71232   0.89218   0.00000  Uiso   1.00
H955   H     0.26785   0.65077   0.72293   0.00000  Uiso   1.00
H956   H     0.04822   0.88087   0.78005   0.00000  Uiso   1.00
H957   H     0.06848   0.89117   0.86133   0.00000  Uiso   1.00
H958   H     0.13689   0.88076   0.85941   0.00000  Uiso   1.00
H959   H     0.08909   0.83499   0.85319   0.00000  Uiso   1.00
H960   H     0.28875   0.53686   0.78536   0.00000  Uiso   1.00
N961   N     0.16667   0.74999   0.62623   0.00000  Uiso   1.00
N962   N     0.08330   0.70906   0.86201   0.00000  Uiso   1.00
N963   N     0.16667   0.75001   0.87376   0.00000  Uiso   1.00
N964   N     0.25778   0.61901   0.78729   0.00000  Uiso   1.00
N965   N     0.08685   0.87643   0.79379   0.00000  Uiso   1.00
N966   N     0.25316   0.52278   0.79123   0.00000  Uiso   1.00
N967   N     0.08568   0.97252   0.79865   0.00000  Uiso   1.00
N968   N     0.11216   0.68112   0.61756   0.00000  Uiso   1.00
N969   N     0.25389   0.78413   0.88460   0.00000  Uiso   1.00
N970   N     0.23148   0.81257   0.63217   0.00000  Uiso   1.00
O971   O     0.16667   0.68454   0.78974   0.00000  Uiso   1.00
O972   O     0.16666   0.81547   0.71026   0.00000  Uiso   1.00
O973   O     0.16667   0.68453   0.71026   0.00000  Uiso   1.00
O974   O     0.16666   0.81547   0.78974   0.00000  Uiso   1.00
O975   O     0.09058   0.75000   0.78044   0.00000  Uiso   1.00
O976   O     0.24275   0.75000   0.71955   0.00000  Uiso   1.00
O977   O     0.09058   0.75000   0.70096   0.00000  Uiso   1.00
O978   O     0.24275   0.75001   0.79903   0.00000  Uiso   1.00
Zn979  Zn    0.16667   0.75001   0.80307   0.00000  Uiso   1.00
Zn980  Zn    0.16667   0.75000   0.69693   0.00000  Uiso   1.00
C981   C     0.49992   0.66424   0.75013   0.00000  Uiso   1.00
C982   C     0.45358   0.73915   0.94141   0.00000  Uiso   1.00
C983   C     0.49784   0.75211   0.52596   0.00000  Uiso   1.00
C984   C     0.49820   0.75267   0.97282   0.00000  Uiso   1.00
C985   C     0.40063   0.74976   0.73787   0.00000  Uiso   1.00
C986   C     0.59938   0.75068   0.76212   0.00000  Uiso   1.00
C987   C     0.34594   0.74577   0.73180   0.00000  Uiso   1.00
C988   C     0.65405   0.75537   0.76806   0.00000  Uiso   1.00
C989   C     0.45054   0.54749   0.73352   0.00000  Uiso   1.00
C990   C     0.52681   0.95516   0.72539   0.00000  Uiso   1.00
C991   C     0.45270   0.59363   0.73291   0.00000  Uiso   1.00
C992   C     0.49890   0.83590   0.74983   0.00000  Uiso   1.00
C993   C     0.52876   0.90924   0.72509   0.00000  Uiso   1.00
C994   C     0.49926   0.61653   0.75058   0.00000  Uiso   1.00
C995   C     0.49505   0.88371   0.74956   0.00000  Uiso   1.00
C996   C     0.54415   0.59411   0.77013   0.00000  Uiso   1.00
C997   C     0.45766   0.90380   0.77351   0.00000  Uiso   1.00
C998   C     0.54157   0.54721   0.77251   0.00000  Uiso   1.00
C999   C     0.45652   0.95074   0.77503   0.00000  Uiso   1.00
C1000  C     0.49453   0.52434   0.75336   0.00000  Uiso   1.00
C1001  C     0.49229   0.97594   0.75141   0.00000  Uiso   1.00
C1002  C     0.62350   0.63094   0.75136   0.00000  Uiso   1.00
C1003  C     0.47420   0.71655   0.54851   0.00000  Uiso   1.00
C1004  C     0.42934   0.87077   0.84452   0.00000  Uiso   1.00
C1005  C     0.58668   0.50692   0.83905   0.00000  Uiso   1.00
C1006  C     0.43896   0.99135   0.84440   0.00000  Uiso   1.00
C1007  C     0.46832   0.63737   0.61787   0.00000  Uiso   1.00
C1008  C     0.59133   0.83251   0.88303   0.00000  Uiso   1.00
C1009  C     0.61772   0.81450   0.62006   0.00000  Uiso   1.00
C1010  C     0.37237   0.68715   0.87984   0.00000  Uiso   1.00
C1011  C     0.54352   0.76537   0.95297   0.00000  Uiso   1.00
C1012  C     0.47391   0.71651   0.59803   0.00000  Uiso   1.00
C1013  C     0.54259   0.76677   0.90345   0.00000  Uiso   1.00
C1014  C     0.52821   0.78270   0.60485   0.00000  Uiso   1.00
C1015  C     0.45656   0.73351   0.89236   0.00000  Uiso   1.00
C1016  C     0.52260   0.78639   0.55497   0.00000  Uiso   1.00
F1017  F     0.65508   0.72859   0.68997   0.00000  Uiso   1.00
F1018  F     0.40755   0.73265   0.95881   0.00000  Uiso   1.00
F1019  F     0.34488   0.77275   0.80980   0.00000  Uiso   1.00
F1020  F     0.40597   0.52526   0.71392   0.00000  Uiso   1.00
F1021  F     0.55915   0.97968   0.70067   0.00000  Uiso   1.00
F1022  F     0.40940   0.61618   0.71520   0.00000  Uiso   1.00
F1023  F     0.56465   0.88970   0.70200   0.00000  Uiso   1.00
F1024  F     0.45073   0.68166   0.52251   0.00000  Uiso   1.00
F1025  F     0.58897   0.77627   0.98125   0.00000  Uiso   1.00
F1026  F     0.54051   0.82414   0.53496   0.00000  Uiso   1.00
H1027  H     0.61218   0.60616   0.81733   0.00000  Uiso   1.00
H1028  H     0.62322   0.98877   0.85034   0.00000  Uiso   1.00
H1029  H     0.55301   0.98323   0.84123   0.00000  Uiso   1.00
H1030  H     0.58500   0.53556   0.86337   0.00000  Uiso   1.00
H1031  H     0.38365   0.95530   0.79849   0.00000  Uiso   1.00
H1032  H     0.40636   0.50614   0.86004   0.00000  Uiso   1.00
H1033  H     0.46871   0.51846   0.84115   0.00000  Uiso   1.00
H1034  H     0.45651   0.96501   0.86852   0.00000  Uiso   1.00
H1035  H     0.42965   0.68870   0.64739   0.00000  Uiso   1.00
H1036  H     0.44266   0.61231   0.63308   0.00000  Uiso   1.00
H1037  H     0.50786   0.63802   0.63904   0.00000  Uiso   1.00
H1038  H     0.63751   0.60035   0.73581   0.00000  Uiso   1.00
H1039  H     0.47190   0.62617   0.58165   0.00000  Uiso   1.00
H1040  H     0.62170   0.77071   0.90022   0.00000  Uiso   1.00
H1041  H     0.59869   0.84652   0.91934   0.00000  Uiso   1.00
H1042  H     0.55490   0.84636   0.86415   0.00000  Uiso   1.00
H1043  H     0.62444   0.84301   0.86396   0.00000  Uiso   1.00
H1044  H     0.56601   0.80965   0.66767   0.00000  Uiso   1.00
H1045  H     0.63211   0.78019   0.61654   0.00000  Uiso   1.00
H1046  H     0.64451   0.83239   0.64824   0.00000  Uiso   1.00
H1047  H     0.61956   0.83336   0.58689   0.00000  Uiso   1.00
H1048  H     0.43151   0.68930   0.83812   0.00000  Uiso   1.00
H1049  H     0.65808   0.65157   0.76716   0.00000  Uiso   1.00
H1050  H     0.38599   0.66311   0.90830   0.00000  Uiso   1.00
H1051  H     0.34822   0.66818   0.85092   0.00000  Uiso   1.00
H1052  H     0.34677   0.71232   0.89218   0.00000  Uiso   1.00
H1053  H     0.60118   0.65077   0.72293   0.00000  Uiso   1.00
H1054  H     0.38155   0.88087   0.78005   0.00000  Uiso   1.00
H1055  H     0.40181   0.89117   0.86133   0.00000  Uiso   1.00
H1056  H     0.47022   0.88076   0.85941   0.00000  Uiso   1.00
H1057  H     0.42242   0.83499   0.85319   0.00000  Uiso   1.00
H1058  H     0.62208   0.53686   0.78536   0.00000  Uiso   1.00
N1059  N     0.50000   0.74999   0.62623   0.00000  Uiso   1.00
N1060  N     0.41663   0.70906   0.86201   0.00000  Uiso   1.00
N1061  N     0.50000   0.75001   0.87376   0.00000  Uiso   1.00
N1062  N     0.59112   0.61901   0.78729   0.00000  Uiso   1.00
N1063  N     0.42019   0.87643   0.79379   0.00000  Uiso   1.00
N1064  N     0.58649   0.52278   0.79123   0.00000  Uiso   1.00
N1065  N     0.41901   0.97252   0.79865   0.00000  Uiso   1.00
N1066  N     0.44549   0.68112   0.61756   0.00000  Uiso   1.00
N1067  N     0.58722   0.78413   0.88460   0.00000  Uiso   1.00
N1068  N     0.56481   0.81257   0.63217   0.00000  Uiso   1.00
O1069  O     0.50000   0.68454   0.78974   0.00000  Uiso   1.00
O1070  O     0.50000   0.81547   0.71026   0.00000  Uiso   1.00
O1071  O     0.50000   0.68453   0.71026   0.00000  Uiso   1.00
O1072  O     0.50000   0.81547   0.78974   0.00000  Uiso   1.00
O1073  O     0.42392   0.75000   0.78044   0.00000  Uiso   1.00
O1074  O     0.57608   0.75000   0.71955   0.00000  Uiso   1.00
O1075  O     0.42392   0.75000   0.70096   0.00000  Uiso   1.00
O1076  O     0.57608   0.75001   0.79903   0.00000  Uiso   1.00
Zn1077 Zn    0.50000   0.75001   0.80307   0.00000  Uiso   1.00
Zn1078 Zn    0.50000   0.75000   0.69693   0.00000  Uiso   1.00
C1079  C     0.83325   0.66424   0.75013   0.00000  Uiso   1.00
C1080  C     0.78691   0.73915   0.94141   0.00000  Uiso   1.00
C1081  C     0.83118   0.75211   0.52596   0.00000  Uiso   1.00
C1082  C     0.83153   0.75267   0.97282   0.00000  Uiso   1.00
C1083  C     0.73397   0.74976   0.73787   0.00000  Uiso   1.00
C1084  C     0.93271   0.75068   0.76212   0.00000  Uiso   1.00
C1085  C     0.67927   0.74577   0.73180   0.00000  Uiso   1.00
C1086  C     0.98738   0.75537   0.76806   0.00000  Uiso   1.00
C1087  C     0.78387   0.54749   0.73352   0.00000  Uiso   1.00
C1088  C     0.86014   0.95516   0.72539   0.00000  Uiso   1.00
C1089  C     0.78603   0.59363   0.73291   0.00000  Uiso   1.00
C1090  C     0.83223   0.83590   0.74983   0.00000  Uiso   1.00
C1091  C     0.86210   0.90924   0.72509   0.00000  Uiso   1.00
C1092  C     0.83259   0.61653   0.75058   0.00000  Uiso   1.00
C1093  C     0.82839   0.88371   0.74956   0.00000  Uiso   1.00
C1094  C     0.87749   0.59411   0.77013   0.00000  Uiso   1.00
C1095  C     0.79100   0.90380   0.77351   0.00000  Uiso   1.00
C1096  C     0.87491   0.54721   0.77251   0.00000  Uiso   1.00
C1097  C     0.78986   0.95074   0.77503   0.00000  Uiso   1.00
C1098  C     0.82786   0.52434   0.75336   0.00000  Uiso   1.00
C1099  C     0.82563   0.97594   0.75141   0.00000  Uiso   1.00
C1100  C     0.95684   0.63094   0.75136   0.00000  Uiso   1.00
C1101  C     0.80753   0.71655   0.54851   0.00000  Uiso   1.00
C1102  C     0.76267   0.87077   0.84452   0.00000  Uiso   1.00
C1103  C     0.92002   0.50692   0.83905   0.00000  Uiso   1.00
C1104  C     0.77230   0.99135   0.84440   0.00000  Uiso   1.00
C1105  C     0.80165   0.63737   0.61787   0.00000  Uiso   1.00
C1106  C     0.92466   0.83251   0.88303   0.00000  Uiso   1.00
C1107  C     0.95105   0.81450   0.62006   0.00000  Uiso   1.00
C1108  C     0.70570   0.68715   0.87984   0.00000  Uiso   1.00
C1109  C     0.87685   0.76537   0.95297   0.00000  Uiso   1.00
C1110  C     0.80724   0.71651   0.59803   0.00000  Uiso   1.00
C1111  C     0.87593   0.76677   0.90345   0.00000  Uiso   1.00
C1112  C     0.86154   0.78270   0.60485   0.00000  Uiso   1.00
C1113  C     0.78989   0.73351   0.89236   0.00000  Uiso   1.00
C1114  C     0.85594   0.78639   0.55497   0.00000  Uiso   1.00
F1115  F     0.98841   0.72859   0.68997   0.00000  Uiso   1.00
F1116  F     0.74088   0.73265   0.95881   0.00000  Uiso   1.00
F1117  F     0.67821   0.77275   0.80980   0.00000  Uiso   1.00
F1118  F     0.73930   0.52526   0.71392   0.00000  Uiso   1.00
F1119  F     0.89249   0.97968   0.70067   0.00000  Uiso   1.00
F1120  F     0.74274   0.61618   0.71520   0.00000  Uiso   1.00
F1121  F     0.89798   0.88970   0.70200   0.00000  Uiso   1.00
F1122  F     0.78407   0.68166   0.52251   0.00000  Uiso   1.00
F1123  F     0.92230   0.77627   0.98125   0.00000  Uiso   1.00
F1124  F     0.87384   0.82414   0.53496   0.00000  Uiso   1.00
H1125  H     0.94551   0.60616   0.81733   0.00000  Uiso   1.00
H1126  H     0.95655   0.98877   0.85034   0.00000  Uiso   1.00
H1127  H     0.88634   0.98323   0.84123   0.00000  Uiso   1.00
H1128  H     0.91833   0.53556   0.86337   0.00000  Uiso   1.00
H1129  H     0.71698   0.95530   0.79849   0.00000  Uiso   1.00
H1130  H     0.73969   0.50614   0.86004   0.00000  Uiso   1.00
H1131  H     0.80205   0.51846   0.84115   0.00000  Uiso   1.00
H1132  H     0.78985   0.96501   0.86852   0.00000  Uiso   1.00
H1133  H     0.76298   0.68870   0.64739   0.00000  Uiso   1.00
H1134  H     0.77599   0.61231   0.63308   0.00000  Uiso   1.00
H1135  H     0.84119   0.63802   0.63904   0.00000  Uiso   1.00
H1136  H     0.97084   0.60035   0.73581   0.00000  Uiso   1.00
H1137  H     0.80523   0.62617   0.58165   0.00000  Uiso   1.00
H1138  H     0.95504   0.77071   0.90022   0.00000  Uiso   1.00
H1139  H     0.93202   0.84652   0.91934   0.00000  Uiso   1.00
H1140  H     0.88824   0.84636   0.86415   0.00000  Uiso   1.00
H1141  H     0.95778   0.84301   0.86396   0.00000  Uiso   1.00
H1142  H     0.89934   0.80965   0.66767   0.00000  Uiso   1.00
H1143  H     0.96544   0.78019   0.61654   0.00000  Uiso   1.00
H1144  H     0.97785   0.83239   0.64824   0.00000  Uiso   1.00
H1145  H     0.95289   0.83336   0.58689   0.00000  Uiso   1.00
H1146  H     0.76485   0.68930   0.83812   0.00000  Uiso   1.00
H1147  H     0.99142   0.65157   0.76716   0.00000  Uiso   1.00
H1148  H     0.71932   0.66311   0.90830   0.00000  Uiso   1.00
H1149  H     0.68155   0.66818   0.85092   0.00000  Uiso   1.00
H1150  H     0.68010   0.71232   0.89218   0.00000  Uiso   1.00
H1151  H     0.93452   0.65077   0.72293   0.00000  Uiso   1.00
H1152  H     0.71489   0.88087   0.78005   0.00000  Uiso   1.00
H1153  H     0.73514   0.89117   0.86133   0.00000  Uiso   1.00
H1154  H     0.80356   0.88076   0.85941   0.00000  Uiso   1.00
H1155  H     0.75575   0.83499   0.85319   0.00000  Uiso   1.00
H1156  H     0.95542   0.53686   0.78536   0.00000  Uiso   1.00
N1157  N     0.83333   0.74999   0.62623   0.00000  Uiso   1.00
N1158  N     0.74997   0.70906   0.86201   0.00000  Uiso   1.00
N1159  N     0.83333   0.75001   0.87376   0.00000  Uiso   1.00
N1160  N     0.92445   0.61901   0.78729   0.00000  Uiso   1.00
N1161  N     0.75352   0.87643   0.79379   0.00000  Uiso   1.00
N1162  N     0.91982   0.52278   0.79123   0.00000  Uiso   1.00
N1163  N     0.75235   0.97252   0.79865   0.00000  Uiso   1.00
N1164  N     0.77882   0.68112   0.61756   0.00000  Uiso   1.00
N1165  N     0.92056   0.78413   0.88460   0.00000  Uiso   1.00
N1166  N     0.89815   0.81257   0.63217   0.00000  Uiso   1.00
O1167  O     0.83334   0.68454   0.78974   0.00000  Uiso   1.00
O1168  O     0.83333   0.81547   0.71026   0.00000  Uiso   1.00
O1169  O     0.83334   0.68453   0.71026   0.00000  Uiso   1.00
O1170  O     0.83333   0.81547   0.78974   0.00000  Uiso   1.00
O1171  O     0.75725   0.75000   0.78044   0.00000  Uiso   1.00
O1172  O     0.90942   0.75000   0.71955   0.00000  Uiso   1.00
O1173  O     0.75725   0.75000   0.70096   0.00000  Uiso   1.00
O1174  O     0.90942   0.75001   0.79903   0.00000  Uiso   1.00
Zn1175 Zn    0.83333   0.75001   0.80307   0.00000  Uiso   1.00
Zn1176 Zn    0.83333   0.75000   0.69693   0.00000  Uiso   1.00
loop_
_geom_bond_atom_site_label_1
_geom_bond_atom_site_label_2
_geom_bond_distance
_geom_bond_site_symmetry_2
_ccdc_geom_bond_type
C1     O91     1.290   .     A
C1     O89     1.288   .     A
C1     C14     1.424   .     S
C2     C35     1.427   .     A
C2     C4      1.406   .     A
C2     F38     1.356   .     S
C3     C23     1.405   .     A
C3     C36     1.400   .     A
C3     C592    1.522   1_554 S
C4     C31     1.408   .     A
C4     C591    1.522   .     S
C5     O95     1.285   .     A
C5     C7      1.397   .     S
C5     O93     1.281   .     A
C6     O94     1.281   .     A
C6     C8      1.398   .     S
C6     O96     1.285   .     A
C7     C204    1.336   1_455 S
C7     F233    1.364   1_455 S
C8     C105    1.336   .     S
C8     F137    1.364   .     S
C9     F40     1.359   .     S
C9     C20     1.399   .     A
C9     C11     1.377   .     A
C10    F41     1.359   .     S
C10    C21     1.399   .     A
C10    C13     1.374   .     A
C11    C14     1.393   .     A
C11    F42     1.359   .     S
C12    O90     1.293   .     A
C12    C15     1.435   .     S
C12    O92     1.290   .     A
C13    C15     1.394   .     A
C13    F43     1.358   .     S
C14    C16     1.403   .     A
C15    C17     1.409   .     A
C16    N82     1.426   .     S
C16    C18     1.402   .     A
C17    N83     1.426   .     S
C17    C19     1.404   .     A
C18    N84     1.429   .     S
C18    C20     1.413   .     A
C19    C21     1.412   .     A
C19    N85     1.430   .     S
C20    C315    1.446   1_545 S
C21    C314    1.446   .     S
C22    N82     1.448   .     S
C22    H69     1.109   .     S
C22    H58     1.111   .     S
C22    H73     1.110   .     S
C23    F44     1.358   .     S
C23    C32     1.418   .     A
C24    N83     1.448   .     S
C24    H76     1.111   .     S
C24    H75     1.111   .     S
C24    H77     1.110   .     S
C25    H50     1.111   .     S
C25    N84     1.446   .     S
C25    H342    1.111   1_545 S
C25    H343    1.109   1_545 S
C26    H54     1.110   .     S
C26    N85     1.447   .     S
C26    H346    1.111   .     S
C26    H347    1.108   .     S
C27    H57     1.110   .     S
C27    H56     1.109   .     S
C27    N86     1.451   .     S
C27    H59     1.108   .     S
C28    H61     1.111   .     S
C28    N87     1.446   .     S
C28    H63     1.111   .     S
C28    H62     1.108   .     S
C29    N88     1.452   .     S
C29    H67     1.107   .     S
C29    H65     1.111   .     S
C29    H66     1.112   .     S
C30    H71     1.109   .     S
C30    H70     1.111   .     S
C30    N80     1.448   .     S
C30    H72     1.107   .     S
C31    C33     1.414   .     A
C31    F45     1.358   .     S
C32    N86     1.421   .     S
C32    N79     1.383   .     A
C33    N87     1.418   .     S
C33    N81     1.373   .     A
C34    N79     1.388   .     A
C34    N88     1.428   .     S
C34    C36     1.419   .     A
C35    N81     1.380   .     A
C35    N80     1.433   .     S
C36    F46     1.358   .     S
F37    C105    1.364   .     S
F39    C204    1.364   1_455 S
H47    N82     1.031   .     S
H48    C319    1.111   .     S
H49    C319    1.109   .     S
H51    N85     1.030   .     S
H52    C320    1.111   1_545 S
H53    C320    1.108   1_545 S
H55    N86     1.026   .     S
H60    N87     1.031   .     S
H64    N88     1.016   .     S
H68    N80     1.027   .     S
H74    N83     1.031   .     S
H78    N84     1.030   .     S
N79    Zn98    2.023   .     S
N81    Zn97    2.023   .     S
O89    Zn97    1.994   .     S
O90    Zn98    1.994   .     S
O91    Zn98    1.990   .     S
O92    Zn97    1.990   .     S
O93    Zn97    1.977   .     S
O94    Zn98    1.977   .     S
O95    Zn98    1.980   .     S
O96    Zn97    1.980   .     S
C99    O189    1.290   .     A
C99    O187    1.288   .     A
C99    C112    1.424   .     S
C100   C133    1.427   .     A
C100   C102    1.406   .     A
C100   F136    1.356   .     S
C101   C121    1.405   .     A
C101   C134    1.400   .     A
C101   C690    1.522   1_554 S
C102   C129    1.408   .     A
C102   C689    1.522   .     S
C103   O193    1.285   .     A
C103   C105    1.397   .     S
C103   O191    1.281   .     A
C104   O192    1.281   .     A
C104   C106    1.398   .     S
C104   O194    1.285   .     A
C106   C203    1.336   .     S
C106   F235    1.364   .     S
C107   F138    1.359   .     S
C107   C118    1.399   .     A
C107   C109    1.377   .     A
C108   F139    1.359   .     S
C108   C119    1.399   .     A
C108   C111    1.374   .     A
C109   C112    1.393   .     A
C109   F140    1.359   .     S
C110   O188    1.293   .     A
C110   C113    1.435   .     S
C110   O190    1.290   .     A
C111   C113    1.394   .     A
C111   F141    1.358   .     S
C112   C114    1.403   .     A
C113   C115    1.409   .     A
C114   N180    1.426   .     S
C114   C116    1.402   .     A
C115   N181    1.426   .     S
C115   C117    1.404   .     A
C116   N182    1.429   .     S
C116   C118    1.413   .     A
C117   C119    1.412   .     A
C117   N183    1.430   .     S
C118   C413    1.446   1_545 S
C119   C412    1.446   .     S
C120   N180    1.448   .     S
C120   H167    1.109   .     S
C120   H156    1.111   .     S
C120   H171    1.110   .     S
C121   F142    1.358   .     S
C121   C130    1.418   .     A
C122   N181    1.448   .     S
C122   H174    1.111   .     S
C122   H173    1.111   .     S
C122   H175    1.110   .     S
C123   H148    1.111   .     S
C123   N182    1.446   .     S
C123   H440    1.111   1_545 S
C123   H441    1.109   1_545 S
C124   H152    1.110   .     S
C124   N183    1.447   .     S
C124   H444    1.111   .     S
C124   H445    1.108   .     S
C125   H155    1.110   .     S
C125   H154    1.109   .     S
C125   N184    1.451   .     S
C125   H157    1.108   .     S
C126   H159    1.111   .     S
C126   N185    1.446   .     S
C126   H161    1.111   .     S
C126   H160    1.108   .     S
C127   N186    1.452   .     S
C127   H165    1.107   .     S
C127   H163    1.111   .     S
C127   H164    1.112   .     S
C128   H169    1.109   .     S
C128   H168    1.111   .     S
C128   N178    1.448   .     S
C128   H170    1.107   .     S
C129   C131    1.414   .     A
C129   F143    1.358   .     S
C130   N184    1.421   .     S
C130   N177    1.383   .     A
C131   N185    1.418   .     S
C131   N179    1.373   .     A
C132   N177    1.388   .     A
C132   N186    1.428   .     S
C132   C134    1.419   .     A
C133   N179    1.380   .     A
C133   N178    1.433   .     S
C134   F144    1.358   .     S
F135   C203    1.364   .     S
H145   N180    1.031   .     S
H146   C417    1.111   .     S
H147   C417    1.109   .     S
H149   N183    1.030   .     S
H150   C418    1.111   1_545 S
H151   C418    1.108   1_545 S
H153   N184    1.026   .     S
H158   N185    1.031   .     S
H162   N186    1.016   .     S
H166   N178    1.027   .     S
H172   N181    1.031   .     S
H176   N182    1.030   .     S
N177   Zn196   2.023   .     S
N179   Zn195   2.023   .     S
O187   Zn195   1.994   .     S
O188   Zn196   1.994   .     S
O189   Zn196   1.990   .     S
O190   Zn195   1.990   .     S
O191   Zn195   1.977   .     S
O192   Zn196   1.977   .     S
O193   Zn196   1.980   .     S
O194   Zn195   1.980   .     S
C197   O287    1.290   .     A
C197   O285    1.288   .     A
C197   C210    1.424   .     S
C198   C231    1.427   .     A
C198   C200    1.406   .     A
C198   F234    1.356   .     S
C199   C219    1.405   .     A
C199   C232    1.400   .     A
C199   C788    1.522   1_554 S
C200   C227    1.408   .     A
C200   C787    1.522   .     S
C201   O291    1.285   .     A
C201   C203    1.397   .     S
C201   O289    1.281   .     A
C202   O290    1.281   .     A
C202   C204    1.398   .     S
C202   O292    1.285   .     A
C204   C7      1.336   1_655 S
C204   F39     1.364   1_655 S
C205   F236    1.359   .     S
C205   C216    1.399   .     A
C205   C207    1.377   .     A
C206   F237    1.359   .     S
C206   C217    1.399   .     A
C206   C209    1.374   .     A
C207   C210    1.393   .     A
C207   F238    1.359   .     S
C208   O286    1.293   .     A
C208   C211    1.435   .     S
C208   O288    1.290   .     A
C209   C211    1.394   .     A
C209   F239    1.358   .     S
C210   C212    1.403   .     A
C211   C213    1.409   .     A
C212   N278    1.426   .     S
C212   C214    1.402   .     A
C213   N279    1.426   .     S
C213   C215    1.404   .     A
C214   N280    1.429   .     S
C214   C216    1.413   .     A
C215   C217    1.412   .     A
C215   N281    1.430   .     S
C216   C511    1.446   1_545 S
C217   C510    1.446   .     S
C218   N278    1.448   .     S
C218   H265    1.109   .     S
C218   H254    1.111   .     S
C218   H269    1.110   .     S
C219   F240    1.358   .     S
C219   C228    1.418   .     A
C220   N279    1.448   .     S
C220   H272    1.111   .     S
C220   H271    1.111   .     S
C220   H273    1.110   .     S
C221   H246    1.111   .     S
C221   N280    1.446   .     S
C221   H538    1.111   1_545 S
C221   H539    1.109   1_545 S
C222   H250    1.110   .     S
C222   N281    1.447   .     S
C222   H542    1.111   .     S
C222   H543    1.108   .     S
C223   H253    1.110   .     S
C223   H252    1.109   .     S
C223   N282    1.451   .     S
C223   H255    1.108   .     S
C224   H257    1.111   .     S
C224   N283    1.446   .     S
C224   H259    1.111   .     S
C224   H258    1.108   .     S
C225   N284    1.452   .     S
C225   H263    1.107   .     S
C225   H261    1.111   .     S
C225   H262    1.112   .     S
C226   H267    1.109   .     S
C226   H266    1.111   .     S
C226   N276    1.448   .     S
C226   H268    1.107   .     S
C227   C229    1.414   .     A
C227   F241    1.358   .     S
C228   N282    1.421   .     S
C228   N275    1.383   .     A
C229   N283    1.418   .     S
C229   N277    1.373   .     A
C230   N275    1.388   .     A
C230   N284    1.428   .     S
C230   C232    1.419   .     A
C231   N277    1.380   .     A
C231   N276    1.433   .     S
C232   F242    1.358   .     S
F233   C7      1.364   1_655 S
H243   N278    1.031   .     S
H244   C515    1.111   .     S
H245   C515    1.109   .     S
H247   N281    1.030   .     S
H248   C516    1.111   1_545 S
H249   C516    1.108   1_545 S
H251   N282    1.026   .     S
H256   N283    1.031   .     S
H260   N284    1.016   .     S
H264   N276    1.027   .     S
H270   N279    1.031   .     S
H274   N280    1.030   .     S
N275   Zn294   2.023   .     S
N277   Zn293   2.023   .     S
O285   Zn293   1.994   .     S
O286   Zn294   1.994   .     S
O287   Zn294   1.990   .     S
O288   Zn293   1.990   .     S
O289   Zn293   1.977   .     S
O290   Zn294   1.977   .     S
O291   Zn294   1.980   .     S
O292   Zn293   1.980   .     S
C295   O385    1.290   .     A
C295   O383    1.288   .     A
C295   C308    1.424   .     S
C296   C329    1.427   .     A
C296   C298    1.406   .     A
C296   F332    1.356   .     S
C297   C317    1.405   .     A
C297   C330    1.400   .     A
C297   C886    1.522   1_554 S
C298   C325    1.408   .     A
C298   C885    1.522   .     S
C299   O389    1.285   .     A
C299   C301    1.397   .     S
C299   O387    1.281   .     A
C300   O388    1.281   .     A
C300   C302    1.398   .     S
C300   O390    1.285   .     A
C301   C498    1.336   1_455 S
C301   F527    1.364   1_455 S
C302   C399    1.336   .     S
C302   F431    1.364   .     S
C303   F334    1.359   .     S
C303   C314    1.399   .     A
C303   C305    1.377   .     A
C304   F335    1.359   .     S
C304   C315    1.399   .     A
C304   C307    1.374   .     A
C305   C308    1.393   .     A
C305   F336    1.359   .     S
C306   O384    1.293   .     A
C306   C309    1.435   .     S
C306   O386    1.290   .     A
C307   C309    1.394   .     A
C307   F337    1.358   .     S
C308   C310    1.403   .     A
C309   C311    1.409   .     A
C310   N376    1.426   .     S
C310   C312    1.402   .     A
C311   N377    1.426   .     S
C311   C313    1.404   .     A
C312   N378    1.429   .     S
C312   C314    1.413   .     A
C313   C315    1.412   .     A
C313   N379    1.430   .     S
C315   C20     1.446   1_565 S
C316   N376    1.448   .     S
C316   H363    1.109   .     S
C316   H352    1.111   .     S
C316   H367    1.110   .     S
C317   F338    1.358   .     S
C317   C326    1.418   .     A
C318   N377    1.448   .     S
C318   H370    1.111   .     S
C318   H369    1.111   .     S
C318   H371    1.110   .     S
C319   H344    1.111   .     S
C319   N378    1.446   .     S
C320   H348    1.110   .     S
C320   N379    1.447   .     S
C320   H52     1.111   1_565 S
C320   H53     1.108   1_565 S
C321   H351    1.110   .     S
C321   H350    1.109   .     S
C321   N380    1.451   .     S
C321   H353    1.108   .     S
C322   H355    1.111   .     S
C322   N381    1.446   .     S
C322   H357    1.111   .     S
C322   H356    1.108   .     S
C323   N382    1.452   .     S
C323   H361    1.107   .     S
C323   H359    1.111   .     S
C323   H360    1.112   .     S
C324   H365    1.109   .     S
C324   H364    1.111   .     S
C324   N374    1.448   .     S
C324   H366    1.107   .     S
C325   C327    1.414   .     A
C325   F339    1.358   .     S
C326   N380    1.421   .     S
C326   N373    1.383   .     A
C327   N381    1.418   .     S
C327   N375    1.373   .     A
C328   N373    1.388   .     A
C328   N382    1.428   .     S
C328   C330    1.419   .     A
C329   N375    1.380   .     A
C329   N374    1.433   .     S
C330   F340    1.358   .     S
F331   C399    1.364   .     S
F333   C498    1.364   1_455 S
H341   N376    1.031   .     S
H342   C25     1.111   1_565 S
H343   C25     1.109   1_565 S
H345   N379    1.030   .     S
H349   N380    1.026   .     S
H354   N381    1.031   .     S
H358   N382    1.016   .     S
H362   N374    1.027   .     S
H368   N377    1.031   .     S
H372   N378    1.030   .     S
N373   Zn392   2.023   .     S
N375   Zn391   2.023   .     S
O383   Zn391   1.994   .     S
O384   Zn392   1.994   .     S
O385   Zn392   1.990   .     S
O386   Zn391   1.990   .     S
O387   Zn391   1.977   .     S
O388   Zn392   1.977   .     S
O389   Zn392   1.980   .     S
O390   Zn391   1.980   .     S
C393   O483    1.290   .     A
C393   O481    1.288   .     A
C393   C406    1.424   .     S
C394   C427    1.427   .     A
C394   C396    1.406   .     A
C394   F430    1.356   .     S
C395   C415    1.405   .     A
C395   C428    1.400   .     A
C395   C984    1.522   1_554 S
C396   C423    1.408   .     A
C396   C983    1.522   .     S
C397   O487    1.285   .     A
C397   C399    1.397   .     S
C397   O485    1.281   .     A
C398   O486    1.281   .     A
C398   C400    1.398   .     S
C398   O488    1.285   .     A
C400   C497    1.336   .     S
C400   F529    1.364   .     S
C401   F432    1.359   .     S
C401   C412    1.399   .     A
C401   C403    1.377   .     A
C402   F433    1.359   .     S
C402   C413    1.399   .     A
C402   C405    1.374   .     A
C403   C406    1.393   .     A
C403   F434    1.359   .     S
C404   O482    1.293   .     A
C404   C407    1.435   .     S
C404   O484    1.290   .     A
C405   C407    1.394   .     A
C405   F435    1.358   .     S
C406   C408    1.403   .     A
C407   C409    1.409   .     A
C408   N474    1.426   .     S
C408   C410    1.402   .     A
C409   N475    1.426   .     S
C409   C411    1.404   .     A
C410   N476    1.429   .     S
C410   C412    1.413   .     A
C411   C413    1.412   .     A
C411   N477    1.430   .     S
C413   C118    1.446   1_565 S
C414   N474    1.448   .     S
C414   H461    1.109   .     S
C414   H450    1.111   .     S
C414   H465    1.110   .     S
C415   F436    1.358   .     S
C415   C424    1.418   .     A
C416   N475    1.448   .     S
C416   H468    1.111   .     S
C416   H467    1.111   .     S
C416   H469    1.110   .     S
C417   H442    1.111   .     S
C417   N476    1.446   .     S
C418   H446    1.110   .     S
C418   N477    1.447   .     S
C418   H150    1.111   1_565 S
C418   H151    1.108   1_565 S
C419   H449    1.110   .     S
C419   H448    1.109   .     S
C419   N478    1.451   .     S
C419   H451    1.108   .     S
C420   H453    1.111   .     S
C420   N479    1.446   .     S
C420   H455    1.111   .     S
C420   H454    1.108   .     S
C421   N480    1.452   .     S
C421   H459    1.107   .     S
C421   H457    1.111   .     S
C421   H458    1.112   .     S
C422   H463    1.109   .     S
C422   H462    1.111   .     S
C422   N472    1.448   .     S
C422   H464    1.107   .     S
C423   C425    1.414   .     A
C423   F437    1.358   .     S
C424   N478    1.421   .     S
C424   N471    1.383   .     A
C425   N479    1.418   .     S
C425   N473    1.373   .     A
C426   N471    1.388   .     A
C426   N480    1.428   .     S
C426   C428    1.419   .     A
C427   N473    1.380   .     A
C427   N472    1.433   .     S
C428   F438    1.358   .     S
F429   C497    1.364   .     S
H439   N474    1.031   .     S
H440   C123    1.111   1_565 S
H441   C123    1.109   1_565 S
H443   N477    1.030   .     S
H447   N478    1.026   .     S
H452   N479    1.031   .     S
H456   N480    1.016   .     S
H460   N472    1.027   .     S
H466   N475    1.031   .     S
H470   N476    1.030   .     S
N471   Zn490   2.023   .     S
N473   Zn489   2.023   .     S
O481   Zn489   1.994   .     S
O482   Zn490   1.994   .     S
O483   Zn490   1.990   .     S
O484   Zn489   1.990   .     S
O485   Zn489   1.977   .     S
O486   Zn490   1.977   .     S
O487   Zn490   1.980   .     S
O488   Zn489   1.980   .     S
C491   O581    1.290   .     A
C491   O579    1.288   .     A
C491   C504    1.424   .     S
C492   C525    1.427   .     A
C492   C494    1.406   .     A
C492   F528    1.356   .     S
C493   C513    1.405   .     A
C493   C526    1.400   .     A
C493   C1082   1.522   1_554 S
C494   C521    1.408   .     A
C494   C1081   1.522   .     S
C495   O585    1.285   .     A
C495   C497    1.397   .     S
C495   O583    1.281   .     A
C496   O584    1.281   .     A
C496   C498    1.398   .     S
C496   O586    1.285   .     A
C498   C301    1.336   1_655 S
C498   F333    1.364   1_655 S
C499   F530    1.359   .     S
C499   C510    1.399   .     A
C499   C501    1.377   .     A
C500   F531    1.359   .     S
C500   C511    1.399   .     A
C500   C503    1.374   .     A
C501   C504    1.393   .     A
C501   F532    1.359   .     S
C502   O580    1.293   .     A
C502   C505    1.435   .     S
C502   O582    1.290   .     A
C503   C505    1.394   .     A
C503   F533    1.358   .     S
C504   C506    1.403   .     A
C505   C507    1.409   .     A
C506   N572    1.426   .     S
C506   C508    1.402   .     A
C507   N573    1.426   .     S
C507   C509    1.404   .     A
C508   N574    1.429   .     S
C508   C510    1.413   .     A
C509   C511    1.412   .     A
C509   N575    1.430   .     S
C511   C216    1.446   1_565 S
C512   N572    1.448   .     S
C512   H559    1.109   .     S
C512   H548    1.111   .     S
C512   H563    1.110   .     S
C513   F534    1.358   .     S
C513   C522    1.418   .     A
C514   N573    1.448   .     S
C514   H566    1.111   .     S
C514   H565    1.111   .     S
C514   H567    1.110   .     S
C515   H540    1.111   .     S
C515   N574    1.446   .     S
C516   H544    1.110   .     S
C516   N575    1.447   .     S
C516   H248    1.111   1_565 S
C516   H249    1.108   1_565 S
C517   H547    1.110   .     S
C517   H546    1.109   .     S
C517   N576    1.451   .     S
C517   H549    1.108   .     S
C518   H551    1.111   .     S
C518   N577    1.446   .     S
C518   H553    1.111   .     S
C518   H552    1.108   .     S
C519   N578    1.452   .     S
C519   H557    1.107   .     S
C519   H555    1.111   .     S
C519   H556    1.112   .     S
C520   H561    1.109   .     S
C520   H560    1.111   .     S
C520   N570    1.448   .     S
C520   H562    1.107   .     S
C521   C523    1.414   .     A
C521   F535    1.358   .     S
C522   N576    1.421   .     S
C522   N569    1.383   .     A
C523   N577    1.418   .     S
C523   N571    1.373   .     A
C524   N569    1.388   .     A
C524   N578    1.428   .     S
C524   C526    1.419   .     A
C525   N571    1.380   .     A
C525   N570    1.433   .     S
C526   F536    1.358   .     S
F527   C301    1.364   1_655 S
H537   N572    1.031   .     S
H538   C221    1.111   1_565 S
H539   C221    1.109   1_565 S
H541   N575    1.030   .     S
H545   N576    1.026   .     S
H550   N577    1.031   .     S
H554   N578    1.016   .     S
H558   N570    1.027   .     S
H564   N573    1.031   .     S
H568   N574    1.030   .     S
N569   Zn588   2.023   .     S
N571   Zn587   2.023   .     S
O579   Zn587   1.994   .     S
O580   Zn588   1.994   .     S
O581   Zn588   1.990   .     S
O582   Zn587   1.990   .     S
O583   Zn587   1.977   .     S
O584   Zn588   1.977   .     S
O585   Zn588   1.980   .     S
O586   Zn587   1.980   .     S
C589   O679    1.290   .     A
C589   O677    1.288   .     A
C589   C602    1.424   .     S
C590   C623    1.427   .     A
C590   C592    1.406   .     A
C590   F626    1.356   .     S
C591   C611    1.405   .     A
C591   C624    1.400   .     A
C592   C619    1.408   .     A
C592   C3      1.522   1_556 S
C593   O683    1.285   .     A
C593   C595    1.397   .     S
C593   O681    1.281   .     A
C594   O682    1.281   .     A
C594   C596    1.398   .     S
C594   O684    1.285   .     A
C595   C792    1.336   1_455 S
C595   F821    1.364   1_455 S
C596   C693    1.336   .     S
C596   F725    1.364   .     S
C597   F628    1.359   .     S
C597   C608    1.399   .     A
C597   C599    1.377   .     A
C598   F629    1.359   .     S
C598   C609    1.399   .     A
C598   C601    1.374   .     A
C599   C602    1.393   .     A
C599   F630    1.359   .     S
C600   O678    1.293   .     A
C600   C603    1.435   .     S
C600   O680    1.290   .     A
C601   C603    1.394   .     A
C601   F631    1.358   .     S
C602   C604    1.403   .     A
C603   C605    1.409   .     A
C604   N670    1.426   .     S
C604   C606    1.402   .     A
C605   N671    1.426   .     S
C605   C607    1.404   .     A
C606   N672    1.429   .     S
C606   C608    1.413   .     A
C607   C609    1.412   .     A
C607   N673    1.430   .     S
C608   C903    1.446   1_545 S
C609   C902    1.446   .     S
C610   N670    1.448   .     S
C610   H657    1.109   .     S
C610   H646    1.111   .     S
C610   H661    1.110   .     S
C611   F632    1.358   .     S
C611   C620    1.418   .     A
C612   N671    1.448   .     S
C612   H664    1.111   .     S
C612   H663    1.111   .     S
C612   H665    1.110   .     S
C613   H638    1.111   .     S
C613   N672    1.446   .     S
C613   H930    1.111   1_545 S
C613   H931    1.109   1_545 S
C614   H642    1.110   .     S
C614   N673    1.447   .     S
C614   H934    1.111   .     S
C614   H935    1.108   .     S
C615   H645    1.110   .     S
C615   H644    1.109   .     S
C615   N674    1.451   .     S
C615   H647    1.108   .     S
C616   H649    1.111   .     S
C616   N675    1.446   .     S
C616   H651    1.111   .     S
C616   H650    1.108   .     S
C617   N676    1.452   .     S
C617   H655    1.107   .     S
C617   H653    1.111   .     S
C617   H654    1.112   .     S
C618   H659    1.109   .     S
C618   H658    1.111   .     S
C618   N668    1.448   .     S
C618   H660    1.107   .     S
C619   C621    1.414   .     A
C619   F633    1.358   .     S
C620   N674    1.421   .     S
C620   N667    1.383   .     A
C621   N675    1.418   .     S
C621   N669    1.373   .     A
C622   N667    1.388   .     A
C622   N676    1.428   .     S
C622   C624    1.419   .     A
C623   N669    1.380   .     A
C623   N668    1.433   .     S
C624   F634    1.358   .     S
F625   C693    1.364   .     S
F627   C792    1.364   1_455 S
H635   N670    1.031   .     S
H636   C907    1.111   .     S
H637   C907    1.109   .     S
H639   N673    1.030   .     S
H640   C908    1.111   1_545 S
H641   C908    1.108   1_545 S
H643   N674    1.026   .     S
H648   N675    1.031   .     S
H652   N676    1.016   .     S
H656   N668    1.027   .     S
H662   N671    1.031   .     S
H666   N672    1.030   .     S
N667   Zn686   2.023   .     S
N669   Zn685   2.023   .     S
O677   Zn685   1.994   .     S
O678   Zn686   1.994   .     S
O679   Zn686   1.990   .     S
O680   Zn685   1.990   .     S
O681   Zn685   1.977   .     S
O682   Zn686   1.977   .     S
O683   Zn686   1.980   .     S
O684   Zn685   1.980   .     S
C687   O777    1.290   .     A
C687   O775    1.288   .     A
C687   C700    1.424   .     S
C688   C721    1.427   .     A
C688   C690    1.406   .     A
C688   F724    1.356   .     S
C689   C709    1.405   .     A
C689   C722    1.400   .     A
C690   C717    1.408   .     A
C690   C101    1.522   1_556 S
C691   O781    1.285   .     A
C691   C693    1.397   .     S
C691   O779    1.281   .     A
C692   O780    1.281   .     A
C692   C694    1.398   .     S
C692   O782    1.285   .     A
C694   C791    1.336   .     S
C694   F823    1.364   .     S
C695   F726    1.359   .     S
C695   C706    1.399   .     A
C695   C697    1.377   .     A
C696   F727    1.359   .     S
C696   C707    1.399   .     A
C696   C699    1.374   .     A
C697   C700    1.393   .     A
C697   F728    1.359   .     S
C698   O776    1.293   .     A
C698   C701    1.435   .     S
C698   O778    1.290   .     A
C699   C701    1.394   .     A
C699   F729    1.358   .     S
C700   C702    1.403   .     A
C701   C703    1.409   .     A
C702   N768    1.426   .     S
C702   C704    1.402   .     A
C703   N769    1.426   .     S
C703   C705    1.404   .     A
C704   N770    1.429   .     S
C704   C706    1.413   .     A
C705   C707    1.412   .     A
C705   N771    1.430   .     S
C706   C1001   1.446   1_545 S
C707   C1000   1.446   .     S
C708   N768    1.448   .     S
C708   H755    1.109   .     S
C708   H744    1.111   .     S
C708   H759    1.110   .     S
C709   F730    1.358   .     S
C709   C718    1.418   .     A
C710   N769    1.448   .     S
C710   H762    1.111   .     S
C710   H761    1.111   .     S
C710   H763    1.110   .     S
C711   H736    1.111   .     S
C711   N770    1.446   .     S
C711   H1028   1.111   1_545 S
C711   H1029   1.109   1_545 S
C712   H740    1.110   .     S
C712   N771    1.447   .     S
C712   H1032   1.111   .     S
C712   H1033   1.108   .     S
C713   H743    1.110   .     S
C713   H742    1.109   .     S
C713   N772    1.451   .     S
C713   H745    1.108   .     S
C714   H747    1.111   .     S
C714   N773    1.446   .     S
C714   H749    1.111   .     S
C714   H748    1.108   .     S
C715   N774    1.452   .     S
C715   H753    1.107   .     S
C715   H751    1.111   .     S
C715   H752    1.112   .     S
C716   H757    1.109   .     S
C716   H756    1.111   .     S
C716   N766    1.448   .     S
C716   H758    1.107   .     S
C717   C719    1.414   .     A
C717   F731    1.358   .     S
C718   N772    1.421   .     S
C718   N765    1.383   .     A
C719   N773    1.418   .     S
C719   N767    1.373   .     A
C720   N765    1.388   .     A
C720   N774    1.428   .     S
C720   C722    1.419   .     A
C721   N767    1.380   .     A
C721   N766    1.433   .     S
C722   F732    1.358   .     S
F723   C791    1.364   .     S
H733   N768    1.031   .     S
H734   C1005   1.111   .     S
H735   C1005   1.109   .     S
H737   N771    1.030   .     S
H738   C1006   1.111   1_545 S
H739   C1006   1.108   1_545 S
H741   N772    1.026   .     S
H746   N773    1.031   .     S
H750   N774    1.016   .     S
H754   N766    1.027   .     S
H760   N769    1.031   .     S
H764   N770    1.030   .     S
N765   Zn784   2.023   .     S
N767   Zn783   2.023   .     S
O775   Zn783   1.994   .     S
O776   Zn784   1.994   .     S
O777   Zn784   1.990   .     S
O778   Zn783   1.990   .     S
O779   Zn783   1.977   .     S
O780   Zn784   1.977   .     S
O781   Zn784   1.980   .     S
O782   Zn783   1.980   .     S
C785   O875    1.290   .     A
C785   O873    1.288   .     A
C785   C798    1.424   .     S
C786   C819    1.427   .     A
C786   C788    1.406   .     A
C786   F822    1.356   .     S
C787   C807    1.405   .     A
C787   C820    1.400   .     A
C788   C815    1.408   .     A
C788   C199    1.522   1_556 S
C789   O879    1.285   .     A
C789   C791    1.397   .     S
C789   O877    1.281   .     A
C790   O878    1.281   .     A
C790   C792    1.398   .     S
C790   O880    1.285   .     A
C792   C595    1.336   1_655 S
C792   F627    1.364   1_655 S
C793   F824    1.359   .     S
C793   C804    1.399   .     A
C793   C795    1.377   .     A
C794   F825    1.359   .     S
C794   C805    1.399   .     A
C794   C797    1.374   .     A
C795   C798    1.393   .     A
C795   F826    1.359   .     S
C796   O874    1.293   .     A
C796   C799    1.435   .     S
C796   O876    1.290   .     A
C797   C799    1.394   .     A
C797   F827    1.358   .     S
C798   C800    1.403   .     A
C799   C801    1.409   .     A
C800   N866    1.426   .     S
C800   C802    1.402   .     A
C801   N867    1.426   .     S
C801   C803    1.404   .     A
C802   N868    1.429   .     S
C802   C804    1.413   .     A
C803   C805    1.412   .     A
C803   N869    1.430   .     S
C804   C1099   1.446   1_545 S
C805   C1098   1.446   .     S
C806   N866    1.448   .     S
C806   H853    1.109   .     S
C806   H842    1.111   .     S
C806   H857    1.110   .     S
C807   F828    1.358   .     S
C807   C816    1.418   .     A
C808   N867    1.448   .     S
C808   H860    1.111   .     S
C808   H859    1.111   .     S
C808   H861    1.110   .     S
C809   H834    1.111   .     S
C809   N868    1.446   .     S
C809   H1126   1.111   1_545 S
C809   H1127   1.109   1_545 S
C810   H838    1.110   .     S
C810   N869    1.447   .     S
C810   H1130   1.111   .     S
C810   H1131   1.108   .     S
C811   H841    1.110   .     S
C811   H840    1.109   .     S
C811   N870    1.451   .     S
C811   H843    1.108   .     S
C812   H845    1.111   .     S
C812   N871    1.446   .     S
C812   H847    1.111   .     S
C812   H846    1.108   .     S
C813   N872    1.452   .     S
C813   H851    1.107   .     S
C813   H849    1.111   .     S
C813   H850    1.112   .     S
C814   H855    1.109   .     S
C814   H854    1.111   .     S
C814   N864    1.448   .     S
C814   H856    1.107   .     S
C815   C817    1.414   .     A
C815   F829    1.358   .     S
C816   N870    1.421   .     S
C816   N863    1.383   .     A
C817   N871    1.418   .     S
C817   N865    1.373   .     A
C818   N863    1.388   .     A
C818   N872    1.428   .     S
C818   C820    1.419   .     A
C819   N865    1.380   .     A
C819   N864    1.433   .     S
C820   F830    1.358   .     S
F821   C595    1.364   1_655 S
H831   N866    1.031   .     S
H832   C1103   1.111   .     S
H833   C1103   1.109   .     S
H835   N869    1.030   .     S
H836   C1104   1.111   1_545 S
H837   C1104   1.108   1_545 S
H839   N870    1.026   .     S
H844   N871    1.031   .     S
H848   N872    1.016   .     S
H852   N864    1.027   .     S
H858   N867    1.031   .     S
H862   N868    1.030   .     S
N863   Zn882   2.023   .     S
N865   Zn881   2.023   .     S
O873   Zn881   1.994   .     S
O874   Zn882   1.994   .     S
O875   Zn882   1.990   .     S
O876   Zn881   1.990   .     S
O877   Zn881   1.977   .     S
O878   Zn882   1.977   .     S
O879   Zn882   1.980   .     S
O880   Zn881   1.980   .     S
C883   O973    1.290   .     A
C883   O971    1.288   .     A
C883   C896    1.424   .     S
C884   C917    1.427   .     A
C884   C886    1.406   .     A
C884   F920    1.356   .     S
C885   C905    1.405   .     A
C885   C918    1.400   .     A
C886   C913    1.408   .     A
C886   C297    1.522   1_556 S
C887   O977    1.285   .     A
C887   C889    1.397   .     S
C887   O975    1.281   .     A
C888   O976    1.281   .     A
C888   C890    1.398   .     S
C888   O978    1.285   .     A
C889   C1086   1.336   1_455 S
C889   F1115   1.364   1_455 S
C890   C987    1.336   .     S
C890   F1019   1.364   .     S
C891   F922    1.359   .     S
C891   C902    1.399   .     A
C891   C893    1.377   .     A
C892   F923    1.359   .     S
C892   C903    1.399   .     A
C892   C895    1.374   .     A
C893   C896    1.393   .     A
C893   F924    1.359   .     S
C894   O972    1.293   .     A
C894   C897    1.435   .     S
C894   O974    1.290   .     A
C895   C897    1.394   .     A
C895   F925    1.358   .     S
C896   C898    1.403   .     A
C897   C899    1.409   .     A
C898   N964    1.426   .     S
C898   C900    1.402   .     A
C899   N965    1.426   .     S
C899   C901    1.404   .     A
C900   N966    1.429   .     S
C900   C902    1.413   .     A
C901   C903    1.412   .     A
C901   N967    1.430   .     S
C903   C608    1.446   1_565 S
C904   N964    1.448   .     S
C904   H951    1.109   .     S
C904   H940    1.111   .     S
C904   H955    1.110   .     S
C905   F926    1.358   .     S
C905   C914    1.418   .     A
C906   N965    1.448   .     S
C906   H958    1.111   .     S
C906   H957    1.111   .     S
C906   H959    1.110   .     S
C907   H932    1.111   .     S
C907   N966    1.446   .     S
C908   H936    1.110   .     S
C908   N967    1.447   .     S
C908   H640    1.111   1_565 S
C908   H641    1.108   1_565 S
C909   H939    1.110   .     S
C909   H938    1.109   .     S
C909   N968    1.451   .     S
C909   H941    1.108   .     S
C910   H943    1.111   .     S
C910   N969    1.446   .     S
C910   H945    1.111   .     S
C910   H944    1.108   .     S
C911   N970    1.452   .     S
C911   H949    1.107   .     S
C911   H947    1.111   .     S
C911   H948    1.112   .     S
C912   H953    1.109   .     S
C912   H952    1.111   .     S
C912   N962    1.448   .     S
C912   H954    1.107   .     S
C913   C915    1.414   .     A
C913   F927    1.358   .     S
C914   N968    1.421   .     S
C914   N961    1.383   .     A
C915   N969    1.418   .     S
C915   N963    1.373   .     A
C916   N961    1.388   .     A
C916   N970    1.428   .     S
C916   C918    1.419   .     A
C917   N963    1.380   .     A
C917   N962    1.433   .     S
C918   F928    1.358   .     S
F919   C987    1.364   .     S
F921   C1086   1.364   1_455 S
H929   N964    1.031   .     S
H930   C613    1.111   1_565 S
H931   C613    1.109   1_565 S
H933   N967    1.030   .     S
H937   N968    1.026   .     S
H942   N969    1.031   .     S
H946   N970    1.016   .     S
H950   N962    1.027   .     S
H956   N965    1.031   .     S
H960   N966    1.030   .     S
N961   Zn980   2.023   .     S
N963   Zn979   2.023   .     S
O971   Zn979   1.994   .     S
O972   Zn980   1.994   .     S
O973   Zn980   1.990   .     S
O974   Zn979   1.990   .     S
O975   Zn979   1.977   .     S
O976   Zn980   1.977   .     S
O977   Zn980   1.980   .     S
O978   Zn979   1.980   .     S
C981   O1071   1.290   .     A
C981   O1069   1.288   .     A
C981   C994    1.424   .     S
C982   C1015   1.427   .     A
C982   C984    1.406   .     A
C982   F1018   1.356   .     S
C983   C1003   1.405   .     A
C983   C1016   1.400   .     A
C984   C1011   1.408   .     A
C984   C395    1.522   1_556 S
C985   O1075   1.285   .     A
C985   C987    1.397   .     S
C985   O1073   1.281   .     A
C986   O1074   1.281   .     A
C986   C988    1.398   .     S
C986   O1076   1.285   .     A
C988   C1085   1.336   .     S
C988   F1117   1.364   .     S
C989   F1020   1.359   .     S
C989   C1000   1.399   .     A
C989   C991    1.377   .     A
C990   F1021   1.359   .     S
C990   C1001   1.399   .     A
C990   C993    1.374   .     A
C991   C994    1.393   .     A
C991   F1022   1.359   .     S
C992   O1070   1.293   .     A
C992   C995    1.435   .     S
C992   O1072   1.290   .     A
C993   C995    1.394   .     A
C993   F1023   1.358   .     S
C994   C996    1.403   .     A
C995   C997    1.409   .     A
C996   N1062   1.426   .     S
C996   C998    1.402   .     A
C997   N1063   1.426   .     S
C997   C999    1.404   .     A
C998   N1064   1.429   .     S
C998   C1000   1.413   .     A
C999   C1001   1.412   .     A
C999   N1065   1.430   .     S
C1001  C706    1.446   1_565 S
C1002  N1062   1.448   .     S
C1002  H1049   1.109   .     S
C1002  H1038   1.111   .     S
C1002  H1053   1.110   .     S
C1003  F1024   1.358   .     S
C1003  C1012   1.418   .     A
C1004  N1063   1.448   .     S
C1004  H1056   1.111   .     S
C1004  H1055   1.111   .     S
C1004  H1057   1.110   .     S
C1005  H1030   1.111   .     S
C1005  N1064   1.446   .     S
C1006  H1034   1.110   .     S
C1006  N1065   1.447   .     S
C1006  H738    1.111   1_565 S
C1006  H739    1.108   1_565 S
C1007  H1037   1.110   .     S
C1007  H1036   1.109   .     S
C1007  N1066   1.451   .     S
C1007  H1039   1.108   .     S
C1008  H1041   1.111   .     S
C1008  N1067   1.446   .     S
C1008  H1043   1.111   .     S
C1008  H1042   1.108   .     S
C1009  N1068   1.452   .     S
C1009  H1047   1.107   .     S
C1009  H1045   1.111   .     S
C1009  H1046   1.112   .     S
C1010  H1051   1.109   .     S
C1010  H1050   1.111   .     S
C1010  N1060   1.448   .     S
C1010  H1052   1.107   .     S
C1011  C1013   1.414   .     A
C1011  F1025   1.358   .     S
C1012  N1066   1.421   .     S
C1012  N1059   1.383   .     A
C1013  N1067   1.418   .     S
C1013  N1061   1.373   .     A
C1014  N1059   1.388   .     A
C1014  N1068   1.428   .     S
C1014  C1016   1.419   .     A
C1015  N1061   1.380   .     A
C1015  N1060   1.433   .     S
C1016  F1026   1.358   .     S
F1017  C1085   1.364   .     S
H1027  N1062   1.031   .     S
H1028  C711    1.111   1_565 S
H1029  C711    1.109   1_565 S
H1031  N1065   1.030   .     S
H1035  N1066   1.026   .     S
H1040  N1067   1.031   .     S
H1044  N1068   1.016   .     S
H1048  N1060   1.027   .     S
H1054  N1063   1.031   .     S
H1058  N1064   1.030   .     S
N1059  Zn1078  2.023   .     S
N1061  Zn1077  2.023   .     S
O1069  Zn1077  1.994   .     S
O1070  Zn1078  1.994   .     S
O1071  Zn1078  1.990   .     S
O1072  Zn1077  1.990   .     S
O1073  Zn1077  1.977   .     S
O1074  Zn1078  1.977   .     S
O1075  Zn1078  1.980   .     S
O1076  Zn1077  1.980   .     S
C1079  O1169   1.290   .     A
C1079  O1167   1.288   .     A
C1079  C1092   1.424   .     S
C1080  C1113   1.427   .     A
C1080  C1082   1.406   .     A
C1080  F1116   1.356   .     S
C1081  C1101   1.405   .     A
C1081  C1114   1.400   .     A
C1082  C1109   1.408   .     A
C1082  C493    1.522   1_556 S
C1083  O1173   1.285   .     A
C1083  C1085   1.397   .     S
C1083  O1171   1.281   .     A
C1084  O1172   1.281   .     A
C1084  C1086   1.398   .     S
C1084  O1174   1.285   .     A
C1086  C889    1.336   1_655 S
C1086  F921    1.364   1_655 S
C1087  F1118   1.359   .     S
C1087  C1098   1.399   .     A
C1087  C1089   1.377   .     A
C1088  F1119   1.359   .     S
C1088  C1099   1.399   .     A
C1088  C1091   1.374   .     A
C1089  C1092   1.393   .     A
C1089  F1120   1.359   .     S
C1090  O1168   1.293   .     A
C1090  C1093   1.435   .     S
C1090  O1170   1.290   .     A
C1091  C1093   1.394   .     A
C1091  F1121   1.358   .     S
C1092  C1094   1.403   .     A
C1093  C1095   1.409   .     A
C1094  N1160   1.426   .     S
C1094  C1096   1.402   .     A
C1095  N1161   1.426   .     S
C1095  C1097   1.404   .     A
C1096  N1162   1.429   .     S
C1096  C1098   1.413   .     A
C1097  C1099   1.412   .     A
C1097  N1163   1.430   .     S
C1099  C804    1.446   1_565 S
C1100  N1160   1.448   .     S
C1100  H1147   1.109   .     S
C1100  H1136   1.111   .     S
C1100  H1151   1.110   .     S
C1101  F1122   1.358   .     S
C1101  C1110   1.418   .     A
C1102  N1161   1.448   .     S
C1102  H1154   1.111   .     S
C1102  H1153   1.111   .     S
C1102  H1155   1.110   .     S
C1103  H1128   1.111   .     S
C1103  N1162   1.446   .     S
C1104  H1132   1.110   .     S
C1104  N1163   1.447   .     S
C1104  H836    1.111   1_565 S
C1104  H837    1.108   1_565 S
C1105  H1135   1.110   .     S
C1105  H1134   1.109   .     S
C1105  N1164   1.451   .     S
C1105  H1137   1.108   .     S
C1106  H1139   1.111   .     S
C1106  N1165   1.446   .     S
C1106  H1141   1.111   .     S
C1106  H1140   1.108   .     S
C1107  N1166   1.452   .     S
C1107  H1145   1.107   .     S
C1107  H1143   1.111   .     S
C1107  H1144   1.112   .     S
C1108  H1149   1.109   .     S
C1108  H1148   1.111   .     S
C1108  N1158   1.448   .     S
C1108  H1150   1.107   .     S
C1109  C1111   1.414   .     A
C1109  F1123   1.358   .     S
C1110  N1164   1.421   .     S
C1110  N1157   1.383   .     A
C1111  N1165   1.418   .     S
C1111  N1159   1.373   .     A
C1112  N1157   1.388   .     A
C1112  N1166   1.428   .     S
C1112  C1114   1.419   .     A
C1113  N1159   1.380   .     A
C1113  N1158   1.433   .     S
C1114  F1124   1.358   .     S
F1115  C889    1.364   1_655 S
H1125  N1160   1.031   .     S
H1126  C809    1.111   1_565 S
H1127  C809    1.109   1_565 S
H1129  N1163   1.030   .     S
H1133  N1164   1.026   .     S
H1138  N1165   1.031   .     S
H1142  N1166   1.016   .     S
H1146  N1158   1.027   .     S
H1152  N1161   1.031   .     S
H1156  N1162   1.030   .     S
N1157  Zn1176  2.023   .     S
N1159  Zn1175  2.023   .     S
O1167  Zn1175  1.994   .     S
O1168  Zn1176  1.994   .     S
O1169  Zn1176  1.990   .     S
O1170  Zn1175  1.990   .     S
O1171  Zn1175  1.977   .     S
O1172  Zn1176  1.977   .     S
O1173  Zn1176  1.980   .     S
O1174  Zn1175  1.980   .     S
