data_str_m3_o1_o5_pcu_sym.60
_audit_creation_date              2020-01-03
_audit_creation_method            'Materials Studio'
_symmetry_space_group_name_H-M    'P1'
_symmetry_Int_Tables_number       1
_symmetry_cell_setting            triclinic
loop_
_symmetry_equiv_pos_as_xyz
  x,y,z
_cell_length_a                    31.9015
_cell_length_b                    29.6684
_cell_length_c                    26.7249
_cell_angle_alpha                 89.9345
_cell_angle_beta                  90.3947
_cell_angle_gamma                 89.9855
loop_
_atom_site_label
_atom_site_type_symbol
_atom_site_fract_x
_atom_site_fract_y
_atom_site_fract_z
_atom_site_U_iso_or_equiv
_atom_site_adp_type
_atom_site_occupancy
C1     C     0.08691   0.16665   0.16664   0.00000  Uiso   1.00
C2     C     0.02171   0.17278   0.12072   0.00000  Uiso   1.00
C3     C     0.29065   0.16662   0.16664   0.00000  Uiso   1.00
C4     C     0.04270   0.16650   0.16661   0.00000  Uiso   1.00
C5     C     0.19298   0.02413   0.19783   0.00000  Uiso   1.00
C6     C     0.14039   0.30924   0.13548   0.00000  Uiso   1.00
C7     C     0.14037   0.02422   0.13550   0.00000  Uiso   1.00
C8     C     0.19298   0.30913   0.19784   0.00000  Uiso   1.00
C9     C     0.04792   0.15220   0.26000   0.00000  Uiso   1.00
C10    C     0.28733   0.17713   0.07141   0.00000  Uiso   1.00
C11    C     0.28840   0.15572   0.26179   0.00000  Uiso   1.00
C12    C     0.24646   0.16666   0.16666   0.00000  Uiso   1.00
C13    C     0.04687   0.17887   0.07291   0.00000  Uiso   1.00
C14    C     0.16612   0.16668   0.07292   0.00000  Uiso   1.00
C15    C     0.16631   0.16665   0.26041   0.00000  Uiso   1.00
C16    C     0.16603   0.16669   0.02180   0.00000  Uiso   1.00
C17    C     0.16610   0.16664   0.31153   0.00000  Uiso   1.00
C18    C     0.02223   0.15969   0.21242   0.00000  Uiso   1.00
C19    C     0.31133   0.17230   0.12052   0.00000  Uiso   1.00
C20    C     0.31185   0.16056   0.21268   0.00000  Uiso   1.00
H21    H     0.06869   0.12251   0.25531   0.00000  Uiso   1.00
H22    H     0.06800   0.20833   0.07671   0.00000  Uiso   1.00
H23    H     0.06607   0.14828   0.06611   0.00000  Uiso   1.00
H24    H     0.02776   0.18496   0.03897   0.00000  Uiso   1.00
H25    H     0.25133   0.03995   0.22233   0.00000  Uiso   1.00
H26    H     0.21397   0.03990   0.26729   0.00000  Uiso   1.00
H27    H     0.08210   0.29355   0.11077   0.00000  Uiso   1.00
H28    H     0.11959   0.29354   0.06595   0.00000  Uiso   1.00
H29    H     0.08202   0.04017   0.11110   0.00000  Uiso   1.00
H30    H     0.11931   0.04008   0.06605   0.00000  Uiso   1.00
H31    H     0.25133   0.29326   0.22233   0.00000  Uiso   1.00
H32    H     0.06751   0.18238   0.26766   0.00000  Uiso   1.00
H33    H     0.21397   0.29326   0.26730   0.00000  Uiso   1.00
H34    H     0.02915   0.14553   0.29376   0.00000  Uiso   1.00
H35    H     0.25294   0.17492   0.07507   0.00000  Uiso   1.00
H36    H     0.29420   0.21042   0.05428   0.00000  Uiso   1.00
H37    H     0.29659   0.14970   0.04550   0.00000  Uiso   1.00
H38    H     0.25402   0.15889   0.25826   0.00000  Uiso   1.00
H39    H     0.29478   0.12207   0.27840   0.00000  Uiso   1.00
H40    H     0.29857   0.18258   0.28807   0.00000  Uiso   1.00
N41    N     0.16667   0.28573   0.16667   0.00000  Uiso   1.00
N42    N     0.16667   0.04760   0.16667   0.00000  Uiso   1.00
N43    N     0.22041   0.04885   0.23031   0.00000  Uiso   1.00
N44    N     0.11304   0.28459   0.10290   0.00000  Uiso   1.00
N45    N     0.11294   0.04902   0.10303   0.00000  Uiso   1.00
N46    N     0.22040   0.28435   0.23033   0.00000  Uiso   1.00
O47    O     0.10559   0.20487   0.16666   0.00000  Uiso   1.00
O48    O     0.22774   0.12846   0.16667   0.00000  Uiso   1.00
O49    O     0.22774   0.20487   0.16667   0.00000  Uiso   1.00
O50    O     0.10559   0.12846   0.16666   0.00000  Uiso   1.00
O51    O     0.16667   0.20488   0.09511   0.00000  Uiso   1.00
O52    O     0.16666   0.12845   0.23822   0.00000  Uiso   1.00
O53    O     0.16666   0.20488   0.23822   0.00000  Uiso   1.00
O54    O     0.16667   0.12845   0.09511   0.00000  Uiso   1.00
Zn55   Zn    0.16667   0.21771   0.16667   0.00000  Uiso   1.00
Zn56   Zn    0.16667   0.11563   0.16667   0.00000  Uiso   1.00
C57    C     0.42024   0.16665   0.16664   0.00000  Uiso   1.00
C58    C     0.35505   0.17278   0.12072   0.00000  Uiso   1.00
C59    C     0.62398   0.16662   0.16664   0.00000  Uiso   1.00
C60    C     0.37603   0.16650   0.16661   0.00000  Uiso   1.00
C61    C     0.52631   0.02413   0.19783   0.00000  Uiso   1.00
C62    C     0.47373   0.30924   0.13548   0.00000  Uiso   1.00
C63    C     0.47371   0.02422   0.13550   0.00000  Uiso   1.00
C64    C     0.52631   0.30913   0.19784   0.00000  Uiso   1.00
C65    C     0.38125   0.15220   0.26000   0.00000  Uiso   1.00
C66    C     0.62067   0.17713   0.07141   0.00000  Uiso   1.00
C67    C     0.62173   0.15572   0.26179   0.00000  Uiso   1.00
C68    C     0.57979   0.16666   0.16666   0.00000  Uiso   1.00
C69    C     0.38020   0.17887   0.07291   0.00000  Uiso   1.00
C70    C     0.49945   0.16668   0.07292   0.00000  Uiso   1.00
C71    C     0.49964   0.16665   0.26041   0.00000  Uiso   1.00
C72    C     0.49936   0.16669   0.02180   0.00000  Uiso   1.00
C73    C     0.49944   0.16664   0.31153   0.00000  Uiso   1.00
C74    C     0.35556   0.15969   0.21242   0.00000  Uiso   1.00
C75    C     0.64466   0.17230   0.12052   0.00000  Uiso   1.00
C76    C     0.64518   0.16056   0.21268   0.00000  Uiso   1.00
H77    H     0.40203   0.12251   0.25531   0.00000  Uiso   1.00
H78    H     0.40134   0.20833   0.07671   0.00000  Uiso   1.00
H79    H     0.39941   0.14828   0.06611   0.00000  Uiso   1.00
H80    H     0.36109   0.18496   0.03897   0.00000  Uiso   1.00
H81    H     0.58467   0.03995   0.22233   0.00000  Uiso   1.00
H82    H     0.54731   0.03990   0.26729   0.00000  Uiso   1.00
H83    H     0.41543   0.29355   0.11077   0.00000  Uiso   1.00
H84    H     0.45293   0.29354   0.06595   0.00000  Uiso   1.00
H85    H     0.41535   0.04017   0.11110   0.00000  Uiso   1.00
H86    H     0.45265   0.04008   0.06605   0.00000  Uiso   1.00
H87    H     0.58466   0.29326   0.22233   0.00000  Uiso   1.00
H88    H     0.40085   0.18238   0.26766   0.00000  Uiso   1.00
H89    H     0.54730   0.29326   0.26730   0.00000  Uiso   1.00
H90    H     0.36248   0.14553   0.29376   0.00000  Uiso   1.00
H91    H     0.58627   0.17492   0.07507   0.00000  Uiso   1.00
H92    H     0.62753   0.21042   0.05428   0.00000  Uiso   1.00
H93    H     0.62992   0.14970   0.04550   0.00000  Uiso   1.00
H94    H     0.58735   0.15889   0.25826   0.00000  Uiso   1.00
H95    H     0.62811   0.12207   0.27840   0.00000  Uiso   1.00
H96    H     0.63191   0.18258   0.28807   0.00000  Uiso   1.00
N97    N     0.50000   0.28573   0.16667   0.00000  Uiso   1.00
N98    N     0.50000   0.04760   0.16667   0.00000  Uiso   1.00
N99    N     0.55374   0.04885   0.23031   0.00000  Uiso   1.00
N100   N     0.44638   0.28459   0.10290   0.00000  Uiso   1.00
N101   N     0.44628   0.04902   0.10303   0.00000  Uiso   1.00
N102   N     0.55373   0.28435   0.23033   0.00000  Uiso   1.00
O103   O     0.43892   0.20487   0.16666   0.00000  Uiso   1.00
O104   O     0.56108   0.12846   0.16667   0.00000  Uiso   1.00
O105   O     0.56108   0.20487   0.16667   0.00000  Uiso   1.00
O106   O     0.43892   0.12846   0.16666   0.00000  Uiso   1.00
O107   O     0.50000   0.20488   0.09511   0.00000  Uiso   1.00
O108   O     0.50000   0.12845   0.23822   0.00000  Uiso   1.00
O109   O     0.50000   0.20488   0.23822   0.00000  Uiso   1.00
O110   O     0.50000   0.12845   0.09511   0.00000  Uiso   1.00
Zn111  Zn    0.50000   0.21771   0.16667   0.00000  Uiso   1.00
Zn112  Zn    0.50000   0.11563   0.16667   0.00000  Uiso   1.00
C113   C     0.75358   0.16665   0.16664   0.00000  Uiso   1.00
C114   C     0.68838   0.17278   0.12072   0.00000  Uiso   1.00
C115   C     0.95732   0.16662   0.16664   0.00000  Uiso   1.00
C116   C     0.70936   0.16650   0.16661   0.00000  Uiso   1.00
C117   C     0.85965   0.02413   0.19783   0.00000  Uiso   1.00
C118   C     0.80706   0.30924   0.13548   0.00000  Uiso   1.00
C119   C     0.80704   0.02422   0.13550   0.00000  Uiso   1.00
C120   C     0.85964   0.30913   0.19784   0.00000  Uiso   1.00
C121   C     0.71459   0.15220   0.26000   0.00000  Uiso   1.00
C122   C     0.95400   0.17713   0.07141   0.00000  Uiso   1.00
C123   C     0.95507   0.15572   0.26179   0.00000  Uiso   1.00
C124   C     0.91313   0.16666   0.16666   0.00000  Uiso   1.00
C125   C     0.71354   0.17887   0.07291   0.00000  Uiso   1.00
C126   C     0.83279   0.16668   0.07292   0.00000  Uiso   1.00
C127   C     0.83297   0.16665   0.26041   0.00000  Uiso   1.00
C128   C     0.83270   0.16669   0.02180   0.00000  Uiso   1.00
C129   C     0.83277   0.16664   0.31153   0.00000  Uiso   1.00
C130   C     0.68889   0.15969   0.21242   0.00000  Uiso   1.00
C131   C     0.97800   0.17230   0.12052   0.00000  Uiso   1.00
C132   C     0.97852   0.16056   0.21268   0.00000  Uiso   1.00
H133   H     0.73536   0.12251   0.25531   0.00000  Uiso   1.00
H134   H     0.73467   0.20833   0.07671   0.00000  Uiso   1.00
H135   H     0.73274   0.14828   0.06611   0.00000  Uiso   1.00
H136   H     0.69443   0.18496   0.03897   0.00000  Uiso   1.00
H137   H     0.91800   0.03995   0.22233   0.00000  Uiso   1.00
H138   H     0.88064   0.03990   0.26729   0.00000  Uiso   1.00
H139   H     0.74877   0.29355   0.11077   0.00000  Uiso   1.00
H140   H     0.78626   0.29354   0.06595   0.00000  Uiso   1.00
H141   H     0.74868   0.04017   0.11110   0.00000  Uiso   1.00
H142   H     0.78598   0.04008   0.06605   0.00000  Uiso   1.00
H143   H     0.91799   0.29326   0.22233   0.00000  Uiso   1.00
H144   H     0.73418   0.18238   0.26766   0.00000  Uiso   1.00
H145   H     0.88063   0.29326   0.26730   0.00000  Uiso   1.00
H146   H     0.69581   0.14553   0.29376   0.00000  Uiso   1.00
H147   H     0.91960   0.17492   0.07507   0.00000  Uiso   1.00
H148   H     0.96086   0.21042   0.05428   0.00000  Uiso   1.00
H149   H     0.96325   0.14970   0.04550   0.00000  Uiso   1.00
H150   H     0.92068   0.15889   0.25826   0.00000  Uiso   1.00
H151   H     0.96144   0.12207   0.27840   0.00000  Uiso   1.00
H152   H     0.96524   0.18258   0.28807   0.00000  Uiso   1.00
N153   N     0.83333   0.28573   0.16667   0.00000  Uiso   1.00
N154   N     0.83333   0.04760   0.16667   0.00000  Uiso   1.00
N155   N     0.88707   0.04885   0.23031   0.00000  Uiso   1.00
N156   N     0.77971   0.28459   0.10290   0.00000  Uiso   1.00
N157   N     0.77961   0.04902   0.10303   0.00000  Uiso   1.00
N158   N     0.88707   0.28435   0.23033   0.00000  Uiso   1.00
O159   O     0.77226   0.20487   0.16666   0.00000  Uiso   1.00
O160   O     0.89441   0.12846   0.16667   0.00000  Uiso   1.00
O161   O     0.89441   0.20487   0.16667   0.00000  Uiso   1.00
O162   O     0.77226   0.12846   0.16666   0.00000  Uiso   1.00
O163   O     0.83334   0.20488   0.09511   0.00000  Uiso   1.00
O164   O     0.83333   0.12845   0.23822   0.00000  Uiso   1.00
O165   O     0.83333   0.20488   0.23822   0.00000  Uiso   1.00
O166   O     0.83334   0.12845   0.09511   0.00000  Uiso   1.00
Zn167  Zn    0.83333   0.21771   0.16667   0.00000  Uiso   1.00
Zn168  Zn    0.83333   0.11563   0.16667   0.00000  Uiso   1.00
C169   C     0.08691   0.49998   0.16664   0.00000  Uiso   1.00
C170   C     0.02171   0.50611   0.12072   0.00000  Uiso   1.00
C171   C     0.29065   0.49996   0.16664   0.00000  Uiso   1.00
C172   C     0.04270   0.49983   0.16661   0.00000  Uiso   1.00
C173   C     0.19298   0.35746   0.19783   0.00000  Uiso   1.00
C174   C     0.14039   0.64257   0.13548   0.00000  Uiso   1.00
C175   C     0.14037   0.35755   0.13550   0.00000  Uiso   1.00
C176   C     0.19298   0.64247   0.19784   0.00000  Uiso   1.00
C177   C     0.04792   0.48554   0.26000   0.00000  Uiso   1.00
C178   C     0.28733   0.51047   0.07141   0.00000  Uiso   1.00
C179   C     0.28840   0.48905   0.26179   0.00000  Uiso   1.00
C180   C     0.24646   0.49999   0.16666   0.00000  Uiso   1.00
C181   C     0.04687   0.51220   0.07291   0.00000  Uiso   1.00
C182   C     0.16612   0.50001   0.07292   0.00000  Uiso   1.00
C183   C     0.16631   0.49999   0.26041   0.00000  Uiso   1.00
C184   C     0.16603   0.50002   0.02180   0.00000  Uiso   1.00
C185   C     0.16610   0.49998   0.31153   0.00000  Uiso   1.00
C186   C     0.02223   0.49302   0.21242   0.00000  Uiso   1.00
C187   C     0.31133   0.50563   0.12052   0.00000  Uiso   1.00
C188   C     0.31185   0.49389   0.21268   0.00000  Uiso   1.00
H189   H     0.06869   0.45584   0.25531   0.00000  Uiso   1.00
H190   H     0.06800   0.54167   0.07671   0.00000  Uiso   1.00
H191   H     0.06607   0.48161   0.06611   0.00000  Uiso   1.00
H192   H     0.02776   0.51829   0.03897   0.00000  Uiso   1.00
H193   H     0.25133   0.37328   0.22233   0.00000  Uiso   1.00
H194   H     0.21397   0.37323   0.26729   0.00000  Uiso   1.00
H195   H     0.08210   0.62688   0.11077   0.00000  Uiso   1.00
H196   H     0.11959   0.62688   0.06595   0.00000  Uiso   1.00
H197   H     0.08202   0.37351   0.11110   0.00000  Uiso   1.00
H198   H     0.11931   0.37341   0.06605   0.00000  Uiso   1.00
H199   H     0.25133   0.62660   0.22233   0.00000  Uiso   1.00
H200   H     0.06751   0.51572   0.26766   0.00000  Uiso   1.00
H201   H     0.21397   0.62660   0.26730   0.00000  Uiso   1.00
H202   H     0.02915   0.47886   0.29376   0.00000  Uiso   1.00
H203   H     0.25294   0.50825   0.07507   0.00000  Uiso   1.00
H204   H     0.29420   0.54375   0.05428   0.00000  Uiso   1.00
H205   H     0.29659   0.48303   0.04550   0.00000  Uiso   1.00
H206   H     0.25402   0.49222   0.25826   0.00000  Uiso   1.00
H207   H     0.29478   0.45540   0.27840   0.00000  Uiso   1.00
H208   H     0.29857   0.51591   0.28807   0.00000  Uiso   1.00
N209   N     0.16667   0.61907   0.16667   0.00000  Uiso   1.00
N210   N     0.16667   0.38093   0.16667   0.00000  Uiso   1.00
N211   N     0.22041   0.38218   0.23031   0.00000  Uiso   1.00
N212   N     0.11304   0.61792   0.10290   0.00000  Uiso   1.00
N213   N     0.11294   0.38235   0.10303   0.00000  Uiso   1.00
N214   N     0.22040   0.61768   0.23033   0.00000  Uiso   1.00
O215   O     0.10559   0.53821   0.16666   0.00000  Uiso   1.00
O216   O     0.22774   0.46179   0.16667   0.00000  Uiso   1.00
O217   O     0.22774   0.53821   0.16667   0.00000  Uiso   1.00
O218   O     0.10559   0.46179   0.16666   0.00000  Uiso   1.00
O219   O     0.16667   0.53821   0.09511   0.00000  Uiso   1.00
O220   O     0.16666   0.46179   0.23822   0.00000  Uiso   1.00
O221   O     0.16666   0.53821   0.23822   0.00000  Uiso   1.00
O222   O     0.16667   0.46179   0.09511   0.00000  Uiso   1.00
Zn223  Zn    0.16667   0.55104   0.16667   0.00000  Uiso   1.00
Zn224  Zn    0.16667   0.44896   0.16667   0.00000  Uiso   1.00
C225   C     0.42024   0.49998   0.16664   0.00000  Uiso   1.00
C226   C     0.35505   0.50611   0.12072   0.00000  Uiso   1.00
C227   C     0.62398   0.49996   0.16664   0.00000  Uiso   1.00
C228   C     0.37603   0.49983   0.16661   0.00000  Uiso   1.00
C229   C     0.52631   0.35746   0.19783   0.00000  Uiso   1.00
C230   C     0.47373   0.64257   0.13548   0.00000  Uiso   1.00
C231   C     0.47371   0.35755   0.13550   0.00000  Uiso   1.00
C232   C     0.52631   0.64247   0.19784   0.00000  Uiso   1.00
C233   C     0.38125   0.48554   0.26000   0.00000  Uiso   1.00
C234   C     0.62067   0.51047   0.07141   0.00000  Uiso   1.00
C235   C     0.62173   0.48905   0.26179   0.00000  Uiso   1.00
C236   C     0.57979   0.49999   0.16666   0.00000  Uiso   1.00
C237   C     0.38020   0.51220   0.07291   0.00000  Uiso   1.00
C238   C     0.49945   0.50001   0.07292   0.00000  Uiso   1.00
C239   C     0.49964   0.49999   0.26041   0.00000  Uiso   1.00
C240   C     0.49936   0.50002   0.02180   0.00000  Uiso   1.00
C241   C     0.49944   0.49998   0.31153   0.00000  Uiso   1.00
C242   C     0.35556   0.49302   0.21242   0.00000  Uiso   1.00
C243   C     0.64466   0.50563   0.12052   0.00000  Uiso   1.00
C244   C     0.64518   0.49389   0.21268   0.00000  Uiso   1.00
H245   H     0.40203   0.45584   0.25531   0.00000  Uiso   1.00
H246   H     0.40134   0.54167   0.07671   0.00000  Uiso   1.00
H247   H     0.39941   0.48161   0.06611   0.00000  Uiso   1.00
H248   H     0.36109   0.51829   0.03897   0.00000  Uiso   1.00
H249   H     0.58467   0.37328   0.22233   0.00000  Uiso   1.00
H250   H     0.54731   0.37323   0.26729   0.00000  Uiso   1.00
H251   H     0.41543   0.62688   0.11077   0.00000  Uiso   1.00
H252   H     0.45293   0.62688   0.06595   0.00000  Uiso   1.00
H253   H     0.41535   0.37351   0.11110   0.00000  Uiso   1.00
H254   H     0.45265   0.37341   0.06605   0.00000  Uiso   1.00
H255   H     0.58466   0.62660   0.22233   0.00000  Uiso   1.00
H256   H     0.40085   0.51572   0.26766   0.00000  Uiso   1.00
H257   H     0.54730   0.62660   0.26730   0.00000  Uiso   1.00
H258   H     0.36248   0.47886   0.29376   0.00000  Uiso   1.00
H259   H     0.58627   0.50825   0.07507   0.00000  Uiso   1.00
H260   H     0.62753   0.54375   0.05428   0.00000  Uiso   1.00
H261   H     0.62992   0.48303   0.04550   0.00000  Uiso   1.00
H262   H     0.58735   0.49222   0.25826   0.00000  Uiso   1.00
H263   H     0.62811   0.45540   0.27840   0.00000  Uiso   1.00
H264   H     0.63191   0.51591   0.28807   0.00000  Uiso   1.00
N265   N     0.50000   0.61907   0.16667   0.00000  Uiso   1.00
N266   N     0.50000   0.38093   0.16667   0.00000  Uiso   1.00
N267   N     0.55374   0.38218   0.23031   0.00000  Uiso   1.00
N268   N     0.44638   0.61792   0.10290   0.00000  Uiso   1.00
N269   N     0.44628   0.38235   0.10303   0.00000  Uiso   1.00
N270   N     0.55373   0.61768   0.23033   0.00000  Uiso   1.00
O271   O     0.43892   0.53821   0.16666   0.00000  Uiso   1.00
O272   O     0.56108   0.46179   0.16667   0.00000  Uiso   1.00
O273   O     0.56108   0.53821   0.16667   0.00000  Uiso   1.00
O274   O     0.43892   0.46179   0.16666   0.00000  Uiso   1.00
O275   O     0.50000   0.53821   0.09511   0.00000  Uiso   1.00
O276   O     0.50000   0.46179   0.23822   0.00000  Uiso   1.00
O277   O     0.50000   0.53821   0.23822   0.00000  Uiso   1.00
O278   O     0.50000   0.46179   0.09511   0.00000  Uiso   1.00
Zn279  Zn    0.50000   0.55104   0.16667   0.00000  Uiso   1.00
Zn280  Zn    0.50000   0.44896   0.16667   0.00000  Uiso   1.00
C281   C     0.75358   0.49998   0.16664   0.00000  Uiso   1.00
C282   C     0.68838   0.50611   0.12072   0.00000  Uiso   1.00
C283   C     0.95732   0.49996   0.16664   0.00000  Uiso   1.00
C284   C     0.70936   0.49983   0.16661   0.00000  Uiso   1.00
C285   C     0.85965   0.35746   0.19783   0.00000  Uiso   1.00
C286   C     0.80706   0.64257   0.13548   0.00000  Uiso   1.00
C287   C     0.80704   0.35755   0.13550   0.00000  Uiso   1.00
C288   C     0.85964   0.64247   0.19784   0.00000  Uiso   1.00
C289   C     0.71459   0.48554   0.26000   0.00000  Uiso   1.00
C290   C     0.95400   0.51047   0.07141   0.00000  Uiso   1.00
C291   C     0.95507   0.48905   0.26179   0.00000  Uiso   1.00
C292   C     0.91313   0.49999   0.16666   0.00000  Uiso   1.00
C293   C     0.71354   0.51220   0.07291   0.00000  Uiso   1.00
C294   C     0.83279   0.50001   0.07292   0.00000  Uiso   1.00
C295   C     0.83297   0.49999   0.26041   0.00000  Uiso   1.00
C296   C     0.83270   0.50002   0.02180   0.00000  Uiso   1.00
C297   C     0.83277   0.49998   0.31153   0.00000  Uiso   1.00
C298   C     0.68889   0.49302   0.21242   0.00000  Uiso   1.00
C299   C     0.97800   0.50563   0.12052   0.00000  Uiso   1.00
C300   C     0.97852   0.49389   0.21268   0.00000  Uiso   1.00
H301   H     0.73536   0.45584   0.25531   0.00000  Uiso   1.00
H302   H     0.73467   0.54167   0.07671   0.00000  Uiso   1.00
H303   H     0.73274   0.48161   0.06611   0.00000  Uiso   1.00
H304   H     0.69443   0.51829   0.03897   0.00000  Uiso   1.00
H305   H     0.91800   0.37328   0.22233   0.00000  Uiso   1.00
H306   H     0.88064   0.37323   0.26729   0.00000  Uiso   1.00
H307   H     0.74877   0.62688   0.11077   0.00000  Uiso   1.00
H308   H     0.78626   0.62688   0.06595   0.00000  Uiso   1.00
H309   H     0.74868   0.37351   0.11110   0.00000  Uiso   1.00
H310   H     0.78598   0.37341   0.06605   0.00000  Uiso   1.00
H311   H     0.91799   0.62660   0.22233   0.00000  Uiso   1.00
H312   H     0.73418   0.51572   0.26766   0.00000  Uiso   1.00
H313   H     0.88063   0.62660   0.26730   0.00000  Uiso   1.00
H314   H     0.69581   0.47886   0.29376   0.00000  Uiso   1.00
H315   H     0.91960   0.50825   0.07507   0.00000  Uiso   1.00
H316   H     0.96086   0.54375   0.05428   0.00000  Uiso   1.00
H317   H     0.96325   0.48303   0.04550   0.00000  Uiso   1.00
H318   H     0.92068   0.49222   0.25826   0.00000  Uiso   1.00
H319   H     0.96144   0.45540   0.27840   0.00000  Uiso   1.00
H320   H     0.96524   0.51591   0.28807   0.00000  Uiso   1.00
N321   N     0.83333   0.61907   0.16667   0.00000  Uiso   1.00
N322   N     0.83333   0.38093   0.16667   0.00000  Uiso   1.00
N323   N     0.88707   0.38218   0.23031   0.00000  Uiso   1.00
N324   N     0.77971   0.61792   0.10290   0.00000  Uiso   1.00
N325   N     0.77961   0.38235   0.10303   0.00000  Uiso   1.00
N326   N     0.88707   0.61768   0.23033   0.00000  Uiso   1.00
O327   O     0.77226   0.53821   0.16666   0.00000  Uiso   1.00
O328   O     0.89441   0.46179   0.16667   0.00000  Uiso   1.00
O329   O     0.89441   0.53821   0.16667   0.00000  Uiso   1.00
O330   O     0.77226   0.46179   0.16666   0.00000  Uiso   1.00
O331   O     0.83334   0.53821   0.09511   0.00000  Uiso   1.00
O332   O     0.83333   0.46179   0.23822   0.00000  Uiso   1.00
O333   O     0.83333   0.53821   0.23822   0.00000  Uiso   1.00
O334   O     0.83334   0.46179   0.09511   0.00000  Uiso   1.00
Zn335  Zn    0.83333   0.55104   0.16667   0.00000  Uiso   1.00
Zn336  Zn    0.83333   0.44896   0.16667   0.00000  Uiso   1.00
C337   C     0.08691   0.83331   0.16664   0.00000  Uiso   1.00
C338   C     0.02171   0.83945   0.12072   0.00000  Uiso   1.00
C339   C     0.29065   0.83329   0.16664   0.00000  Uiso   1.00
C340   C     0.04270   0.83316   0.16661   0.00000  Uiso   1.00
C341   C     0.19298   0.69080   0.19783   0.00000  Uiso   1.00
C342   C     0.14039   0.97591   0.13548   0.00000  Uiso   1.00
C343   C     0.14037   0.69089   0.13550   0.00000  Uiso   1.00
C344   C     0.19298   0.97580   0.19784   0.00000  Uiso   1.00
C345   C     0.04792   0.81887   0.26000   0.00000  Uiso   1.00
C346   C     0.28733   0.84380   0.07141   0.00000  Uiso   1.00
C347   C     0.28840   0.82238   0.26179   0.00000  Uiso   1.00
C348   C     0.24646   0.83333   0.16666   0.00000  Uiso   1.00
C349   C     0.04687   0.84553   0.07291   0.00000  Uiso   1.00
C350   C     0.16612   0.83335   0.07292   0.00000  Uiso   1.00
C351   C     0.16631   0.83332   0.26041   0.00000  Uiso   1.00
C352   C     0.16603   0.83335   0.02180   0.00000  Uiso   1.00
C353   C     0.16610   0.83331   0.31153   0.00000  Uiso   1.00
C354   C     0.02223   0.82635   0.21242   0.00000  Uiso   1.00
C355   C     0.31133   0.83897   0.12052   0.00000  Uiso   1.00
C356   C     0.31185   0.82722   0.21268   0.00000  Uiso   1.00
H357   H     0.06869   0.78917   0.25531   0.00000  Uiso   1.00
H358   H     0.06800   0.87500   0.07671   0.00000  Uiso   1.00
H359   H     0.06607   0.81494   0.06611   0.00000  Uiso   1.00
H360   H     0.02776   0.85163   0.03897   0.00000  Uiso   1.00
H361   H     0.25133   0.70661   0.22233   0.00000  Uiso   1.00
H362   H     0.21397   0.70656   0.26729   0.00000  Uiso   1.00
H363   H     0.08210   0.96021   0.11077   0.00000  Uiso   1.00
H364   H     0.11959   0.96021   0.06595   0.00000  Uiso   1.00
H365   H     0.08202   0.70684   0.11110   0.00000  Uiso   1.00
H366   H     0.11931   0.70674   0.06605   0.00000  Uiso   1.00
H367   H     0.25133   0.95993   0.22233   0.00000  Uiso   1.00
H368   H     0.06751   0.84905   0.26766   0.00000  Uiso   1.00
H369   H     0.21397   0.95993   0.26730   0.00000  Uiso   1.00
H370   H     0.02915   0.81219   0.29376   0.00000  Uiso   1.00
H371   H     0.25294   0.84159   0.07507   0.00000  Uiso   1.00
H372   H     0.29420   0.87708   0.05428   0.00000  Uiso   1.00
H373   H     0.29659   0.81637   0.04550   0.00000  Uiso   1.00
H374   H     0.25402   0.82555   0.25826   0.00000  Uiso   1.00
H375   H     0.29478   0.78874   0.27840   0.00000  Uiso   1.00
H376   H     0.29857   0.84925   0.28807   0.00000  Uiso   1.00
N377   N     0.16667   0.95240   0.16667   0.00000  Uiso   1.00
N378   N     0.16667   0.71427   0.16667   0.00000  Uiso   1.00
N379   N     0.22041   0.71552   0.23031   0.00000  Uiso   1.00
N380   N     0.11304   0.95126   0.10290   0.00000  Uiso   1.00
N381   N     0.11294   0.71569   0.10303   0.00000  Uiso   1.00
N382   N     0.22040   0.95102   0.23033   0.00000  Uiso   1.00
O383   O     0.10559   0.87154   0.16666   0.00000  Uiso   1.00
O384   O     0.22774   0.79513   0.16667   0.00000  Uiso   1.00
O385   O     0.22774   0.87154   0.16667   0.00000  Uiso   1.00
O386   O     0.10559   0.79513   0.16666   0.00000  Uiso   1.00
O387   O     0.16667   0.87155   0.09511   0.00000  Uiso   1.00
O388   O     0.16666   0.79512   0.23822   0.00000  Uiso   1.00
O389   O     0.16666   0.87155   0.23822   0.00000  Uiso   1.00
O390   O     0.16667   0.79512   0.09511   0.00000  Uiso   1.00
Zn391  Zn    0.16667   0.88437   0.16667   0.00000  Uiso   1.00
Zn392  Zn    0.16667   0.78229   0.16667   0.00000  Uiso   1.00
C393   C     0.42024   0.83331   0.16664   0.00000  Uiso   1.00
C394   C     0.35505   0.83945   0.12072   0.00000  Uiso   1.00
C395   C     0.62398   0.83329   0.16664   0.00000  Uiso   1.00
C396   C     0.37603   0.83316   0.16661   0.00000  Uiso   1.00
C397   C     0.52631   0.69080   0.19783   0.00000  Uiso   1.00
C398   C     0.47373   0.97591   0.13548   0.00000  Uiso   1.00
C399   C     0.47371   0.69089   0.13550   0.00000  Uiso   1.00
C400   C     0.52631   0.97580   0.19784   0.00000  Uiso   1.00
C401   C     0.38125   0.81887   0.26000   0.00000  Uiso   1.00
C402   C     0.62067   0.84380   0.07141   0.00000  Uiso   1.00
C403   C     0.62173   0.82238   0.26179   0.00000  Uiso   1.00
C404   C     0.57979   0.83333   0.16666   0.00000  Uiso   1.00
C405   C     0.38020   0.84553   0.07291   0.00000  Uiso   1.00
C406   C     0.49945   0.83335   0.07292   0.00000  Uiso   1.00
C407   C     0.49964   0.83332   0.26041   0.00000  Uiso   1.00
C408   C     0.49936   0.83335   0.02180   0.00000  Uiso   1.00
C409   C     0.49944   0.83331   0.31153   0.00000  Uiso   1.00
C410   C     0.35556   0.82635   0.21242   0.00000  Uiso   1.00
C411   C     0.64466   0.83897   0.12052   0.00000  Uiso   1.00
C412   C     0.64518   0.82722   0.21268   0.00000  Uiso   1.00
H413   H     0.40203   0.78917   0.25531   0.00000  Uiso   1.00
H414   H     0.40134   0.87500   0.07671   0.00000  Uiso   1.00
H415   H     0.39941   0.81494   0.06611   0.00000  Uiso   1.00
H416   H     0.36109   0.85163   0.03897   0.00000  Uiso   1.00
H417   H     0.58467   0.70661   0.22233   0.00000  Uiso   1.00
H418   H     0.54731   0.70656   0.26729   0.00000  Uiso   1.00
H419   H     0.41543   0.96021   0.11077   0.00000  Uiso   1.00
H420   H     0.45293   0.96021   0.06595   0.00000  Uiso   1.00
H421   H     0.41535   0.70684   0.11110   0.00000  Uiso   1.00
H422   H     0.45265   0.70674   0.06605   0.00000  Uiso   1.00
H423   H     0.58466   0.95993   0.22233   0.00000  Uiso   1.00
H424   H     0.40085   0.84905   0.26766   0.00000  Uiso   1.00
H425   H     0.54730   0.95993   0.26730   0.00000  Uiso   1.00
H426   H     0.36248   0.81219   0.29376   0.00000  Uiso   1.00
H427   H     0.58627   0.84159   0.07507   0.00000  Uiso   1.00
H428   H     0.62753   0.87708   0.05428   0.00000  Uiso   1.00
H429   H     0.62992   0.81637   0.04550   0.00000  Uiso   1.00
H430   H     0.58735   0.82555   0.25826   0.00000  Uiso   1.00
H431   H     0.62811   0.78874   0.27840   0.00000  Uiso   1.00
H432   H     0.63191   0.84925   0.28807   0.00000  Uiso   1.00
N433   N     0.50000   0.95240   0.16667   0.00000  Uiso   1.00
N434   N     0.50000   0.71427   0.16667   0.00000  Uiso   1.00
N435   N     0.55374   0.71552   0.23031   0.00000  Uiso   1.00
N436   N     0.44638   0.95126   0.10290   0.00000  Uiso   1.00
N437   N     0.44628   0.71569   0.10303   0.00000  Uiso   1.00
N438   N     0.55373   0.95102   0.23033   0.00000  Uiso   1.00
O439   O     0.43892   0.87154   0.16666   0.00000  Uiso   1.00
O440   O     0.56108   0.79513   0.16667   0.00000  Uiso   1.00
O441   O     0.56108   0.87154   0.16667   0.00000  Uiso   1.00
O442   O     0.43892   0.79513   0.16666   0.00000  Uiso   1.00
O443   O     0.50000   0.87155   0.09511   0.00000  Uiso   1.00
O444   O     0.50000   0.79512   0.23822   0.00000  Uiso   1.00
O445   O     0.50000   0.87155   0.23822   0.00000  Uiso   1.00
O446   O     0.50000   0.79512   0.09511   0.00000  Uiso   1.00
Zn447  Zn    0.50000   0.88437   0.16667   0.00000  Uiso   1.00
Zn448  Zn    0.50000   0.78229   0.16667   0.00000  Uiso   1.00
C449   C     0.75358   0.83331   0.16664   0.00000  Uiso   1.00
C450   C     0.68838   0.83945   0.12072   0.00000  Uiso   1.00
C451   C     0.95732   0.83329   0.16664   0.00000  Uiso   1.00
C452   C     0.70936   0.83316   0.16661   0.00000  Uiso   1.00
C453   C     0.85965   0.69080   0.19783   0.00000  Uiso   1.00
C454   C     0.80706   0.97591   0.13548   0.00000  Uiso   1.00
C455   C     0.80704   0.69089   0.13550   0.00000  Uiso   1.00
C456   C     0.85964   0.97580   0.19784   0.00000  Uiso   1.00
C457   C     0.71459   0.81887   0.26000   0.00000  Uiso   1.00
C458   C     0.95400   0.84380   0.07141   0.00000  Uiso   1.00
C459   C     0.95507   0.82238   0.26179   0.00000  Uiso   1.00
C460   C     0.91313   0.83333   0.16666   0.00000  Uiso   1.00
C461   C     0.71354   0.84553   0.07291   0.00000  Uiso   1.00
C462   C     0.83279   0.83335   0.07292   0.00000  Uiso   1.00
C463   C     0.83297   0.83332   0.26041   0.00000  Uiso   1.00
C464   C     0.83270   0.83335   0.02180   0.00000  Uiso   1.00
C465   C     0.83277   0.83331   0.31153   0.00000  Uiso   1.00
C466   C     0.68889   0.82635   0.21242   0.00000  Uiso   1.00
C467   C     0.97800   0.83897   0.12052   0.00000  Uiso   1.00
C468   C     0.97852   0.82722   0.21268   0.00000  Uiso   1.00
H469   H     0.73536   0.78917   0.25531   0.00000  Uiso   1.00
H470   H     0.73467   0.87500   0.07671   0.00000  Uiso   1.00
H471   H     0.73274   0.81494   0.06611   0.00000  Uiso   1.00
H472   H     0.69443   0.85163   0.03897   0.00000  Uiso   1.00
H473   H     0.91800   0.70661   0.22233   0.00000  Uiso   1.00
H474   H     0.88064   0.70656   0.26729   0.00000  Uiso   1.00
H475   H     0.74877   0.96021   0.11077   0.00000  Uiso   1.00
H476   H     0.78626   0.96021   0.06595   0.00000  Uiso   1.00
H477   H     0.74868   0.70684   0.11110   0.00000  Uiso   1.00
H478   H     0.78598   0.70674   0.06605   0.00000  Uiso   1.00
H479   H     0.91799   0.95993   0.22233   0.00000  Uiso   1.00
H480   H     0.73418   0.84905   0.26766   0.00000  Uiso   1.00
H481   H     0.88063   0.95993   0.26730   0.00000  Uiso   1.00
H482   H     0.69581   0.81219   0.29376   0.00000  Uiso   1.00
H483   H     0.91960   0.84159   0.07507   0.00000  Uiso   1.00
H484   H     0.96086   0.87708   0.05428   0.00000  Uiso   1.00
H485   H     0.96325   0.81637   0.04550   0.00000  Uiso   1.00
H486   H     0.92068   0.82555   0.25826   0.00000  Uiso   1.00
H487   H     0.96144   0.78874   0.27840   0.00000  Uiso   1.00
H488   H     0.96524   0.84925   0.28807   0.00000  Uiso   1.00
N489   N     0.83333   0.95240   0.16667   0.00000  Uiso   1.00
N490   N     0.83333   0.71427   0.16667   0.00000  Uiso   1.00
N491   N     0.88707   0.71552   0.23031   0.00000  Uiso   1.00
N492   N     0.77971   0.95126   0.10290   0.00000  Uiso   1.00
N493   N     0.77961   0.71569   0.10303   0.00000  Uiso   1.00
N494   N     0.88707   0.95102   0.23033   0.00000  Uiso   1.00
O495   O     0.77226   0.87154   0.16666   0.00000  Uiso   1.00
O496   O     0.89441   0.79513   0.16667   0.00000  Uiso   1.00
O497   O     0.89441   0.87154   0.16667   0.00000  Uiso   1.00
O498   O     0.77226   0.79513   0.16666   0.00000  Uiso   1.00
O499   O     0.83334   0.87155   0.09511   0.00000  Uiso   1.00
O500   O     0.83333   0.79512   0.23822   0.00000  Uiso   1.00
O501   O     0.83333   0.87155   0.23822   0.00000  Uiso   1.00
O502   O     0.83334   0.79512   0.09511   0.00000  Uiso   1.00
Zn503  Zn    0.83333   0.88437   0.16667   0.00000  Uiso   1.00
Zn504  Zn    0.83333   0.78229   0.16667   0.00000  Uiso   1.00
C505   C     0.08691   0.16665   0.49997   0.00000  Uiso   1.00
C506   C     0.02171   0.17278   0.45405   0.00000  Uiso   1.00
C507   C     0.29065   0.16662   0.49997   0.00000  Uiso   1.00
C508   C     0.04270   0.16650   0.49995   0.00000  Uiso   1.00
C509   C     0.19298   0.02413   0.53117   0.00000  Uiso   1.00
C510   C     0.14039   0.30924   0.46881   0.00000  Uiso   1.00
C511   C     0.14037   0.02422   0.46883   0.00000  Uiso   1.00
C512   C     0.19298   0.30913   0.53117   0.00000  Uiso   1.00
C513   C     0.04792   0.15220   0.59334   0.00000  Uiso   1.00
C514   C     0.28733   0.17713   0.40474   0.00000  Uiso   1.00
C515   C     0.28840   0.15572   0.59512   0.00000  Uiso   1.00
C516   C     0.24646   0.16666   0.50000   0.00000  Uiso   1.00
C517   C     0.04687   0.17887   0.40624   0.00000  Uiso   1.00
C518   C     0.16612   0.16668   0.40625   0.00000  Uiso   1.00
C519   C     0.16631   0.16665   0.59374   0.00000  Uiso   1.00
C520   C     0.16603   0.16669   0.35513   0.00000  Uiso   1.00
C521   C     0.16610   0.16664   0.64486   0.00000  Uiso   1.00
C522   C     0.02223   0.15969   0.54575   0.00000  Uiso   1.00
C523   C     0.31133   0.17230   0.45386   0.00000  Uiso   1.00
C524   C     0.31185   0.16056   0.54602   0.00000  Uiso   1.00
H525   H     0.06869   0.12251   0.58864   0.00000  Uiso   1.00
H526   H     0.06800   0.20833   0.41004   0.00000  Uiso   1.00
H527   H     0.06607   0.14828   0.39945   0.00000  Uiso   1.00
H528   H     0.02776   0.18496   0.37230   0.00000  Uiso   1.00
H529   H     0.25133   0.03995   0.55566   0.00000  Uiso   1.00
H530   H     0.21397   0.03990   0.60062   0.00000  Uiso   1.00
H531   H     0.08210   0.29355   0.44410   0.00000  Uiso   1.00
H532   H     0.11959   0.29354   0.39928   0.00000  Uiso   1.00
H533   H     0.08202   0.04017   0.44443   0.00000  Uiso   1.00
H534   H     0.11931   0.04008   0.39938   0.00000  Uiso   1.00
H535   H     0.25133   0.29326   0.55566   0.00000  Uiso   1.00
H536   H     0.06751   0.18238   0.60100   0.00000  Uiso   1.00
H537   H     0.21397   0.29326   0.60064   0.00000  Uiso   1.00
H538   H     0.02915   0.14553   0.62709   0.00000  Uiso   1.00
H539   H     0.25294   0.17492   0.40840   0.00000  Uiso   1.00
H540   H     0.29420   0.21042   0.38762   0.00000  Uiso   1.00
H541   H     0.29659   0.14970   0.37884   0.00000  Uiso   1.00
H542   H     0.25402   0.15889   0.59159   0.00000  Uiso   1.00
H543   H     0.29478   0.12207   0.61173   0.00000  Uiso   1.00
H544   H     0.29857   0.18258   0.62141   0.00000  Uiso   1.00
N545   N     0.16667   0.28573   0.50000   0.00000  Uiso   1.00
N546   N     0.16667   0.04760   0.50000   0.00000  Uiso   1.00
N547   N     0.22041   0.04885   0.56364   0.00000  Uiso   1.00
N548   N     0.11304   0.28459   0.43623   0.00000  Uiso   1.00
N549   N     0.11294   0.04902   0.43636   0.00000  Uiso   1.00
N550   N     0.22040   0.28435   0.56366   0.00000  Uiso   1.00
O551   O     0.10559   0.20487   0.50000   0.00000  Uiso   1.00
O552   O     0.22774   0.12846   0.50000   0.00000  Uiso   1.00
O553   O     0.22774   0.20487   0.50000   0.00000  Uiso   1.00
O554   O     0.10559   0.12846   0.50000   0.00000  Uiso   1.00
O555   O     0.16667   0.20488   0.42845   0.00000  Uiso   1.00
O556   O     0.16666   0.12845   0.57155   0.00000  Uiso   1.00
O557   O     0.16666   0.20488   0.57155   0.00000  Uiso   1.00
O558   O     0.16667   0.12845   0.42845   0.00000  Uiso   1.00
Zn559  Zn    0.16667   0.21771   0.50000   0.00000  Uiso   1.00
Zn560  Zn    0.16667   0.11563   0.50000   0.00000  Uiso   1.00
C561   C     0.42024   0.16665   0.49997   0.00000  Uiso   1.00
C562   C     0.35505   0.17278   0.45405   0.00000  Uiso   1.00
C563   C     0.62398   0.16662   0.49997   0.00000  Uiso   1.00
C564   C     0.37603   0.16650   0.49995   0.00000  Uiso   1.00
C565   C     0.52631   0.02413   0.53117   0.00000  Uiso   1.00
C566   C     0.47373   0.30924   0.46881   0.00000  Uiso   1.00
C567   C     0.47371   0.02422   0.46883   0.00000  Uiso   1.00
C568   C     0.52631   0.30913   0.53117   0.00000  Uiso   1.00
C569   C     0.38125   0.15220   0.59334   0.00000  Uiso   1.00
C570   C     0.62067   0.17713   0.40474   0.00000  Uiso   1.00
C571   C     0.62173   0.15572   0.59512   0.00000  Uiso   1.00
C572   C     0.57979   0.16666   0.50000   0.00000  Uiso   1.00
C573   C     0.38020   0.17887   0.40624   0.00000  Uiso   1.00
C574   C     0.49945   0.16668   0.40625   0.00000  Uiso   1.00
C575   C     0.49964   0.16665   0.59374   0.00000  Uiso   1.00
C576   C     0.49936   0.16669   0.35513   0.00000  Uiso   1.00
C577   C     0.49944   0.16664   0.64486   0.00000  Uiso   1.00
C578   C     0.35556   0.15969   0.54575   0.00000  Uiso   1.00
C579   C     0.64466   0.17230   0.45386   0.00000  Uiso   1.00
C580   C     0.64518   0.16056   0.54602   0.00000  Uiso   1.00
H581   H     0.40203   0.12251   0.58864   0.00000  Uiso   1.00
H582   H     0.40134   0.20833   0.41004   0.00000  Uiso   1.00
H583   H     0.39941   0.14828   0.39945   0.00000  Uiso   1.00
H584   H     0.36109   0.18496   0.37230   0.00000  Uiso   1.00
H585   H     0.58467   0.03995   0.55566   0.00000  Uiso   1.00
H586   H     0.54731   0.03990   0.60062   0.00000  Uiso   1.00
H587   H     0.41543   0.29355   0.44410   0.00000  Uiso   1.00
H588   H     0.45293   0.29354   0.39928   0.00000  Uiso   1.00
H589   H     0.41535   0.04017   0.44443   0.00000  Uiso   1.00
H590   H     0.45265   0.04008   0.39938   0.00000  Uiso   1.00
H591   H     0.58466   0.29326   0.55566   0.00000  Uiso   1.00
H592   H     0.40085   0.18238   0.60100   0.00000  Uiso   1.00
H593   H     0.54730   0.29326   0.60064   0.00000  Uiso   1.00
H594   H     0.36248   0.14553   0.62709   0.00000  Uiso   1.00
H595   H     0.58627   0.17492   0.40840   0.00000  Uiso   1.00
H596   H     0.62753   0.21042   0.38762   0.00000  Uiso   1.00
H597   H     0.62992   0.14970   0.37884   0.00000  Uiso   1.00
H598   H     0.58735   0.15889   0.59159   0.00000  Uiso   1.00
H599   H     0.62811   0.12207   0.61173   0.00000  Uiso   1.00
H600   H     0.63191   0.18258   0.62141   0.00000  Uiso   1.00
N601   N     0.50000   0.28573   0.50000   0.00000  Uiso   1.00
N602   N     0.50000   0.04760   0.50000   0.00000  Uiso   1.00
N603   N     0.55374   0.04885   0.56364   0.00000  Uiso   1.00
N604   N     0.44638   0.28459   0.43623   0.00000  Uiso   1.00
N605   N     0.44628   0.04902   0.43636   0.00000  Uiso   1.00
N606   N     0.55373   0.28435   0.56366   0.00000  Uiso   1.00
O607   O     0.43892   0.20487   0.50000   0.00000  Uiso   1.00
O608   O     0.56108   0.12846   0.50000   0.00000  Uiso   1.00
O609   O     0.56108   0.20487   0.50000   0.00000  Uiso   1.00
O610   O     0.43892   0.12846   0.50000   0.00000  Uiso   1.00
O611   O     0.50000   0.20488   0.42845   0.00000  Uiso   1.00
O612   O     0.50000   0.12845   0.57155   0.00000  Uiso   1.00
O613   O     0.50000   0.20488   0.57155   0.00000  Uiso   1.00
O614   O     0.50000   0.12845   0.42845   0.00000  Uiso   1.00
Zn615  Zn    0.50000   0.21771   0.50000   0.00000  Uiso   1.00
Zn616  Zn    0.50000   0.11563   0.50000   0.00000  Uiso   1.00
C617   C     0.75358   0.16665   0.49997   0.00000  Uiso   1.00
C618   C     0.68838   0.17278   0.45405   0.00000  Uiso   1.00
C619   C     0.95732   0.16662   0.49997   0.00000  Uiso   1.00
C620   C     0.70936   0.16650   0.49995   0.00000  Uiso   1.00
C621   C     0.85965   0.02413   0.53117   0.00000  Uiso   1.00
C622   C     0.80706   0.30924   0.46881   0.00000  Uiso   1.00
C623   C     0.80704   0.02422   0.46883   0.00000  Uiso   1.00
C624   C     0.85964   0.30913   0.53117   0.00000  Uiso   1.00
C625   C     0.71459   0.15220   0.59334   0.00000  Uiso   1.00
C626   C     0.95400   0.17713   0.40474   0.00000  Uiso   1.00
C627   C     0.95507   0.15572   0.59512   0.00000  Uiso   1.00
C628   C     0.91313   0.16666   0.50000   0.00000  Uiso   1.00
C629   C     0.71354   0.17887   0.40624   0.00000  Uiso   1.00
C630   C     0.83279   0.16668   0.40625   0.00000  Uiso   1.00
C631   C     0.83297   0.16665   0.59374   0.00000  Uiso   1.00
C632   C     0.83270   0.16669   0.35513   0.00000  Uiso   1.00
C633   C     0.83277   0.16664   0.64486   0.00000  Uiso   1.00
C634   C     0.68889   0.15969   0.54575   0.00000  Uiso   1.00
C635   C     0.97800   0.17230   0.45386   0.00000  Uiso   1.00
C636   C     0.97852   0.16056   0.54602   0.00000  Uiso   1.00
H637   H     0.73536   0.12251   0.58864   0.00000  Uiso   1.00
H638   H     0.73467   0.20833   0.41004   0.00000  Uiso   1.00
H639   H     0.73274   0.14828   0.39945   0.00000  Uiso   1.00
H640   H     0.69443   0.18496   0.37230   0.00000  Uiso   1.00
H641   H     0.91800   0.03995   0.55566   0.00000  Uiso   1.00
H642   H     0.88064   0.03990   0.60062   0.00000  Uiso   1.00
H643   H     0.74877   0.29355   0.44410   0.00000  Uiso   1.00
H644   H     0.78626   0.29354   0.39928   0.00000  Uiso   1.00
H645   H     0.74868   0.04017   0.44443   0.00000  Uiso   1.00
H646   H     0.78598   0.04008   0.39938   0.00000  Uiso   1.00
H647   H     0.91799   0.29326   0.55566   0.00000  Uiso   1.00
H648   H     0.73418   0.18238   0.60100   0.00000  Uiso   1.00
H649   H     0.88063   0.29326   0.60064   0.00000  Uiso   1.00
H650   H     0.69581   0.14553   0.62709   0.00000  Uiso   1.00
H651   H     0.91960   0.17492   0.40840   0.00000  Uiso   1.00
H652   H     0.96086   0.21042   0.38762   0.00000  Uiso   1.00
H653   H     0.96325   0.14970   0.37884   0.00000  Uiso   1.00
H654   H     0.92068   0.15889   0.59159   0.00000  Uiso   1.00
H655   H     0.96144   0.12207   0.61173   0.00000  Uiso   1.00
H656   H     0.96524   0.18258   0.62141   0.00000  Uiso   1.00
N657   N     0.83333   0.28573   0.50000   0.00000  Uiso   1.00
N658   N     0.83333   0.04760   0.50000   0.00000  Uiso   1.00
N659   N     0.88707   0.04885   0.56364   0.00000  Uiso   1.00
N660   N     0.77971   0.28459   0.43623   0.00000  Uiso   1.00
N661   N     0.77961   0.04902   0.43636   0.00000  Uiso   1.00
N662   N     0.88707   0.28435   0.56366   0.00000  Uiso   1.00
O663   O     0.77226   0.20487   0.50000   0.00000  Uiso   1.00
O664   O     0.89441   0.12846   0.50000   0.00000  Uiso   1.00
O665   O     0.89441   0.20487   0.50000   0.00000  Uiso   1.00
O666   O     0.77226   0.12846   0.50000   0.00000  Uiso   1.00
O667   O     0.83334   0.20488   0.42845   0.00000  Uiso   1.00
O668   O     0.83333   0.12845   0.57155   0.00000  Uiso   1.00
O669   O     0.83333   0.20488   0.57155   0.00000  Uiso   1.00
O670   O     0.83334   0.12845   0.42845   0.00000  Uiso   1.00
Zn671  Zn    0.83333   0.21771   0.50000   0.00000  Uiso   1.00
Zn672  Zn    0.83333   0.11563   0.50000   0.00000  Uiso   1.00
C673   C     0.08691   0.49998   0.49997   0.00000  Uiso   1.00
C674   C     0.02171   0.50611   0.45405   0.00000  Uiso   1.00
C675   C     0.29065   0.49996   0.49997   0.00000  Uiso   1.00
C676   C     0.04270   0.49983   0.49995   0.00000  Uiso   1.00
C677   C     0.19298   0.35746   0.53117   0.00000  Uiso   1.00
C678   C     0.14039   0.64257   0.46881   0.00000  Uiso   1.00
C679   C     0.14037   0.35755   0.46883   0.00000  Uiso   1.00
C680   C     0.19298   0.64247   0.53117   0.00000  Uiso   1.00
C681   C     0.04792   0.48554   0.59334   0.00000  Uiso   1.00
C682   C     0.28733   0.51047   0.40474   0.00000  Uiso   1.00
C683   C     0.28840   0.48905   0.59512   0.00000  Uiso   1.00
C684   C     0.24646   0.49999   0.50000   0.00000  Uiso   1.00
C685   C     0.04687   0.51220   0.40624   0.00000  Uiso   1.00
C686   C     0.16612   0.50001   0.40625   0.00000  Uiso   1.00
C687   C     0.16631   0.49999   0.59374   0.00000  Uiso   1.00
C688   C     0.16603   0.50002   0.35513   0.00000  Uiso   1.00
C689   C     0.16610   0.49998   0.64486   0.00000  Uiso   1.00
C690   C     0.02223   0.49302   0.54575   0.00000  Uiso   1.00
C691   C     0.31133   0.50563   0.45386   0.00000  Uiso   1.00
C692   C     0.31185   0.49389   0.54602   0.00000  Uiso   1.00
H693   H     0.06869   0.45584   0.58864   0.00000  Uiso   1.00
H694   H     0.06800   0.54167   0.41004   0.00000  Uiso   1.00
H695   H     0.06607   0.48161   0.39945   0.00000  Uiso   1.00
H696   H     0.02776   0.51829   0.37230   0.00000  Uiso   1.00
H697   H     0.25133   0.37328   0.55566   0.00000  Uiso   1.00
H698   H     0.21397   0.37323   0.60062   0.00000  Uiso   1.00
H699   H     0.08210   0.62688   0.44410   0.00000  Uiso   1.00
H700   H     0.11959   0.62688   0.39928   0.00000  Uiso   1.00
H701   H     0.08202   0.37351   0.44443   0.00000  Uiso   1.00
H702   H     0.11931   0.37341   0.39938   0.00000  Uiso   1.00
H703   H     0.25133   0.62660   0.55566   0.00000  Uiso   1.00
H704   H     0.06751   0.51572   0.60100   0.00000  Uiso   1.00
H705   H     0.21397   0.62660   0.60064   0.00000  Uiso   1.00
H706   H     0.02915   0.47886   0.62709   0.00000  Uiso   1.00
H707   H     0.25294   0.50825   0.40840   0.00000  Uiso   1.00
H708   H     0.29420   0.54375   0.38762   0.00000  Uiso   1.00
H709   H     0.29659   0.48303   0.37884   0.00000  Uiso   1.00
H710   H     0.25402   0.49222   0.59159   0.00000  Uiso   1.00
H711   H     0.29478   0.45540   0.61173   0.00000  Uiso   1.00
H712   H     0.29857   0.51591   0.62141   0.00000  Uiso   1.00
N713   N     0.16667   0.61907   0.50000   0.00000  Uiso   1.00
N714   N     0.16667   0.38093   0.50000   0.00000  Uiso   1.00
N715   N     0.22041   0.38218   0.56364   0.00000  Uiso   1.00
N716   N     0.11304   0.61792   0.43623   0.00000  Uiso   1.00
N717   N     0.11294   0.38235   0.43636   0.00000  Uiso   1.00
N718   N     0.22040   0.61768   0.56366   0.00000  Uiso   1.00
O719   O     0.10559   0.53821   0.50000   0.00000  Uiso   1.00
O720   O     0.22774   0.46179   0.50000   0.00000  Uiso   1.00
O721   O     0.22774   0.53821   0.50000   0.00000  Uiso   1.00
O722   O     0.10559   0.46179   0.50000   0.00000  Uiso   1.00
O723   O     0.16667   0.53821   0.42845   0.00000  Uiso   1.00
O724   O     0.16666   0.46179   0.57155   0.00000  Uiso   1.00
O725   O     0.16666   0.53821   0.57155   0.00000  Uiso   1.00
O726   O     0.16667   0.46179   0.42845   0.00000  Uiso   1.00
Zn727  Zn    0.16667   0.55104   0.50000   0.00000  Uiso   1.00
Zn728  Zn    0.16667   0.44896   0.50000   0.00000  Uiso   1.00
C729   C     0.42024   0.49998   0.49997   0.00000  Uiso   1.00
C730   C     0.35505   0.50611   0.45405   0.00000  Uiso   1.00
C731   C     0.62398   0.49996   0.49997   0.00000  Uiso   1.00
C732   C     0.37603   0.49983   0.49995   0.00000  Uiso   1.00
C733   C     0.52631   0.35746   0.53117   0.00000  Uiso   1.00
C734   C     0.47373   0.64257   0.46881   0.00000  Uiso   1.00
C735   C     0.47371   0.35755   0.46883   0.00000  Uiso   1.00
C736   C     0.52631   0.64247   0.53117   0.00000  Uiso   1.00
C737   C     0.38125   0.48554   0.59334   0.00000  Uiso   1.00
C738   C     0.62067   0.51047   0.40474   0.00000  Uiso   1.00
C739   C     0.62173   0.48905   0.59512   0.00000  Uiso   1.00
C740   C     0.57979   0.49999   0.50000   0.00000  Uiso   1.00
C741   C     0.38020   0.51220   0.40624   0.00000  Uiso   1.00
C742   C     0.49945   0.50001   0.40625   0.00000  Uiso   1.00
C743   C     0.49964   0.49999   0.59374   0.00000  Uiso   1.00
C744   C     0.49936   0.50002   0.35513   0.00000  Uiso   1.00
C745   C     0.49944   0.49998   0.64486   0.00000  Uiso   1.00
C746   C     0.35556   0.49302   0.54575   0.00000  Uiso   1.00
C747   C     0.64466   0.50563   0.45386   0.00000  Uiso   1.00
C748   C     0.64518   0.49389   0.54602   0.00000  Uiso   1.00
H749   H     0.40203   0.45584   0.58864   0.00000  Uiso   1.00
H750   H     0.40134   0.54167   0.41004   0.00000  Uiso   1.00
H751   H     0.39941   0.48161   0.39945   0.00000  Uiso   1.00
H752   H     0.36109   0.51829   0.37230   0.00000  Uiso   1.00
H753   H     0.58467   0.37328   0.55566   0.00000  Uiso   1.00
H754   H     0.54731   0.37323   0.60062   0.00000  Uiso   1.00
H755   H     0.41543   0.62688   0.44410   0.00000  Uiso   1.00
H756   H     0.45293   0.62688   0.39928   0.00000  Uiso   1.00
H757   H     0.41535   0.37351   0.44443   0.00000  Uiso   1.00
H758   H     0.45265   0.37341   0.39938   0.00000  Uiso   1.00
H759   H     0.58466   0.62660   0.55566   0.00000  Uiso   1.00
H760   H     0.40085   0.51572   0.60100   0.00000  Uiso   1.00
H761   H     0.54730   0.62660   0.60064   0.00000  Uiso   1.00
H762   H     0.36248   0.47886   0.62709   0.00000  Uiso   1.00
H763   H     0.58627   0.50825   0.40840   0.00000  Uiso   1.00
H764   H     0.62753   0.54375   0.38762   0.00000  Uiso   1.00
H765   H     0.62992   0.48303   0.37884   0.00000  Uiso   1.00
H766   H     0.58735   0.49222   0.59159   0.00000  Uiso   1.00
H767   H     0.62811   0.45540   0.61173   0.00000  Uiso   1.00
H768   H     0.63191   0.51591   0.62141   0.00000  Uiso   1.00
N769   N     0.50000   0.61907   0.50000   0.00000  Uiso   1.00
N770   N     0.50000   0.38093   0.50000   0.00000  Uiso   1.00
N771   N     0.55374   0.38218   0.56364   0.00000  Uiso   1.00
N772   N     0.44638   0.61792   0.43623   0.00000  Uiso   1.00
N773   N     0.44628   0.38235   0.43636   0.00000  Uiso   1.00
N774   N     0.55373   0.61768   0.56366   0.00000  Uiso   1.00
O775   O     0.43892   0.53821   0.50000   0.00000  Uiso   1.00
O776   O     0.56108   0.46179   0.50000   0.00000  Uiso   1.00
O777   O     0.56108   0.53821   0.50000   0.00000  Uiso   1.00
O778   O     0.43892   0.46179   0.50000   0.00000  Uiso   1.00
O779   O     0.50000   0.53821   0.42845   0.00000  Uiso   1.00
O780   O     0.50000   0.46179   0.57155   0.00000  Uiso   1.00
O781   O     0.50000   0.53821   0.57155   0.00000  Uiso   1.00
O782   O     0.50000   0.46179   0.42845   0.00000  Uiso   1.00
Zn783  Zn    0.50000   0.55104   0.50000   0.00000  Uiso   1.00
Zn784  Zn    0.50000   0.44896   0.50000   0.00000  Uiso   1.00
C785   C     0.75358   0.49998   0.49997   0.00000  Uiso   1.00
C786   C     0.68838   0.50611   0.45405   0.00000  Uiso   1.00
C787   C     0.95732   0.49996   0.49997   0.00000  Uiso   1.00
C788   C     0.70936   0.49983   0.49995   0.00000  Uiso   1.00
C789   C     0.85965   0.35746   0.53117   0.00000  Uiso   1.00
C790   C     0.80706   0.64257   0.46881   0.00000  Uiso   1.00
C791   C     0.80704   0.35755   0.46883   0.00000  Uiso   1.00
C792   C     0.85964   0.64247   0.53117   0.00000  Uiso   1.00
C793   C     0.71459   0.48554   0.59334   0.00000  Uiso   1.00
C794   C     0.95400   0.51047   0.40474   0.00000  Uiso   1.00
C795   C     0.95507   0.48905   0.59512   0.00000  Uiso   1.00
C796   C     0.91313   0.49999   0.50000   0.00000  Uiso   1.00
C797   C     0.71354   0.51220   0.40624   0.00000  Uiso   1.00
C798   C     0.83279   0.50001   0.40625   0.00000  Uiso   1.00
C799   C     0.83297   0.49999   0.59374   0.00000  Uiso   1.00
C800   C     0.83270   0.50002   0.35513   0.00000  Uiso   1.00
C801   C     0.83277   0.49998   0.64486   0.00000  Uiso   1.00
C802   C     0.68889   0.49302   0.54575   0.00000  Uiso   1.00
C803   C     0.97800   0.50563   0.45386   0.00000  Uiso   1.00
C804   C     0.97852   0.49389   0.54602   0.00000  Uiso   1.00
H805   H     0.73536   0.45584   0.58864   0.00000  Uiso   1.00
H806   H     0.73467   0.54167   0.41004   0.00000  Uiso   1.00
H807   H     0.73274   0.48161   0.39945   0.00000  Uiso   1.00
H808   H     0.69443   0.51829   0.37230   0.00000  Uiso   1.00
H809   H     0.91800   0.37328   0.55566   0.00000  Uiso   1.00
H810   H     0.88064   0.37323   0.60062   0.00000  Uiso   1.00
H811   H     0.74877   0.62688   0.44410   0.00000  Uiso   1.00
H812   H     0.78626   0.62688   0.39928   0.00000  Uiso   1.00
H813   H     0.74868   0.37351   0.44443   0.00000  Uiso   1.00
H814   H     0.78598   0.37341   0.39938   0.00000  Uiso   1.00
H815   H     0.91799   0.62660   0.55566   0.00000  Uiso   1.00
H816   H     0.73418   0.51572   0.60100   0.00000  Uiso   1.00
H817   H     0.88063   0.62660   0.60064   0.00000  Uiso   1.00
H818   H     0.69581   0.47886   0.62709   0.00000  Uiso   1.00
H819   H     0.91960   0.50825   0.40840   0.00000  Uiso   1.00
H820   H     0.96086   0.54375   0.38762   0.00000  Uiso   1.00
H821   H     0.96325   0.48303   0.37884   0.00000  Uiso   1.00
H822   H     0.92068   0.49222   0.59159   0.00000  Uiso   1.00
H823   H     0.96144   0.45540   0.61173   0.00000  Uiso   1.00
H824   H     0.96524   0.51591   0.62141   0.00000  Uiso   1.00
N825   N     0.83333   0.61907   0.50000   0.00000  Uiso   1.00
N826   N     0.83333   0.38093   0.50000   0.00000  Uiso   1.00
N827   N     0.88707   0.38218   0.56364   0.00000  Uiso   1.00
N828   N     0.77971   0.61792   0.43623   0.00000  Uiso   1.00
N829   N     0.77961   0.38235   0.43636   0.00000  Uiso   1.00
N830   N     0.88707   0.61768   0.56366   0.00000  Uiso   1.00
O831   O     0.77226   0.53821   0.50000   0.00000  Uiso   1.00
O832   O     0.89441   0.46179   0.50000   0.00000  Uiso   1.00
O833   O     0.89441   0.53821   0.50000   0.00000  Uiso   1.00
O834   O     0.77226   0.46179   0.50000   0.00000  Uiso   1.00
O835   O     0.83334   0.53821   0.42845   0.00000  Uiso   1.00
O836   O     0.83333   0.46179   0.57155   0.00000  Uiso   1.00
O837   O     0.83333   0.53821   0.57155   0.00000  Uiso   1.00
O838   O     0.83334   0.46179   0.42845   0.00000  Uiso   1.00
Zn839  Zn    0.83333   0.55104   0.50000   0.00000  Uiso   1.00
Zn840  Zn    0.83333   0.44896   0.50000   0.00000  Uiso   1.00
C841   C     0.08691   0.83331   0.49997   0.00000  Uiso   1.00
C842   C     0.02171   0.83945   0.45405   0.00000  Uiso   1.00
C843   C     0.29065   0.83329   0.49997   0.00000  Uiso   1.00
C844   C     0.04270   0.83316   0.49995   0.00000  Uiso   1.00
C845   C     0.19298   0.69080   0.53117   0.00000  Uiso   1.00
C846   C     0.14039   0.97591   0.46881   0.00000  Uiso   1.00
C847   C     0.14037   0.69089   0.46883   0.00000  Uiso   1.00
C848   C     0.19298   0.97580   0.53117   0.00000  Uiso   1.00
C849   C     0.04792   0.81887   0.59334   0.00000  Uiso   1.00
C850   C     0.28733   0.84380   0.40474   0.00000  Uiso   1.00
C851   C     0.28840   0.82238   0.59512   0.00000  Uiso   1.00
C852   C     0.24646   0.83333   0.50000   0.00000  Uiso   1.00
C853   C     0.04687   0.84553   0.40624   0.00000  Uiso   1.00
C854   C     0.16612   0.83335   0.40625   0.00000  Uiso   1.00
C855   C     0.16631   0.83332   0.59374   0.00000  Uiso   1.00
C856   C     0.16603   0.83335   0.35513   0.00000  Uiso   1.00
C857   C     0.16610   0.83331   0.64486   0.00000  Uiso   1.00
C858   C     0.02223   0.82635   0.54575   0.00000  Uiso   1.00
C859   C     0.31133   0.83897   0.45386   0.00000  Uiso   1.00
C860   C     0.31185   0.82722   0.54602   0.00000  Uiso   1.00
H861   H     0.06869   0.78917   0.58864   0.00000  Uiso   1.00
H862   H     0.06800   0.87500   0.41004   0.00000  Uiso   1.00
H863   H     0.06607   0.81494   0.39945   0.00000  Uiso   1.00
H864   H     0.02776   0.85163   0.37230   0.00000  Uiso   1.00
H865   H     0.25133   0.70661   0.55566   0.00000  Uiso   1.00
H866   H     0.21397   0.70656   0.60062   0.00000  Uiso   1.00
H867   H     0.08210   0.96021   0.44410   0.00000  Uiso   1.00
H868   H     0.11959   0.96021   0.39928   0.00000  Uiso   1.00
H869   H     0.08202   0.70684   0.44443   0.00000  Uiso   1.00
H870   H     0.11931   0.70674   0.39938   0.00000  Uiso   1.00
H871   H     0.25133   0.95993   0.55566   0.00000  Uiso   1.00
H872   H     0.06751   0.84905   0.60100   0.00000  Uiso   1.00
H873   H     0.21397   0.95993   0.60064   0.00000  Uiso   1.00
H874   H     0.02915   0.81219   0.62709   0.00000  Uiso   1.00
H875   H     0.25294   0.84159   0.40840   0.00000  Uiso   1.00
H876   H     0.29420   0.87708   0.38762   0.00000  Uiso   1.00
H877   H     0.29659   0.81637   0.37884   0.00000  Uiso   1.00
H878   H     0.25402   0.82555   0.59159   0.00000  Uiso   1.00
H879   H     0.29478   0.78874   0.61173   0.00000  Uiso   1.00
H880   H     0.29857   0.84925   0.62141   0.00000  Uiso   1.00
N881   N     0.16667   0.95240   0.50000   0.00000  Uiso   1.00
N882   N     0.16667   0.71427   0.50000   0.00000  Uiso   1.00
N883   N     0.22041   0.71552   0.56364   0.00000  Uiso   1.00
N884   N     0.11304   0.95126   0.43623   0.00000  Uiso   1.00
N885   N     0.11294   0.71569   0.43636   0.00000  Uiso   1.00
N886   N     0.22040   0.95102   0.56366   0.00000  Uiso   1.00
O887   O     0.10559   0.87154   0.50000   0.00000  Uiso   1.00
O888   O     0.22774   0.79513   0.50000   0.00000  Uiso   1.00
O889   O     0.22774   0.87154   0.50000   0.00000  Uiso   1.00
O890   O     0.10559   0.79513   0.50000   0.00000  Uiso   1.00
O891   O     0.16667   0.87155   0.42845   0.00000  Uiso   1.00
O892   O     0.16666   0.79512   0.57155   0.00000  Uiso   1.00
O893   O     0.16666   0.87155   0.57155   0.00000  Uiso   1.00
O894   O     0.16667   0.79512   0.42845   0.00000  Uiso   1.00
Zn895  Zn    0.16667   0.88437   0.50000   0.00000  Uiso   1.00
Zn896  Zn    0.16667   0.78229   0.50000   0.00000  Uiso   1.00
C897   C     0.42024   0.83331   0.49997   0.00000  Uiso   1.00
C898   C     0.35505   0.83945   0.45405   0.00000  Uiso   1.00
C899   C     0.62398   0.83329   0.49997   0.00000  Uiso   1.00
C900   C     0.37603   0.83316   0.49995   0.00000  Uiso   1.00
C901   C     0.52631   0.69080   0.53117   0.00000  Uiso   1.00
C902   C     0.47373   0.97591   0.46881   0.00000  Uiso   1.00
C903   C     0.47371   0.69089   0.46883   0.00000  Uiso   1.00
C904   C     0.52631   0.97580   0.53117   0.00000  Uiso   1.00
C905   C     0.38125   0.81887   0.59334   0.00000  Uiso   1.00
C906   C     0.62067   0.84380   0.40474   0.00000  Uiso   1.00
C907   C     0.62173   0.82238   0.59512   0.00000  Uiso   1.00
C908   C     0.57979   0.83333   0.50000   0.00000  Uiso   1.00
C909   C     0.38020   0.84553   0.40624   0.00000  Uiso   1.00
C910   C     0.49945   0.83335   0.40625   0.00000  Uiso   1.00
C911   C     0.49964   0.83332   0.59374   0.00000  Uiso   1.00
C912   C     0.49936   0.83335   0.35513   0.00000  Uiso   1.00
C913   C     0.49944   0.83331   0.64486   0.00000  Uiso   1.00
C914   C     0.35556   0.82635   0.54575   0.00000  Uiso   1.00
C915   C     0.64466   0.83897   0.45386   0.00000  Uiso   1.00
C916   C     0.64518   0.82722   0.54602   0.00000  Uiso   1.00
H917   H     0.40203   0.78917   0.58864   0.00000  Uiso   1.00
H918   H     0.40134   0.87500   0.41004   0.00000  Uiso   1.00
H919   H     0.39941   0.81494   0.39945   0.00000  Uiso   1.00
H920   H     0.36109   0.85163   0.37230   0.00000  Uiso   1.00
H921   H     0.58467   0.70661   0.55566   0.00000  Uiso   1.00
H922   H     0.54731   0.70656   0.60062   0.00000  Uiso   1.00
H923   H     0.41543   0.96021   0.44410   0.00000  Uiso   1.00
H924   H     0.45293   0.96021   0.39928   0.00000  Uiso   1.00
H925   H     0.41535   0.70684   0.44443   0.00000  Uiso   1.00
H926   H     0.45265   0.70674   0.39938   0.00000  Uiso   1.00
H927   H     0.58466   0.95993   0.55566   0.00000  Uiso   1.00
H928   H     0.40085   0.84905   0.60100   0.00000  Uiso   1.00
H929   H     0.54730   0.95993   0.60064   0.00000  Uiso   1.00
H930   H     0.36248   0.81219   0.62709   0.00000  Uiso   1.00
H931   H     0.58627   0.84159   0.40840   0.00000  Uiso   1.00
H932   H     0.62753   0.87708   0.38762   0.00000  Uiso   1.00
H933   H     0.62992   0.81637   0.37884   0.00000  Uiso   1.00
H934   H     0.58735   0.82555   0.59159   0.00000  Uiso   1.00
H935   H     0.62811   0.78874   0.61173   0.00000  Uiso   1.00
H936   H     0.63191   0.84925   0.62141   0.00000  Uiso   1.00
N937   N     0.50000   0.95240   0.50000   0.00000  Uiso   1.00
N938   N     0.50000   0.71427   0.50000   0.00000  Uiso   1.00
N939   N     0.55374   0.71552   0.56364   0.00000  Uiso   1.00
N940   N     0.44638   0.95126   0.43623   0.00000  Uiso   1.00
N941   N     0.44628   0.71569   0.43636   0.00000  Uiso   1.00
N942   N     0.55373   0.95102   0.56366   0.00000  Uiso   1.00
O943   O     0.43892   0.87154   0.50000   0.00000  Uiso   1.00
O944   O     0.56108   0.79513   0.50000   0.00000  Uiso   1.00
O945   O     0.56108   0.87154   0.50000   0.00000  Uiso   1.00
O946   O     0.43892   0.79513   0.50000   0.00000  Uiso   1.00
O947   O     0.50000   0.87155   0.42845   0.00000  Uiso   1.00
O948   O     0.50000   0.79512   0.57155   0.00000  Uiso   1.00
O949   O     0.50000   0.87155   0.57155   0.00000  Uiso   1.00
O950   O     0.50000   0.79512   0.42845   0.00000  Uiso   1.00
Zn951  Zn    0.50000   0.88437   0.50000   0.00000  Uiso   1.00
Zn952  Zn    0.50000   0.78229   0.50000   0.00000  Uiso   1.00
C953   C     0.75358   0.83331   0.49997   0.00000  Uiso   1.00
C954   C     0.68838   0.83945   0.45405   0.00000  Uiso   1.00
C955   C     0.95732   0.83329   0.49997   0.00000  Uiso   1.00
C956   C     0.70936   0.83316   0.49995   0.00000  Uiso   1.00
C957   C     0.85965   0.69080   0.53117   0.00000  Uiso   1.00
C958   C     0.80706   0.97591   0.46881   0.00000  Uiso   1.00
C959   C     0.80704   0.69089   0.46883   0.00000  Uiso   1.00
C960   C     0.85964   0.97580   0.53117   0.00000  Uiso   1.00
C961   C     0.71459   0.81887   0.59334   0.00000  Uiso   1.00
C962   C     0.95400   0.84380   0.40474   0.00000  Uiso   1.00
C963   C     0.95507   0.82238   0.59512   0.00000  Uiso   1.00
C964   C     0.91313   0.83333   0.50000   0.00000  Uiso   1.00
C965   C     0.71354   0.84553   0.40624   0.00000  Uiso   1.00
C966   C     0.83279   0.83335   0.40625   0.00000  Uiso   1.00
C967   C     0.83297   0.83332   0.59374   0.00000  Uiso   1.00
C968   C     0.83270   0.83335   0.35513   0.00000  Uiso   1.00
C969   C     0.83277   0.83331   0.64486   0.00000  Uiso   1.00
C970   C     0.68889   0.82635   0.54575   0.00000  Uiso   1.00
C971   C     0.97800   0.83897   0.45386   0.00000  Uiso   1.00
C972   C     0.97852   0.82722   0.54602   0.00000  Uiso   1.00
H973   H     0.73536   0.78917   0.58864   0.00000  Uiso   1.00
H974   H     0.73467   0.87500   0.41004   0.00000  Uiso   1.00
H975   H     0.73274   0.81494   0.39945   0.00000  Uiso   1.00
H976   H     0.69443   0.85163   0.37230   0.00000  Uiso   1.00
H977   H     0.91800   0.70661   0.55566   0.00000  Uiso   1.00
H978   H     0.88064   0.70656   0.60062   0.00000  Uiso   1.00
H979   H     0.74877   0.96021   0.44410   0.00000  Uiso   1.00
H980   H     0.78626   0.96021   0.39928   0.00000  Uiso   1.00
H981   H     0.74868   0.70684   0.44443   0.00000  Uiso   1.00
H982   H     0.78598   0.70674   0.39938   0.00000  Uiso   1.00
H983   H     0.91799   0.95993   0.55566   0.00000  Uiso   1.00
H984   H     0.73418   0.84905   0.60100   0.00000  Uiso   1.00
H985   H     0.88063   0.95993   0.60064   0.00000  Uiso   1.00
H986   H     0.69581   0.81219   0.62709   0.00000  Uiso   1.00
H987   H     0.91960   0.84159   0.40840   0.00000  Uiso   1.00
H988   H     0.96086   0.87708   0.38762   0.00000  Uiso   1.00
H989   H     0.96325   0.81637   0.37884   0.00000  Uiso   1.00
H990   H     0.92068   0.82555   0.59159   0.00000  Uiso   1.00
H991   H     0.96144   0.78874   0.61173   0.00000  Uiso   1.00
H992   H     0.96524   0.84925   0.62141   0.00000  Uiso   1.00
N993   N     0.83333   0.95240   0.50000   0.00000  Uiso   1.00
N994   N     0.83333   0.71427   0.50000   0.00000  Uiso   1.00
N995   N     0.88707   0.71552   0.56364   0.00000  Uiso   1.00
N996   N     0.77971   0.95126   0.43623   0.00000  Uiso   1.00
N997   N     0.77961   0.71569   0.43636   0.00000  Uiso   1.00
N998   N     0.88707   0.95102   0.56366   0.00000  Uiso   1.00
O999   O     0.77226   0.87154   0.50000   0.00000  Uiso   1.00
O1000  O     0.89441   0.79513   0.50000   0.00000  Uiso   1.00
O1001  O     0.89441   0.87154   0.50000   0.00000  Uiso   1.00
O1002  O     0.77226   0.79513   0.50000   0.00000  Uiso   1.00
O1003  O     0.83334   0.87155   0.42845   0.00000  Uiso   1.00
O1004  O     0.83333   0.79512   0.57155   0.00000  Uiso   1.00
O1005  O     0.83333   0.87155   0.57155   0.00000  Uiso   1.00
O1006  O     0.83334   0.79512   0.42845   0.00000  Uiso   1.00
Zn1007 Zn    0.83333   0.88437   0.50000   0.00000  Uiso   1.00
Zn1008 Zn    0.83333   0.78229   0.50000   0.00000  Uiso   1.00
C1009  C     0.08691   0.16665   0.83331   0.00000  Uiso   1.00
C1010  C     0.02171   0.17278   0.78739   0.00000  Uiso   1.00
C1011  C     0.29065   0.16662   0.83330   0.00000  Uiso   1.00
C1012  C     0.04270   0.16650   0.83328   0.00000  Uiso   1.00
C1013  C     0.19298   0.02413   0.86450   0.00000  Uiso   1.00
C1014  C     0.14039   0.30924   0.80214   0.00000  Uiso   1.00
C1015  C     0.14037   0.02422   0.80216   0.00000  Uiso   1.00
C1016  C     0.19298   0.30913   0.86451   0.00000  Uiso   1.00
C1017  C     0.04792   0.15220   0.92667   0.00000  Uiso   1.00
C1018  C     0.28733   0.17713   0.73808   0.00000  Uiso   1.00
C1019  C     0.28840   0.15572   0.92845   0.00000  Uiso   1.00
C1020  C     0.24646   0.16666   0.83333   0.00000  Uiso   1.00
C1021  C     0.04687   0.17887   0.73958   0.00000  Uiso   1.00
C1022  C     0.16612   0.16668   0.73959   0.00000  Uiso   1.00
C1023  C     0.16631   0.16665   0.92708   0.00000  Uiso   1.00
C1024  C     0.16603   0.16669   0.68846   0.00000  Uiso   1.00
C1025  C     0.16610   0.16664   0.97819   0.00000  Uiso   1.00
C1026  C     0.02223   0.15969   0.87909   0.00000  Uiso   1.00
C1027  C     0.31133   0.17230   0.78719   0.00000  Uiso   1.00
C1028  C     0.31185   0.16056   0.87935   0.00000  Uiso   1.00
H1029  H     0.06869   0.12251   0.92197   0.00000  Uiso   1.00
H1030  H     0.06800   0.20833   0.74337   0.00000  Uiso   1.00
H1031  H     0.06607   0.14828   0.73278   0.00000  Uiso   1.00
H1032  H     0.02776   0.18496   0.70564   0.00000  Uiso   1.00
H1033  H     0.25133   0.03995   0.88900   0.00000  Uiso   1.00
H1034  H     0.21397   0.03990   0.93395   0.00000  Uiso   1.00
H1035  H     0.08210   0.29355   0.77744   0.00000  Uiso   1.00
H1036  H     0.11959   0.29354   0.73261   0.00000  Uiso   1.00
H1037  H     0.08202   0.04017   0.77777   0.00000  Uiso   1.00
H1038  H     0.11931   0.04008   0.73272   0.00000  Uiso   1.00
H1039  H     0.25133   0.29326   0.88900   0.00000  Uiso   1.00
H1040  H     0.06751   0.18238   0.93433   0.00000  Uiso   1.00
H1041  H     0.21397   0.29326   0.93397   0.00000  Uiso   1.00
H1042  H     0.02915   0.14553   0.96043   0.00000  Uiso   1.00
H1043  H     0.25294   0.17492   0.74174   0.00000  Uiso   1.00
H1044  H     0.29420   0.21042   0.72095   0.00000  Uiso   1.00
H1045  H     0.29659   0.14970   0.71217   0.00000  Uiso   1.00
H1046  H     0.25402   0.15889   0.92493   0.00000  Uiso   1.00
H1047  H     0.29478   0.12207   0.94506   0.00000  Uiso   1.00
H1048  H     0.29857   0.18258   0.95474   0.00000  Uiso   1.00
N1049  N     0.16667   0.28573   0.83333   0.00000  Uiso   1.00
N1050  N     0.16667   0.04760   0.83333   0.00000  Uiso   1.00
N1051  N     0.22041   0.04885   0.89697   0.00000  Uiso   1.00
N1052  N     0.11304   0.28459   0.76957   0.00000  Uiso   1.00
N1053  N     0.11294   0.04902   0.76970   0.00000  Uiso   1.00
N1054  N     0.22040   0.28435   0.89699   0.00000  Uiso   1.00
O1055  O     0.10559   0.20487   0.83333   0.00000  Uiso   1.00
O1056  O     0.22774   0.12846   0.83334   0.00000  Uiso   1.00
O1057  O     0.22774   0.20487   0.83334   0.00000  Uiso   1.00
O1058  O     0.10559   0.12846   0.83333   0.00000  Uiso   1.00
O1059  O     0.16667   0.20488   0.76178   0.00000  Uiso   1.00
O1060  O     0.16666   0.12845   0.90489   0.00000  Uiso   1.00
O1061  O     0.16666   0.20488   0.90489   0.00000  Uiso   1.00
O1062  O     0.16667   0.12845   0.76178   0.00000  Uiso   1.00
Zn1063 Zn    0.16667   0.21771   0.83333   0.00000  Uiso   1.00
Zn1064 Zn    0.16667   0.11563   0.83333   0.00000  Uiso   1.00
C1065  C     0.42024   0.16665   0.83331   0.00000  Uiso   1.00
C1066  C     0.35505   0.17278   0.78739   0.00000  Uiso   1.00
C1067  C     0.62398   0.16662   0.83330   0.00000  Uiso   1.00
C1068  C     0.37603   0.16650   0.83328   0.00000  Uiso   1.00
C1069  C     0.52631   0.02413   0.86450   0.00000  Uiso   1.00
C1070  C     0.47373   0.30924   0.80214   0.00000  Uiso   1.00
C1071  C     0.47371   0.02422   0.80216   0.00000  Uiso   1.00
C1072  C     0.52631   0.30913   0.86451   0.00000  Uiso   1.00
C1073  C     0.38125   0.15220   0.92667   0.00000  Uiso   1.00
C1074  C     0.62067   0.17713   0.73808   0.00000  Uiso   1.00
C1075  C     0.62173   0.15572   0.92845   0.00000  Uiso   1.00
C1076  C     0.57979   0.16666   0.83333   0.00000  Uiso   1.00
C1077  C     0.38020   0.17887   0.73958   0.00000  Uiso   1.00
C1078  C     0.49945   0.16668   0.73959   0.00000  Uiso   1.00
C1079  C     0.49964   0.16665   0.92708   0.00000  Uiso   1.00
C1080  C     0.49936   0.16669   0.68846   0.00000  Uiso   1.00
C1081  C     0.49944   0.16664   0.97819   0.00000  Uiso   1.00
C1082  C     0.35556   0.15969   0.87909   0.00000  Uiso   1.00
C1083  C     0.64466   0.17230   0.78719   0.00000  Uiso   1.00
C1084  C     0.64518   0.16056   0.87935   0.00000  Uiso   1.00
H1085  H     0.40203   0.12251   0.92197   0.00000  Uiso   1.00
H1086  H     0.40134   0.20833   0.74337   0.00000  Uiso   1.00
H1087  H     0.39941   0.14828   0.73278   0.00000  Uiso   1.00
H1088  H     0.36109   0.18496   0.70564   0.00000  Uiso   1.00
H1089  H     0.58467   0.03995   0.88900   0.00000  Uiso   1.00
H1090  H     0.54731   0.03990   0.93395   0.00000  Uiso   1.00
H1091  H     0.41543   0.29355   0.77744   0.00000  Uiso   1.00
H1092  H     0.45293   0.29354   0.73261   0.00000  Uiso   1.00
H1093  H     0.41535   0.04017   0.77777   0.00000  Uiso   1.00
H1094  H     0.45265   0.04008   0.73272   0.00000  Uiso   1.00
H1095  H     0.58466   0.29326   0.88900   0.00000  Uiso   1.00
H1096  H     0.40085   0.18238   0.93433   0.00000  Uiso   1.00
H1097  H     0.54730   0.29326   0.93397   0.00000  Uiso   1.00
H1098  H     0.36248   0.14553   0.96043   0.00000  Uiso   1.00
H1099  H     0.58627   0.17492   0.74174   0.00000  Uiso   1.00
H1100  H     0.62753   0.21042   0.72095   0.00000  Uiso   1.00
H1101  H     0.62992   0.14970   0.71217   0.00000  Uiso   1.00
H1102  H     0.58735   0.15889   0.92493   0.00000  Uiso   1.00
H1103  H     0.62811   0.12207   0.94506   0.00000  Uiso   1.00
H1104  H     0.63191   0.18258   0.95474   0.00000  Uiso   1.00
N1105  N     0.50000   0.28573   0.83333   0.00000  Uiso   1.00
N1106  N     0.50000   0.04760   0.83333   0.00000  Uiso   1.00
N1107  N     0.55374   0.04885   0.89697   0.00000  Uiso   1.00
N1108  N     0.44638   0.28459   0.76957   0.00000  Uiso   1.00
N1109  N     0.44628   0.04902   0.76970   0.00000  Uiso   1.00
N1110  N     0.55373   0.28435   0.89699   0.00000  Uiso   1.00
O1111  O     0.43892   0.20487   0.83333   0.00000  Uiso   1.00
O1112  O     0.56108   0.12846   0.83334   0.00000  Uiso   1.00
O1113  O     0.56108   0.20487   0.83334   0.00000  Uiso   1.00
O1114  O     0.43892   0.12846   0.83333   0.00000  Uiso   1.00
O1115  O     0.50000   0.20488   0.76178   0.00000  Uiso   1.00
O1116  O     0.50000   0.12845   0.90489   0.00000  Uiso   1.00
O1117  O     0.50000   0.20488   0.90489   0.00000  Uiso   1.00
O1118  O     0.50000   0.12845   0.76178   0.00000  Uiso   1.00
Zn1119 Zn    0.50000   0.21771   0.83333   0.00000  Uiso   1.00
Zn1120 Zn    0.50000   0.11563   0.83333   0.00000  Uiso   1.00
C1121  C     0.75358   0.16665   0.83331   0.00000  Uiso   1.00
C1122  C     0.68838   0.17278   0.78739   0.00000  Uiso   1.00
C1123  C     0.95732   0.16662   0.83330   0.00000  Uiso   1.00
C1124  C     0.70936   0.16650   0.83328   0.00000  Uiso   1.00
C1125  C     0.85965   0.02413   0.86450   0.00000  Uiso   1.00
C1126  C     0.80706   0.30924   0.80214   0.00000  Uiso   1.00
C1127  C     0.80704   0.02422   0.80216   0.00000  Uiso   1.00
C1128  C     0.85964   0.30913   0.86451   0.00000  Uiso   1.00
C1129  C     0.71459   0.15220   0.92667   0.00000  Uiso   1.00
C1130  C     0.95400   0.17713   0.73808   0.00000  Uiso   1.00
C1131  C     0.95507   0.15572   0.92845   0.00000  Uiso   1.00
C1132  C     0.91313   0.16666   0.83333   0.00000  Uiso   1.00
C1133  C     0.71354   0.17887   0.73958   0.00000  Uiso   1.00
C1134  C     0.83279   0.16668   0.73959   0.00000  Uiso   1.00
C1135  C     0.83297   0.16665   0.92708   0.00000  Uiso   1.00
C1136  C     0.83270   0.16669   0.68846   0.00000  Uiso   1.00
C1137  C     0.83277   0.16664   0.97819   0.00000  Uiso   1.00
C1138  C     0.68889   0.15969   0.87909   0.00000  Uiso   1.00
C1139  C     0.97800   0.17230   0.78719   0.00000  Uiso   1.00
C1140  C     0.97852   0.16056   0.87935   0.00000  Uiso   1.00
H1141  H     0.73536   0.12251   0.92197   0.00000  Uiso   1.00
H1142  H     0.73467   0.20833   0.74337   0.00000  Uiso   1.00
H1143  H     0.73274   0.14828   0.73278   0.00000  Uiso   1.00
H1144  H     0.69443   0.18496   0.70564   0.00000  Uiso   1.00
H1145  H     0.91800   0.03995   0.88900   0.00000  Uiso   1.00
H1146  H     0.88064   0.03990   0.93395   0.00000  Uiso   1.00
H1147  H     0.74877   0.29355   0.77744   0.00000  Uiso   1.00
H1148  H     0.78626   0.29354   0.73261   0.00000  Uiso   1.00
H1149  H     0.74868   0.04017   0.77777   0.00000  Uiso   1.00
H1150  H     0.78598   0.04008   0.73272   0.00000  Uiso   1.00
H1151  H     0.91799   0.29326   0.88900   0.00000  Uiso   1.00
H1152  H     0.73418   0.18238   0.93433   0.00000  Uiso   1.00
H1153  H     0.88063   0.29326   0.93397   0.00000  Uiso   1.00
H1154  H     0.69581   0.14553   0.96043   0.00000  Uiso   1.00
H1155  H     0.91960   0.17492   0.74174   0.00000  Uiso   1.00
H1156  H     0.96086   0.21042   0.72095   0.00000  Uiso   1.00
H1157  H     0.96325   0.14970   0.71217   0.00000  Uiso   1.00
H1158  H     0.92068   0.15889   0.92493   0.00000  Uiso   1.00
H1159  H     0.96144   0.12207   0.94506   0.00000  Uiso   1.00
H1160  H     0.96524   0.18258   0.95474   0.00000  Uiso   1.00
N1161  N     0.83333   0.28573   0.83333   0.00000  Uiso   1.00
N1162  N     0.83333   0.04760   0.83333   0.00000  Uiso   1.00
N1163  N     0.88707   0.04885   0.89697   0.00000  Uiso   1.00
N1164  N     0.77971   0.28459   0.76957   0.00000  Uiso   1.00
N1165  N     0.77961   0.04902   0.76970   0.00000  Uiso   1.00
N1166  N     0.88707   0.28435   0.89699   0.00000  Uiso   1.00
O1167  O     0.77226   0.20487   0.83333   0.00000  Uiso   1.00
O1168  O     0.89441   0.12846   0.83334   0.00000  Uiso   1.00
O1169  O     0.89441   0.20487   0.83334   0.00000  Uiso   1.00
O1170  O     0.77226   0.12846   0.83333   0.00000  Uiso   1.00
O1171  O     0.83334   0.20488   0.76178   0.00000  Uiso   1.00
O1172  O     0.83333   0.12845   0.90489   0.00000  Uiso   1.00
O1173  O     0.83333   0.20488   0.90489   0.00000  Uiso   1.00
O1174  O     0.83334   0.12845   0.76178   0.00000  Uiso   1.00
Zn1175 Zn    0.83333   0.21771   0.83333   0.00000  Uiso   1.00
Zn1176 Zn    0.83333   0.11563   0.83333   0.00000  Uiso   1.00
C1177  C     0.08691   0.49998   0.83331   0.00000  Uiso   1.00
C1178  C     0.02171   0.50611   0.78739   0.00000  Uiso   1.00
C1179  C     0.29065   0.49996   0.83330   0.00000  Uiso   1.00
C1180  C     0.04270   0.49983   0.83328   0.00000  Uiso   1.00
C1181  C     0.19298   0.35746   0.86450   0.00000  Uiso   1.00
C1182  C     0.14039   0.64257   0.80214   0.00000  Uiso   1.00
C1183  C     0.14037   0.35755   0.80216   0.00000  Uiso   1.00
C1184  C     0.19298   0.64247   0.86451   0.00000  Uiso   1.00
C1185  C     0.04792   0.48554   0.92667   0.00000  Uiso   1.00
C1186  C     0.28733   0.51047   0.73808   0.00000  Uiso   1.00
C1187  C     0.28840   0.48905   0.92845   0.00000  Uiso   1.00
C1188  C     0.24646   0.49999   0.83333   0.00000  Uiso   1.00
C1189  C     0.04687   0.51220   0.73958   0.00000  Uiso   1.00
C1190  C     0.16612   0.50001   0.73959   0.00000  Uiso   1.00
C1191  C     0.16631   0.49999   0.92708   0.00000  Uiso   1.00
C1192  C     0.16603   0.50002   0.68846   0.00000  Uiso   1.00
C1193  C     0.16610   0.49998   0.97819   0.00000  Uiso   1.00
C1194  C     0.02223   0.49302   0.87909   0.00000  Uiso   1.00
C1195  C     0.31133   0.50563   0.78719   0.00000  Uiso   1.00
C1196  C     0.31185   0.49389   0.87935   0.00000  Uiso   1.00
H1197  H     0.06869   0.45584   0.92197   0.00000  Uiso   1.00
H1198  H     0.06800   0.54167   0.74337   0.00000  Uiso   1.00
H1199  H     0.06607   0.48161   0.73278   0.00000  Uiso   1.00
H1200  H     0.02776   0.51829   0.70564   0.00000  Uiso   1.00
H1201  H     0.25133   0.37328   0.88900   0.00000  Uiso   1.00
H1202  H     0.21397   0.37323   0.93395   0.00000  Uiso   1.00
H1203  H     0.08210   0.62688   0.77744   0.00000  Uiso   1.00
H1204  H     0.11959   0.62688   0.73261   0.00000  Uiso   1.00
H1205  H     0.08202   0.37351   0.77777   0.00000  Uiso   1.00
H1206  H     0.11931   0.37341   0.73272   0.00000  Uiso   1.00
H1207  H     0.25133   0.62660   0.88900   0.00000  Uiso   1.00
H1208  H     0.06751   0.51572   0.93433   0.00000  Uiso   1.00
H1209  H     0.21397   0.62660   0.93397   0.00000  Uiso   1.00
H1210  H     0.02915   0.47886   0.96043   0.00000  Uiso   1.00
H1211  H     0.25294   0.50825   0.74174   0.00000  Uiso   1.00
H1212  H     0.29420   0.54375   0.72095   0.00000  Uiso   1.00
H1213  H     0.29659   0.48303   0.71217   0.00000  Uiso   1.00
H1214  H     0.25402   0.49222   0.92493   0.00000  Uiso   1.00
H1215  H     0.29478   0.45540   0.94506   0.00000  Uiso   1.00
H1216  H     0.29857   0.51591   0.95474   0.00000  Uiso   1.00
N1217  N     0.16667   0.61907   0.83333   0.00000  Uiso   1.00
N1218  N     0.16667   0.38093   0.83333   0.00000  Uiso   1.00
N1219  N     0.22041   0.38218   0.89697   0.00000  Uiso   1.00
N1220  N     0.11304   0.61792   0.76957   0.00000  Uiso   1.00
N1221  N     0.11294   0.38235   0.76970   0.00000  Uiso   1.00
N1222  N     0.22040   0.61768   0.89699   0.00000  Uiso   1.00
O1223  O     0.10559   0.53821   0.83333   0.00000  Uiso   1.00
O1224  O     0.22774   0.46179   0.83334   0.00000  Uiso   1.00
O1225  O     0.22774   0.53821   0.83334   0.00000  Uiso   1.00
O1226  O     0.10559   0.46179   0.83333   0.00000  Uiso   1.00
O1227  O     0.16667   0.53821   0.76178   0.00000  Uiso   1.00
O1228  O     0.16666   0.46179   0.90489   0.00000  Uiso   1.00
O1229  O     0.16666   0.53821   0.90489   0.00000  Uiso   1.00
O1230  O     0.16667   0.46179   0.76178   0.00000  Uiso   1.00
Zn1231 Zn    0.16667   0.55104   0.83333   0.00000  Uiso   1.00
Zn1232 Zn    0.16667   0.44896   0.83333   0.00000  Uiso   1.00
C1233  C     0.42024   0.49998   0.83331   0.00000  Uiso   1.00
C1234  C     0.35505   0.50611   0.78739   0.00000  Uiso   1.00
C1235  C     0.62398   0.49996   0.83330   0.00000  Uiso   1.00
C1236  C     0.37603   0.49983   0.83328   0.00000  Uiso   1.00
C1237  C     0.52631   0.35746   0.86450   0.00000  Uiso   1.00
C1238  C     0.47373   0.64257   0.80214   0.00000  Uiso   1.00
C1239  C     0.47371   0.35755   0.80216   0.00000  Uiso   1.00
C1240  C     0.52631   0.64247   0.86451   0.00000  Uiso   1.00
C1241  C     0.38125   0.48554   0.92667   0.00000  Uiso   1.00
C1242  C     0.62067   0.51047   0.73808   0.00000  Uiso   1.00
C1243  C     0.62173   0.48905   0.92845   0.00000  Uiso   1.00
C1244  C     0.57979   0.49999   0.83333   0.00000  Uiso   1.00
C1245  C     0.38020   0.51220   0.73958   0.00000  Uiso   1.00
C1246  C     0.49945   0.50001   0.73959   0.00000  Uiso   1.00
C1247  C     0.49964   0.49999   0.92708   0.00000  Uiso   1.00
C1248  C     0.49936   0.50002   0.68846   0.00000  Uiso   1.00
C1249  C     0.49944   0.49998   0.97819   0.00000  Uiso   1.00
C1250  C     0.35556   0.49302   0.87909   0.00000  Uiso   1.00
C1251  C     0.64466   0.50563   0.78719   0.00000  Uiso   1.00
C1252  C     0.64518   0.49389   0.87935   0.00000  Uiso   1.00
H1253  H     0.40203   0.45584   0.92197   0.00000  Uiso   1.00
H1254  H     0.40134   0.54167   0.74337   0.00000  Uiso   1.00
H1255  H     0.39941   0.48161   0.73278   0.00000  Uiso   1.00
H1256  H     0.36109   0.51829   0.70564   0.00000  Uiso   1.00
H1257  H     0.58467   0.37328   0.88900   0.00000  Uiso   1.00
H1258  H     0.54731   0.37323   0.93395   0.00000  Uiso   1.00
H1259  H     0.41543   0.62688   0.77744   0.00000  Uiso   1.00
H1260  H     0.45293   0.62688   0.73261   0.00000  Uiso   1.00
H1261  H     0.41535   0.37351   0.77777   0.00000  Uiso   1.00
H1262  H     0.45265   0.37341   0.73272   0.00000  Uiso   1.00
H1263  H     0.58466   0.62660   0.88900   0.00000  Uiso   1.00
H1264  H     0.40085   0.51572   0.93433   0.00000  Uiso   1.00
H1265  H     0.54730   0.62660   0.93397   0.00000  Uiso   1.00
H1266  H     0.36248   0.47886   0.96043   0.00000  Uiso   1.00
H1267  H     0.58627   0.50825   0.74174   0.00000  Uiso   1.00
H1268  H     0.62753   0.54375   0.72095   0.00000  Uiso   1.00
H1269  H     0.62992   0.48303   0.71217   0.00000  Uiso   1.00
H1270  H     0.58735   0.49222   0.92493   0.00000  Uiso   1.00
H1271  H     0.62811   0.45540   0.94506   0.00000  Uiso   1.00
H1272  H     0.63191   0.51591   0.95474   0.00000  Uiso   1.00
N1273  N     0.50000   0.61907   0.83333   0.00000  Uiso   1.00
N1274  N     0.50000   0.38093   0.83333   0.00000  Uiso   1.00
N1275  N     0.55374   0.38218   0.89697   0.00000  Uiso   1.00
N1276  N     0.44638   0.61792   0.76957   0.00000  Uiso   1.00
N1277  N     0.44628   0.38235   0.76970   0.00000  Uiso   1.00
N1278  N     0.55373   0.61768   0.89699   0.00000  Uiso   1.00
O1279  O     0.43892   0.53821   0.83333   0.00000  Uiso   1.00
O1280  O     0.56108   0.46179   0.83334   0.00000  Uiso   1.00
O1281  O     0.56108   0.53821   0.83334   0.00000  Uiso   1.00
O1282  O     0.43892   0.46179   0.83333   0.00000  Uiso   1.00
O1283  O     0.50000   0.53821   0.76178   0.00000  Uiso   1.00
O1284  O     0.50000   0.46179   0.90489   0.00000  Uiso   1.00
O1285  O     0.50000   0.53821   0.90489   0.00000  Uiso   1.00
O1286  O     0.50000   0.46179   0.76178   0.00000  Uiso   1.00
Zn1287 Zn    0.50000   0.55104   0.83333   0.00000  Uiso   1.00
Zn1288 Zn    0.50000   0.44896   0.83333   0.00000  Uiso   1.00
C1289  C     0.75358   0.49998   0.83331   0.00000  Uiso   1.00
C1290  C     0.68838   0.50611   0.78739   0.00000  Uiso   1.00
C1291  C     0.95732   0.49996   0.83330   0.00000  Uiso   1.00
C1292  C     0.70936   0.49983   0.83328   0.00000  Uiso   1.00
C1293  C     0.85965   0.35746   0.86450   0.00000  Uiso   1.00
C1294  C     0.80706   0.64257   0.80214   0.00000  Uiso   1.00
C1295  C     0.80704   0.35755   0.80216   0.00000  Uiso   1.00
C1296  C     0.85964   0.64247   0.86451   0.00000  Uiso   1.00
C1297  C     0.71459   0.48554   0.92667   0.00000  Uiso   1.00
C1298  C     0.95400   0.51047   0.73808   0.00000  Uiso   1.00
C1299  C     0.95507   0.48905   0.92845   0.00000  Uiso   1.00
C1300  C     0.91313   0.49999   0.83333   0.00000  Uiso   1.00
C1301  C     0.71354   0.51220   0.73958   0.00000  Uiso   1.00
C1302  C     0.83279   0.50001   0.73959   0.00000  Uiso   1.00
C1303  C     0.83297   0.49999   0.92708   0.00000  Uiso   1.00
C1304  C     0.83270   0.50002   0.68846   0.00000  Uiso   1.00
C1305  C     0.83277   0.49998   0.97819   0.00000  Uiso   1.00
C1306  C     0.68889   0.49302   0.87909   0.00000  Uiso   1.00
C1307  C     0.97800   0.50563   0.78719   0.00000  Uiso   1.00
C1308  C     0.97852   0.49389   0.87935   0.00000  Uiso   1.00
H1309  H     0.73536   0.45584   0.92197   0.00000  Uiso   1.00
H1310  H     0.73467   0.54167   0.74337   0.00000  Uiso   1.00
H1311  H     0.73274   0.48161   0.73278   0.00000  Uiso   1.00
H1312  H     0.69443   0.51829   0.70564   0.00000  Uiso   1.00
H1313  H     0.91800   0.37328   0.88900   0.00000  Uiso   1.00
H1314  H     0.88064   0.37323   0.93395   0.00000  Uiso   1.00
H1315  H     0.74877   0.62688   0.77744   0.00000  Uiso   1.00
H1316  H     0.78626   0.62688   0.73261   0.00000  Uiso   1.00
H1317  H     0.74868   0.37351   0.77777   0.00000  Uiso   1.00
H1318  H     0.78598   0.37341   0.73272   0.00000  Uiso   1.00
H1319  H     0.91799   0.62660   0.88900   0.00000  Uiso   1.00
H1320  H     0.73418   0.51572   0.93433   0.00000  Uiso   1.00
H1321  H     0.88063   0.62660   0.93397   0.00000  Uiso   1.00
H1322  H     0.69581   0.47886   0.96043   0.00000  Uiso   1.00
H1323  H     0.91960   0.50825   0.74174   0.00000  Uiso   1.00
H1324  H     0.96086   0.54375   0.72095   0.00000  Uiso   1.00
H1325  H     0.96325   0.48303   0.71217   0.00000  Uiso   1.00
H1326  H     0.92068   0.49222   0.92493   0.00000  Uiso   1.00
H1327  H     0.96144   0.45540   0.94506   0.00000  Uiso   1.00
H1328  H     0.96524   0.51591   0.95474   0.00000  Uiso   1.00
N1329  N     0.83333   0.61907   0.83333   0.00000  Uiso   1.00
N1330  N     0.83333   0.38093   0.83333   0.00000  Uiso   1.00
N1331  N     0.88707   0.38218   0.89697   0.00000  Uiso   1.00
N1332  N     0.77971   0.61792   0.76957   0.00000  Uiso   1.00
N1333  N     0.77961   0.38235   0.76970   0.00000  Uiso   1.00
N1334  N     0.88707   0.61768   0.89699   0.00000  Uiso   1.00
O1335  O     0.77226   0.53821   0.83333   0.00000  Uiso   1.00
O1336  O     0.89441   0.46179   0.83334   0.00000  Uiso   1.00
O1337  O     0.89441   0.53821   0.83334   0.00000  Uiso   1.00
O1338  O     0.77226   0.46179   0.83333   0.00000  Uiso   1.00
O1339  O     0.83334   0.53821   0.76178   0.00000  Uiso   1.00
O1340  O     0.83333   0.46179   0.90489   0.00000  Uiso   1.00
O1341  O     0.83333   0.53821   0.90489   0.00000  Uiso   1.00
O1342  O     0.83334   0.46179   0.76178   0.00000  Uiso   1.00
Zn1343 Zn    0.83333   0.55104   0.83333   0.00000  Uiso   1.00
Zn1344 Zn    0.83333   0.44896   0.83333   0.00000  Uiso   1.00
C1345  C     0.08691   0.83331   0.83331   0.00000  Uiso   1.00
C1346  C     0.02171   0.83945   0.78739   0.00000  Uiso   1.00
C1347  C     0.29065   0.83329   0.83330   0.00000  Uiso   1.00
C1348  C     0.04270   0.83316   0.83328   0.00000  Uiso   1.00
C1349  C     0.19298   0.69080   0.86450   0.00000  Uiso   1.00
C1350  C     0.14039   0.97591   0.80214   0.00000  Uiso   1.00
C1351  C     0.14037   0.69089   0.80216   0.00000  Uiso   1.00
C1352  C     0.19298   0.97580   0.86451   0.00000  Uiso   1.00
C1353  C     0.04792   0.81887   0.92667   0.00000  Uiso   1.00
C1354  C     0.28733   0.84380   0.73808   0.00000  Uiso   1.00
C1355  C     0.28840   0.82238   0.92845   0.00000  Uiso   1.00
C1356  C     0.24646   0.83333   0.83333   0.00000  Uiso   1.00
C1357  C     0.04687   0.84553   0.73958   0.00000  Uiso   1.00
C1358  C     0.16612   0.83335   0.73959   0.00000  Uiso   1.00
C1359  C     0.16631   0.83332   0.92708   0.00000  Uiso   1.00
C1360  C     0.16603   0.83335   0.68846   0.00000  Uiso   1.00
C1361  C     0.16610   0.83331   0.97819   0.00000  Uiso   1.00
C1362  C     0.02223   0.82635   0.87909   0.00000  Uiso   1.00
C1363  C     0.31133   0.83897   0.78719   0.00000  Uiso   1.00
C1364  C     0.31185   0.82722   0.87935   0.00000  Uiso   1.00
H1365  H     0.06869   0.78917   0.92197   0.00000  Uiso   1.00
H1366  H     0.06800   0.87500   0.74337   0.00000  Uiso   1.00
H1367  H     0.06607   0.81494   0.73278   0.00000  Uiso   1.00
H1368  H     0.02776   0.85163   0.70564   0.00000  Uiso   1.00
H1369  H     0.25133   0.70661   0.88900   0.00000  Uiso   1.00
H1370  H     0.21397   0.70656   0.93395   0.00000  Uiso   1.00
H1371  H     0.08210   0.96021   0.77744   0.00000  Uiso   1.00
H1372  H     0.11959   0.96021   0.73261   0.00000  Uiso   1.00
H1373  H     0.08202   0.70684   0.77777   0.00000  Uiso   1.00
H1374  H     0.11931   0.70674   0.73272   0.00000  Uiso   1.00
H1375  H     0.25133   0.95993   0.88900   0.00000  Uiso   1.00
H1376  H     0.06751   0.84905   0.93433   0.00000  Uiso   1.00
H1377  H     0.21397   0.95993   0.93397   0.00000  Uiso   1.00
H1378  H     0.02915   0.81219   0.96043   0.00000  Uiso   1.00
H1379  H     0.25294   0.84159   0.74174   0.00000  Uiso   1.00
H1380  H     0.29420   0.87708   0.72095   0.00000  Uiso   1.00
H1381  H     0.29659   0.81637   0.71217   0.00000  Uiso   1.00
H1382  H     0.25402   0.82555   0.92493   0.00000  Uiso   1.00
H1383  H     0.29478   0.78874   0.94506   0.00000  Uiso   1.00
H1384  H     0.29857   0.84925   0.95474   0.00000  Uiso   1.00
N1385  N     0.16667   0.95240   0.83333   0.00000  Uiso   1.00
N1386  N     0.16667   0.71427   0.83333   0.00000  Uiso   1.00
N1387  N     0.22041   0.71552   0.89697   0.00000  Uiso   1.00
N1388  N     0.11304   0.95126   0.76957   0.00000  Uiso   1.00
N1389  N     0.11294   0.71569   0.76970   0.00000  Uiso   1.00
N1390  N     0.22040   0.95102   0.89699   0.00000  Uiso   1.00
O1391  O     0.10559   0.87154   0.83333   0.00000  Uiso   1.00
O1392  O     0.22774   0.79513   0.83334   0.00000  Uiso   1.00
O1393  O     0.22774   0.87154   0.83334   0.00000  Uiso   1.00
O1394  O     0.10559   0.79513   0.83333   0.00000  Uiso   1.00
O1395  O     0.16667   0.87155   0.76178   0.00000  Uiso   1.00
O1396  O     0.16666   0.79512   0.90489   0.00000  Uiso   1.00
O1397  O     0.16666   0.87155   0.90489   0.00000  Uiso   1.00
O1398  O     0.16667   0.79512   0.76178   0.00000  Uiso   1.00
Zn1399 Zn    0.16667   0.88437   0.83333   0.00000  Uiso   1.00
Zn1400 Zn    0.16667   0.78229   0.83333   0.00000  Uiso   1.00
C1401  C     0.42024   0.83331   0.83331   0.00000  Uiso   1.00
C1402  C     0.35505   0.83945   0.78739   0.00000  Uiso   1.00
C1403  C     0.62398   0.83329   0.83330   0.00000  Uiso   1.00
C1404  C     0.37603   0.83316   0.83328   0.00000  Uiso   1.00
C1405  C     0.52631   0.69080   0.86450   0.00000  Uiso   1.00
C1406  C     0.47373   0.97591   0.80214   0.00000  Uiso   1.00
C1407  C     0.47371   0.69089   0.80216   0.00000  Uiso   1.00
C1408  C     0.52631   0.97580   0.86451   0.00000  Uiso   1.00
C1409  C     0.38125   0.81887   0.92667   0.00000  Uiso   1.00
C1410  C     0.62067   0.84380   0.73808   0.00000  Uiso   1.00
C1411  C     0.62173   0.82238   0.92845   0.00000  Uiso   1.00
C1412  C     0.57979   0.83333   0.83333   0.00000  Uiso   1.00
C1413  C     0.38020   0.84553   0.73958   0.00000  Uiso   1.00
C1414  C     0.49945   0.83335   0.73959   0.00000  Uiso   1.00
C1415  C     0.49964   0.83332   0.92708   0.00000  Uiso   1.00
C1416  C     0.49936   0.83335   0.68846   0.00000  Uiso   1.00
C1417  C     0.49944   0.83331   0.97819   0.00000  Uiso   1.00
C1418  C     0.35556   0.82635   0.87909   0.00000  Uiso   1.00
C1419  C     0.64466   0.83897   0.78719   0.00000  Uiso   1.00
C1420  C     0.64518   0.82722   0.87935   0.00000  Uiso   1.00
H1421  H     0.40203   0.78917   0.92197   0.00000  Uiso   1.00
H1422  H     0.40134   0.87500   0.74337   0.00000  Uiso   1.00
H1423  H     0.39941   0.81494   0.73278   0.00000  Uiso   1.00
H1424  H     0.36109   0.85163   0.70564   0.00000  Uiso   1.00
H1425  H     0.58467   0.70661   0.88900   0.00000  Uiso   1.00
H1426  H     0.54731   0.70656   0.93395   0.00000  Uiso   1.00
H1427  H     0.41543   0.96021   0.77744   0.00000  Uiso   1.00
H1428  H     0.45293   0.96021   0.73261   0.00000  Uiso   1.00
H1429  H     0.41535   0.70684   0.77777   0.00000  Uiso   1.00
H1430  H     0.45265   0.70674   0.73272   0.00000  Uiso   1.00
H1431  H     0.58466   0.95993   0.88900   0.00000  Uiso   1.00
H1432  H     0.40085   0.84905   0.93433   0.00000  Uiso   1.00
H1433  H     0.54730   0.95993   0.93397   0.00000  Uiso   1.00
H1434  H     0.36248   0.81219   0.96043   0.00000  Uiso   1.00
H1435  H     0.58627   0.84159   0.74174   0.00000  Uiso   1.00
H1436  H     0.62753   0.87708   0.72095   0.00000  Uiso   1.00
H1437  H     0.62992   0.81637   0.71217   0.00000  Uiso   1.00
H1438  H     0.58735   0.82555   0.92493   0.00000  Uiso   1.00
H1439  H     0.62811   0.78874   0.94506   0.00000  Uiso   1.00
H1440  H     0.63191   0.84925   0.95474   0.00000  Uiso   1.00
N1441  N     0.50000   0.95240   0.83333   0.00000  Uiso   1.00
N1442  N     0.50000   0.71427   0.83333   0.00000  Uiso   1.00
N1443  N     0.55374   0.71552   0.89697   0.00000  Uiso   1.00
N1444  N     0.44638   0.95126   0.76957   0.00000  Uiso   1.00
N1445  N     0.44628   0.71569   0.76970   0.00000  Uiso   1.00
N1446  N     0.55373   0.95102   0.89699   0.00000  Uiso   1.00
O1447  O     0.43892   0.87154   0.83333   0.00000  Uiso   1.00
O1448  O     0.56108   0.79513   0.83334   0.00000  Uiso   1.00
O1449  O     0.56108   0.87154   0.83334   0.00000  Uiso   1.00
O1450  O     0.43892   0.79513   0.83333   0.00000  Uiso   1.00
O1451  O     0.50000   0.87155   0.76178   0.00000  Uiso   1.00
O1452  O     0.50000   0.79512   0.90489   0.00000  Uiso   1.00
O1453  O     0.50000   0.87155   0.90489   0.00000  Uiso   1.00
O1454  O     0.50000   0.79512   0.76178   0.00000  Uiso   1.00
Zn1455 Zn    0.50000   0.88437   0.83333   0.00000  Uiso   1.00
Zn1456 Zn    0.50000   0.78229   0.83333   0.00000  Uiso   1.00
C1457  C     0.75358   0.83331   0.83331   0.00000  Uiso   1.00
C1458  C     0.68838   0.83945   0.78739   0.00000  Uiso   1.00
C1459  C     0.95732   0.83329   0.83330   0.00000  Uiso   1.00
C1460  C     0.70936   0.83316   0.83328   0.00000  Uiso   1.00
C1461  C     0.85965   0.69080   0.86450   0.00000  Uiso   1.00
C1462  C     0.80706   0.97591   0.80214   0.00000  Uiso   1.00
C1463  C     0.80704   0.69089   0.80216   0.00000  Uiso   1.00
C1464  C     0.85964   0.97580   0.86451   0.00000  Uiso   1.00
C1465  C     0.71459   0.81887   0.92667   0.00000  Uiso   1.00
C1466  C     0.95400   0.84380   0.73808   0.00000  Uiso   1.00
C1467  C     0.95507   0.82238   0.92845   0.00000  Uiso   1.00
C1468  C     0.91313   0.83333   0.83333   0.00000  Uiso   1.00
C1469  C     0.71354   0.84553   0.73958   0.00000  Uiso   1.00
C1470  C     0.83279   0.83335   0.73959   0.00000  Uiso   1.00
C1471  C     0.83297   0.83332   0.92708   0.00000  Uiso   1.00
C1472  C     0.83270   0.83335   0.68846   0.00000  Uiso   1.00
C1473  C     0.83277   0.83331   0.97819   0.00000  Uiso   1.00
C1474  C     0.68889   0.82635   0.87909   0.00000  Uiso   1.00
C1475  C     0.97800   0.83897   0.78719   0.00000  Uiso   1.00
C1476  C     0.97852   0.82722   0.87935   0.00000  Uiso   1.00
H1477  H     0.73536   0.78917   0.92197   0.00000  Uiso   1.00
H1478  H     0.73467   0.87500   0.74337   0.00000  Uiso   1.00
H1479  H     0.73274   0.81494   0.73278   0.00000  Uiso   1.00
H1480  H     0.69443   0.85163   0.70564   0.00000  Uiso   1.00
H1481  H     0.91800   0.70661   0.88900   0.00000  Uiso   1.00
H1482  H     0.88064   0.70656   0.93395   0.00000  Uiso   1.00
H1483  H     0.74877   0.96021   0.77744   0.00000  Uiso   1.00
H1484  H     0.78626   0.96021   0.73261   0.00000  Uiso   1.00
H1485  H     0.74868   0.70684   0.77777   0.00000  Uiso   1.00
H1486  H     0.78598   0.70674   0.73272   0.00000  Uiso   1.00
H1487  H     0.91799   0.95993   0.88900   0.00000  Uiso   1.00
H1488  H     0.73418   0.84905   0.93433   0.00000  Uiso   1.00
H1489  H     0.88063   0.95993   0.93397   0.00000  Uiso   1.00
H1490  H     0.69581   0.81219   0.96043   0.00000  Uiso   1.00
H1491  H     0.91960   0.84159   0.74174   0.00000  Uiso   1.00
H1492  H     0.96086   0.87708   0.72095   0.00000  Uiso   1.00
H1493  H     0.96325   0.81637   0.71217   0.00000  Uiso   1.00
H1494  H     0.92068   0.82555   0.92493   0.00000  Uiso   1.00
H1495  H     0.96144   0.78874   0.94506   0.00000  Uiso   1.00
H1496  H     0.96524   0.84925   0.95474   0.00000  Uiso   1.00
N1497  N     0.83333   0.95240   0.83333   0.00000  Uiso   1.00
N1498  N     0.83333   0.71427   0.83333   0.00000  Uiso   1.00
N1499  N     0.88707   0.71552   0.89697   0.00000  Uiso   1.00
N1500  N     0.77971   0.95126   0.76957   0.00000  Uiso   1.00
N1501  N     0.77961   0.71569   0.76970   0.00000  Uiso   1.00
N1502  N     0.88707   0.95102   0.89699   0.00000  Uiso   1.00
O1503  O     0.77226   0.87154   0.83333   0.00000  Uiso   1.00
O1504  O     0.89441   0.79513   0.83334   0.00000  Uiso   1.00
O1505  O     0.89441   0.87154   0.83334   0.00000  Uiso   1.00
O1506  O     0.77226   0.79513   0.83333   0.00000  Uiso   1.00
O1507  O     0.83334   0.87155   0.76178   0.00000  Uiso   1.00
O1508  O     0.83333   0.79512   0.90489   0.00000  Uiso   1.00
O1509  O     0.83333   0.87155   0.90489   0.00000  Uiso   1.00
O1510  O     0.83334   0.79512   0.76178   0.00000  Uiso   1.00
Zn1511 Zn    0.83333   0.88437   0.83333   0.00000  Uiso   1.00
Zn1512 Zn    0.83333   0.78229   0.83333   0.00000  Uiso   1.00
loop_
_geom_bond_atom_site_label_1
_geom_bond_atom_site_label_2
_geom_bond_distance
_geom_bond_site_symmetry_2
_ccdc_geom_bond_type
C1     O50     1.280   .     A
C1     C4      1.411   .     S
C1     O47     1.281   .     A
C2     C4      1.405   .     A
C2     C13     1.524   .     S
C2     C131    1.395   1_455 S
C3     C19     1.412   .     A
C3     C20     1.411   .     A
C3     C12     1.410   .     S
C4     C18     1.406   .     A
C5     N42     1.368   .     A
C5     N43     1.431   .     S
C5     C344    1.434   1_545 S
C6     N44     1.430   .     S
C6     N41     1.368   .     A
C6     C175    1.433   .     S
C7     N45     1.431   .     S
C7     N42     1.368   .     A
C7     C342    1.433   1_545 S
C8     N41     1.368   .     A
C8     N46     1.431   .     S
C8     C173    1.434   .     S
C9     H34     1.104   .     S
C9     H32     1.111   .     S
C9     H21     1.110   .     S
C9     C18     1.524   .     S
C10    C19     1.522   .     S
C10    H35     1.104   .     S
C10    H37     1.110   .     S
C10    H36     1.110   .     S
C11    H38     1.104   .     S
C11    H39     1.110   .     S
C11    H40     1.110   .     S
C11    C20     1.522   .     S
C12    O48     1.281   .     A
C12    O49     1.281   .     A
C13    H22     1.108   .     S
C13    H23     1.111   .     S
C13    H24     1.104   .     S
C14    C16     1.366   .     S
C14    O51     1.280   .     A
C14    O54     1.279   .     A
C15    O52     1.280   .     A
C15    O53     1.279   .     A
C15    C17     1.366   .     S
C16    C1025   1.165   1_554 S
C17    C520    1.165   .     S
C18    C132    1.395   1_455 S
C19    C58     1.395   .     S
C20    C74     1.395   .     S
H25    N43     1.045   .     S
H26    N43     1.045   .     S
H27    N44     1.045   .     S
H28    N44     1.045   .     S
H29    N45     1.045   .     S
H30    N45     1.045   .     S
H31    N46     1.045   .     S
H33    N46     1.045   .     S
N41    Zn55    2.018   .     S
N42    Zn56    2.018   .     S
O47    Zn55    1.985   .     S
O48    Zn56    1.985   .     S
O49    Zn55    1.985   .     S
O50    Zn56    1.985   .     S
O51    Zn55    1.950   .     S
O52    Zn56    1.950   .     S
O53    Zn55    1.949   .     S
O54    Zn56    1.949   .     S
C57    O106    1.280   .     A
C57    C60     1.411   .     S
C57    O103    1.281   .     A
C58    C60     1.405   .     A
C58    C69     1.524   .     S
C59    C75     1.412   .     A
C59    C76     1.411   .     A
C59    C68     1.410   .     S
C60    C74     1.406   .     A
C61    N98     1.368   .     A
C61    N99     1.431   .     S
C61    C400    1.434   1_545 S
C62    N100    1.430   .     S
C62    N97     1.368   .     A
C62    C231    1.433   .     S
C63    N101    1.431   .     S
C63    N98     1.368   .     A
C63    C398    1.433   1_545 S
C64    N97     1.368   .     A
C64    N102    1.431   .     S
C64    C229    1.434   .     S
C65    H90     1.104   .     S
C65    H88     1.111   .     S
C65    H77     1.110   .     S
C65    C74     1.524   .     S
C66    C75     1.522   .     S
C66    H91     1.104   .     S
C66    H93     1.110   .     S
C66    H92     1.110   .     S
C67    H94     1.104   .     S
C67    H95     1.110   .     S
C67    H96     1.110   .     S
C67    C76     1.522   .     S
C68    O104    1.281   .     A
C68    O105    1.281   .     A
C69    H78     1.108   .     S
C69    H79     1.111   .     S
C69    H80     1.104   .     S
C70    C72     1.366   .     S
C70    O107    1.280   .     A
C70    O110    1.279   .     A
C71    O108    1.280   .     A
C71    O109    1.279   .     A
C71    C73     1.366   .     S
C72    C1081   1.165   1_554 S
C73    C576    1.165   .     S
C75    C114    1.395   .     S
C76    C130    1.395   .     S
H81    N99     1.045   .     S
H82    N99     1.045   .     S
H83    N100    1.045   .     S
H84    N100    1.045   .     S
H85    N101    1.045   .     S
H86    N101    1.045   .     S
H87    N102    1.045   .     S
H89    N102    1.045   .     S
N97    Zn111   2.018   .     S
N98    Zn112   2.018   .     S
O103   Zn111   1.985   .     S
O104   Zn112   1.985   .     S
O105   Zn111   1.985   .     S
O106   Zn112   1.985   .     S
O107   Zn111   1.950   .     S
O108   Zn112   1.950   .     S
O109   Zn111   1.949   .     S
O110   Zn112   1.949   .     S
C113   O162    1.280   .     A
C113   C116    1.411   .     S
C113   O159    1.281   .     A
C114   C116    1.405   .     A
C114   C125    1.524   .     S
C115   C131    1.412   .     A
C115   C132    1.411   .     A
C115   C124    1.410   .     S
C116   C130    1.406   .     A
C117   N154    1.368   .     A
C117   N155    1.431   .     S
C117   C456    1.434   1_545 S
C118   N156    1.430   .     S
C118   N153    1.368   .     A
C118   C287    1.433   .     S
C119   N157    1.431   .     S
C119   N154    1.368   .     A
C119   C454    1.433   1_545 S
C120   N153    1.368   .     A
C120   N158    1.431   .     S
C120   C285    1.434   .     S
C121   H146    1.104   .     S
C121   H144    1.111   .     S
C121   H133    1.110   .     S
C121   C130    1.524   .     S
C122   C131    1.522   .     S
C122   H147    1.104   .     S
C122   H149    1.110   .     S
C122   H148    1.110   .     S
C123   H150    1.104   .     S
C123   H151    1.110   .     S
C123   H152    1.110   .     S
C123   C132    1.522   .     S
C124   O160    1.281   .     A
C124   O161    1.281   .     A
C125   H134    1.108   .     S
C125   H135    1.111   .     S
C125   H136    1.104   .     S
C126   C128    1.366   .     S
C126   O163    1.280   .     A
C126   O166    1.279   .     A
C127   O164    1.280   .     A
C127   O165    1.279   .     A
C127   C129    1.366   .     S
C128   C1137   1.165   1_554 S
C129   C632    1.165   .     S
C131   C2      1.395   1_655 S
C132   C18     1.395   1_655 S
H137   N155    1.045   .     S
H138   N155    1.045   .     S
H139   N156    1.045   .     S
H140   N156    1.045   .     S
H141   N157    1.045   .     S
H142   N157    1.045   .     S
H143   N158    1.045   .     S
H145   N158    1.045   .     S
N153   Zn167   2.018   .     S
N154   Zn168   2.018   .     S
O159   Zn167   1.985   .     S
O160   Zn168   1.985   .     S
O161   Zn167   1.985   .     S
O162   Zn168   1.985   .     S
O163   Zn167   1.950   .     S
O164   Zn168   1.950   .     S
O165   Zn167   1.949   .     S
O166   Zn168   1.949   .     S
C169   O218    1.280   .     A
C169   C172    1.411   .     S
C169   O215    1.281   .     A
C170   C172    1.405   .     A
C170   C181    1.524   .     S
C170   C299    1.395   1_455 S
C171   C187    1.412   .     A
C171   C188    1.411   .     A
C171   C180    1.410   .     S
C172   C186    1.406   .     A
C173   N210    1.368   .     A
C173   N211    1.431   .     S
C174   N212    1.430   .     S
C174   N209    1.368   .     A
C174   C343    1.433   .     S
C175   N213    1.431   .     S
C175   N210    1.368   .     A
C176   N209    1.368   .     A
C176   N214    1.431   .     S
C176   C341    1.434   .     S
C177   H202    1.104   .     S
C177   H200    1.111   .     S
C177   H189    1.110   .     S
C177   C186    1.524   .     S
C178   C187    1.522   .     S
C178   H203    1.104   .     S
C178   H205    1.110   .     S
C178   H204    1.110   .     S
C179   H206    1.104   .     S
C179   H207    1.110   .     S
C179   H208    1.110   .     S
C179   C188    1.522   .     S
C180   O216    1.281   .     A
C180   O217    1.281   .     A
C181   H190    1.108   .     S
C181   H191    1.111   .     S
C181   H192    1.104   .     S
C182   C184    1.366   .     S
C182   O219    1.280   .     A
C182   O222    1.279   .     A
C183   O220    1.280   .     A
C183   O221    1.279   .     A
C183   C185    1.366   .     S
C184   C1193   1.165   1_554 S
C185   C688    1.165   .     S
C186   C300    1.395   1_455 S
C187   C226    1.395   .     S
C188   C242    1.395   .     S
H193   N211    1.045   .     S
H194   N211    1.045   .     S
H195   N212    1.045   .     S
H196   N212    1.045   .     S
H197   N213    1.045   .     S
H198   N213    1.045   .     S
H199   N214    1.045   .     S
H201   N214    1.045   .     S
N209   Zn223   2.018   .     S
N210   Zn224   2.018   .     S
O215   Zn223   1.985   .     S
O216   Zn224   1.985   .     S
O217   Zn223   1.985   .     S
O218   Zn224   1.985   .     S
O219   Zn223   1.950   .     S
O220   Zn224   1.950   .     S
O221   Zn223   1.949   .     S
O222   Zn224   1.949   .     S
C225   O274    1.280   .     A
C225   C228    1.411   .     S
C225   O271    1.281   .     A
C226   C228    1.405   .     A
C226   C237    1.524   .     S
C227   C243    1.412   .     A
C227   C244    1.411   .     A
C227   C236    1.410   .     S
C228   C242    1.406   .     A
C229   N266    1.368   .     A
C229   N267    1.431   .     S
C230   N268    1.430   .     S
C230   N265    1.368   .     A
C230   C399    1.433   .     S
C231   N269    1.431   .     S
C231   N266    1.368   .     A
C232   N265    1.368   .     A
C232   N270    1.431   .     S
C232   C397    1.434   .     S
C233   H258    1.104   .     S
C233   H256    1.111   .     S
C233   H245    1.110   .     S
C233   C242    1.524   .     S
C234   C243    1.522   .     S
C234   H259    1.104   .     S
C234   H261    1.110   .     S
C234   H260    1.110   .     S
C235   H262    1.104   .     S
C235   H263    1.110   .     S
C235   H264    1.110   .     S
C235   C244    1.522   .     S
C236   O272    1.281   .     A
C236   O273    1.281   .     A
C237   H246    1.108   .     S
C237   H247    1.111   .     S
C237   H248    1.104   .     S
C238   C240    1.366   .     S
C238   O275    1.280   .     A
C238   O278    1.279   .     A
C239   O276    1.280   .     A
C239   O277    1.279   .     A
C239   C241    1.366   .     S
C240   C1249   1.165   1_554 S
C241   C744    1.165   .     S
C243   C282    1.395   .     S
C244   C298    1.395   .     S
H249   N267    1.045   .     S
H250   N267    1.045   .     S
H251   N268    1.045   .     S
H252   N268    1.045   .     S
H253   N269    1.045   .     S
H254   N269    1.045   .     S
H255   N270    1.045   .     S
H257   N270    1.045   .     S
N265   Zn279   2.018   .     S
N266   Zn280   2.018   .     S
O271   Zn279   1.985   .     S
O272   Zn280   1.985   .     S
O273   Zn279   1.985   .     S
O274   Zn280   1.985   .     S
O275   Zn279   1.950   .     S
O276   Zn280   1.950   .     S
O277   Zn279   1.949   .     S
O278   Zn280   1.949   .     S
C281   O330    1.280   .     A
C281   C284    1.411   .     S
C281   O327    1.281   .     A
C282   C284    1.405   .     A
C282   C293    1.524   .     S
C283   C299    1.412   .     A
C283   C300    1.411   .     A
C283   C292    1.410   .     S
C284   C298    1.406   .     A
C285   N322    1.368   .     A
C285   N323    1.431   .     S
C286   N324    1.430   .     S
C286   N321    1.368   .     A
C286   C455    1.433   .     S
C287   N325    1.431   .     S
C287   N322    1.368   .     A
C288   N321    1.368   .     A
C288   N326    1.431   .     S
C288   C453    1.434   .     S
C289   H314    1.104   .     S
C289   H312    1.111   .     S
C289   H301    1.110   .     S
C289   C298    1.524   .     S
C290   C299    1.522   .     S
C290   H315    1.104   .     S
C290   H317    1.110   .     S
C290   H316    1.110   .     S
C291   H318    1.104   .     S
C291   H319    1.110   .     S
C291   H320    1.110   .     S
C291   C300    1.522   .     S
C292   O328    1.281   .     A
C292   O329    1.281   .     A
C293   H302    1.108   .     S
C293   H303    1.111   .     S
C293   H304    1.104   .     S
C294   C296    1.366   .     S
C294   O331    1.280   .     A
C294   O334    1.279   .     A
C295   O332    1.280   .     A
C295   O333    1.279   .     A
C295   C297    1.366   .     S
C296   C1305   1.165   1_554 S
C297   C800    1.165   .     S
C299   C170    1.395   1_655 S
C300   C186    1.395   1_655 S
H305   N323    1.045   .     S
H306   N323    1.045   .     S
H307   N324    1.045   .     S
H308   N324    1.045   .     S
H309   N325    1.045   .     S
H310   N325    1.045   .     S
H311   N326    1.045   .     S
H313   N326    1.045   .     S
N321   Zn335   2.018   .     S
N322   Zn336   2.018   .     S
O327   Zn335   1.985   .     S
O328   Zn336   1.985   .     S
O329   Zn335   1.985   .     S
O330   Zn336   1.985   .     S
O331   Zn335   1.950   .     S
O332   Zn336   1.950   .     S
O333   Zn335   1.949   .     S
O334   Zn336   1.949   .     S
C337   O386    1.280   .     A
C337   C340    1.411   .     S
C337   O383    1.281   .     A
C338   C340    1.405   .     A
C338   C349    1.524   .     S
C338   C467    1.395   1_455 S
C339   C355    1.412   .     A
C339   C356    1.411   .     A
C339   C348    1.410   .     S
C340   C354    1.406   .     A
C341   N378    1.368   .     A
C341   N379    1.431   .     S
C342   N380    1.430   .     S
C342   N377    1.368   .     A
C342   C7      1.433   1_565 S
C343   N381    1.431   .     S
C343   N378    1.368   .     A
C344   N377    1.368   .     A
C344   N382    1.431   .     S
C344   C5      1.434   1_565 S
C345   H370    1.104   .     S
C345   H368    1.111   .     S
C345   H357    1.110   .     S
C345   C354    1.524   .     S
C346   C355    1.522   .     S
C346   H371    1.104   .     S
C346   H373    1.110   .     S
C346   H372    1.110   .     S
C347   H374    1.104   .     S
C347   H375    1.110   .     S
C347   H376    1.110   .     S
C347   C356    1.522   .     S
C348   O384    1.281   .     A
C348   O385    1.281   .     A
C349   H358    1.108   .     S
C349   H359    1.111   .     S
C349   H360    1.104   .     S
C350   C352    1.366   .     S
C350   O387    1.280   .     A
C350   O390    1.279   .     A
C351   O388    1.280   .     A
C351   O389    1.279   .     A
C351   C353    1.366   .     S
C352   C1361   1.165   1_554 S
C353   C856    1.165   .     S
C354   C468    1.395   1_455 S
C355   C394    1.395   .     S
C356   C410    1.395   .     S
H361   N379    1.045   .     S
H362   N379    1.045   .     S
H363   N380    1.045   .     S
H364   N380    1.045   .     S
H365   N381    1.045   .     S
H366   N381    1.045   .     S
H367   N382    1.045   .     S
H369   N382    1.045   .     S
N377   Zn391   2.018   .     S
N378   Zn392   2.018   .     S
O383   Zn391   1.985   .     S
O384   Zn392   1.985   .     S
O385   Zn391   1.985   .     S
O386   Zn392   1.985   .     S
O387   Zn391   1.950   .     S
O388   Zn392   1.950   .     S
O389   Zn391   1.949   .     S
O390   Zn392   1.949   .     S
C393   O442    1.280   .     A
C393   C396    1.411   .     S
C393   O439    1.281   .     A
C394   C396    1.405   .     A
C394   C405    1.524   .     S
C395   C411    1.412   .     A
C395   C412    1.411   .     A
C395   C404    1.410   .     S
C396   C410    1.406   .     A
C397   N434    1.368   .     A
C397   N435    1.431   .     S
C398   N436    1.430   .     S
C398   N433    1.368   .     A
C398   C63     1.433   1_565 S
C399   N437    1.431   .     S
C399   N434    1.368   .     A
C400   N433    1.368   .     A
C400   N438    1.431   .     S
C400   C61     1.434   1_565 S
C401   H426    1.104   .     S
C401   H424    1.111   .     S
C401   H413    1.110   .     S
C401   C410    1.524   .     S
C402   C411    1.522   .     S
C402   H427    1.104   .     S
C402   H429    1.110   .     S
C402   H428    1.110   .     S
C403   H430    1.104   .     S
C403   H431    1.110   .     S
C403   H432    1.110   .     S
C403   C412    1.522   .     S
C404   O440    1.281   .     A
C404   O441    1.281   .     A
C405   H414    1.108   .     S
C405   H415    1.111   .     S
C405   H416    1.104   .     S
C406   C408    1.366   .     S
C406   O443    1.280   .     A
C406   O446    1.279   .     A
C407   O444    1.280   .     A
C407   O445    1.279   .     A
C407   C409    1.366   .     S
C408   C1417   1.165   1_554 S
C409   C912    1.165   .     S
C411   C450    1.395   .     S
C412   C466    1.395   .     S
H417   N435    1.045   .     S
H418   N435    1.045   .     S
H419   N436    1.045   .     S
H420   N436    1.045   .     S
H421   N437    1.045   .     S
H422   N437    1.045   .     S
H423   N438    1.045   .     S
H425   N438    1.045   .     S
N433   Zn447   2.018   .     S
N434   Zn448   2.018   .     S
O439   Zn447   1.985   .     S
O440   Zn448   1.985   .     S
O441   Zn447   1.985   .     S
O442   Zn448   1.985   .     S
O443   Zn447   1.950   .     S
O444   Zn448   1.950   .     S
O445   Zn447   1.949   .     S
O446   Zn448   1.949   .     S
C449   O498    1.280   .     A
C449   C452    1.411   .     S
C449   O495    1.281   .     A
C450   C452    1.405   .     A
C450   C461    1.524   .     S
C451   C467    1.412   .     A
C451   C468    1.411   .     A
C451   C460    1.410   .     S
C452   C466    1.406   .     A
C453   N490    1.368   .     A
C453   N491    1.431   .     S
C454   N492    1.430   .     S
C454   N489    1.368   .     A
C454   C119    1.433   1_565 S
C455   N493    1.431   .     S
C455   N490    1.368   .     A
C456   N489    1.368   .     A
C456   N494    1.431   .     S
C456   C117    1.434   1_565 S
C457   H482    1.104   .     S
C457   H480    1.111   .     S
C457   H469    1.110   .     S
C457   C466    1.524   .     S
C458   C467    1.522   .     S
C458   H483    1.104   .     S
C458   H485    1.110   .     S
C458   H484    1.110   .     S
C459   H486    1.104   .     S
C459   H487    1.110   .     S
C459   H488    1.110   .     S
C459   C468    1.522   .     S
C460   O496    1.281   .     A
C460   O497    1.281   .     A
C461   H470    1.108   .     S
C461   H471    1.111   .     S
C461   H472    1.104   .     S
C462   C464    1.366   .     S
C462   O499    1.280   .     A
C462   O502    1.279   .     A
C463   O500    1.280   .     A
C463   O501    1.279   .     A
C463   C465    1.366   .     S
C464   C1473   1.165   1_554 S
C465   C968    1.165   .     S
C467   C338    1.395   1_655 S
C468   C354    1.395   1_655 S
H473   N491    1.045   .     S
H474   N491    1.045   .     S
H475   N492    1.045   .     S
H476   N492    1.045   .     S
H477   N493    1.045   .     S
H478   N493    1.045   .     S
H479   N494    1.045   .     S
H481   N494    1.045   .     S
N489   Zn503   2.018   .     S
N490   Zn504   2.018   .     S
O495   Zn503   1.985   .     S
O496   Zn504   1.985   .     S
O497   Zn503   1.985   .     S
O498   Zn504   1.985   .     S
O499   Zn503   1.950   .     S
O500   Zn504   1.950   .     S
O501   Zn503   1.949   .     S
O502   Zn504   1.949   .     S
C505   O554    1.280   .     A
C505   C508    1.411   .     S
C505   O551    1.281   .     A
C506   C508    1.405   .     A
C506   C517    1.524   .     S
C506   C635    1.395   1_455 S
C507   C523    1.412   .     A
C507   C524    1.411   .     A
C507   C516    1.410   .     S
C508   C522    1.406   .     A
C509   N546    1.368   .     A
C509   N547    1.431   .     S
C509   C848    1.434   1_545 S
C510   N548    1.430   .     S
C510   N545    1.368   .     A
C510   C679    1.433   .     S
C511   N549    1.431   .     S
C511   N546    1.368   .     A
C511   C846    1.433   1_545 S
C512   N545    1.368   .     A
C512   N550    1.431   .     S
C512   C677    1.434   .     S
C513   H538    1.104   .     S
C513   H536    1.111   .     S
C513   H525    1.110   .     S
C513   C522    1.524   .     S
C514   C523    1.522   .     S
C514   H539    1.104   .     S
C514   H541    1.110   .     S
C514   H540    1.110   .     S
C515   H542    1.104   .     S
C515   H543    1.110   .     S
C515   H544    1.110   .     S
C515   C524    1.522   .     S
C516   O552    1.281   .     A
C516   O553    1.281   .     A
C517   H526    1.108   .     S
C517   H527    1.111   .     S
C517   H528    1.104   .     S
C518   C520    1.366   .     S
C518   O555    1.280   .     A
C518   O558    1.279   .     A
C519   O556    1.280   .     A
C519   O557    1.279   .     A
C519   C521    1.366   .     S
C521   C1024   1.165   .     S
C522   C636    1.395   1_455 S
C523   C562    1.395   .     S
C524   C578    1.395   .     S
H529   N547    1.045   .     S
H530   N547    1.045   .     S
H531   N548    1.045   .     S
H532   N548    1.045   .     S
H533   N549    1.045   .     S
H534   N549    1.045   .     S
H535   N550    1.045   .     S
H537   N550    1.045   .     S
N545   Zn559   2.018   .     S
N546   Zn560   2.018   .     S
O551   Zn559   1.985   .     S
O552   Zn560   1.985   .     S
O553   Zn559   1.985   .     S
O554   Zn560   1.985   .     S
O555   Zn559   1.950   .     S
O556   Zn560   1.950   .     S
O557   Zn559   1.949   .     S
O558   Zn560   1.949   .     S
C561   O610    1.280   .     A
C561   C564    1.411   .     S
C561   O607    1.281   .     A
C562   C564    1.405   .     A
C562   C573    1.524   .     S
C563   C579    1.412   .     A
C563   C580    1.411   .     A
C563   C572    1.410   .     S
C564   C578    1.406   .     A
C565   N602    1.368   .     A
C565   N603    1.431   .     S
C565   C904    1.434   1_545 S
C566   N604    1.430   .     S
C566   N601    1.368   .     A
C566   C735    1.433   .     S
C567   N605    1.431   .     S
C567   N602    1.368   .     A
C567   C902    1.433   1_545 S
C568   N601    1.368   .     A
C568   N606    1.431   .     S
C568   C733    1.434   .     S
C569   H594    1.104   .     S
C569   H592    1.111   .     S
C569   H581    1.110   .     S
C569   C578    1.524   .     S
C570   C579    1.522   .     S
C570   H595    1.104   .     S
C570   H597    1.110   .     S
C570   H596    1.110   .     S
C571   H598    1.104   .     S
C571   H599    1.110   .     S
C571   H600    1.110   .     S
C571   C580    1.522   .     S
C572   O608    1.281   .     A
C572   O609    1.281   .     A
C573   H582    1.108   .     S
C573   H583    1.111   .     S
C573   H584    1.104   .     S
C574   C576    1.366   .     S
C574   O611    1.280   .     A
C574   O614    1.279   .     A
C575   O612    1.280   .     A
C575   O613    1.279   .     A
C575   C577    1.366   .     S
C577   C1080   1.165   .     S
C579   C618    1.395   .     S
C580   C634    1.395   .     S
H585   N603    1.045   .     S
H586   N603    1.045   .     S
H587   N604    1.045   .     S
H588   N604    1.045   .     S
H589   N605    1.045   .     S
H590   N605    1.045   .     S
H591   N606    1.045   .     S
H593   N606    1.045   .     S
N601   Zn615   2.018   .     S
N602   Zn616   2.018   .     S
O607   Zn615   1.985   .     S
O608   Zn616   1.985   .     S
O609   Zn615   1.985   .     S
O610   Zn616   1.985   .     S
O611   Zn615   1.950   .     S
O612   Zn616   1.950   .     S
O613   Zn615   1.949   .     S
O614   Zn616   1.949   .     S
C617   O666    1.280   .     A
C617   C620    1.411   .     S
C617   O663    1.281   .     A
C618   C620    1.405   .     A
C618   C629    1.524   .     S
C619   C635    1.412   .     A
C619   C636    1.411   .     A
C619   C628    1.410   .     S
C620   C634    1.406   .     A
C621   N658    1.368   .     A
C621   N659    1.431   .     S
C621   C960    1.434   1_545 S
C622   N660    1.430   .     S
C622   N657    1.368   .     A
C622   C791    1.433   .     S
C623   N661    1.431   .     S
C623   N658    1.368   .     A
C623   C958    1.433   1_545 S
C624   N657    1.368   .     A
C624   N662    1.431   .     S
C624   C789    1.434   .     S
C625   H650    1.104   .     S
C625   H648    1.111   .     S
C625   H637    1.110   .     S
C625   C634    1.524   .     S
C626   C635    1.522   .     S
C626   H651    1.104   .     S
C626   H653    1.110   .     S
C626   H652    1.110   .     S
C627   H654    1.104   .     S
C627   H655    1.110   .     S
C627   H656    1.110   .     S
C627   C636    1.522   .     S
C628   O664    1.281   .     A
C628   O665    1.281   .     A
C629   H638    1.108   .     S
C629   H639    1.111   .     S
C629   H640    1.104   .     S
C630   C632    1.366   .     S
C630   O667    1.280   .     A
C630   O670    1.279   .     A
C631   O668    1.280   .     A
C631   O669    1.279   .     A
C631   C633    1.366   .     S
C633   C1136   1.165   .     S
C635   C506    1.395   1_655 S
C636   C522    1.395   1_655 S
H641   N659    1.045   .     S
H642   N659    1.045   .     S
H643   N660    1.045   .     S
H644   N660    1.045   .     S
H645   N661    1.045   .     S
H646   N661    1.045   .     S
H647   N662    1.045   .     S
H649   N662    1.045   .     S
N657   Zn671   2.018   .     S
N658   Zn672   2.018   .     S
O663   Zn671   1.985   .     S
O664   Zn672   1.985   .     S
O665   Zn671   1.985   .     S
O666   Zn672   1.985   .     S
O667   Zn671   1.950   .     S
O668   Zn672   1.950   .     S
O669   Zn671   1.949   .     S
O670   Zn672   1.949   .     S
C673   O722    1.280   .     A
C673   C676    1.411   .     S
C673   O719    1.281   .     A
C674   C676    1.405   .     A
C674   C685    1.524   .     S
C674   C803    1.395   1_455 S
C675   C691    1.412   .     A
C675   C692    1.411   .     A
C675   C684    1.410   .     S
C676   C690    1.406   .     A
C677   N714    1.368   .     A
C677   N715    1.431   .     S
C678   N716    1.430   .     S
C678   N713    1.368   .     A
C678   C847    1.433   .     S
C679   N717    1.431   .     S
C679   N714    1.368   .     A
C680   N713    1.368   .     A
C680   N718    1.431   .     S
C680   C845    1.434   .     S
C681   H706    1.104   .     S
C681   H704    1.111   .     S
C681   H693    1.110   .     S
C681   C690    1.524   .     S
C682   C691    1.522   .     S
C682   H707    1.104   .     S
C682   H709    1.110   .     S
C682   H708    1.110   .     S
C683   H710    1.104   .     S
C683   H711    1.110   .     S
C683   H712    1.110   .     S
C683   C692    1.522   .     S
C684   O720    1.281   .     A
C684   O721    1.281   .     A
C685   H694    1.108   .     S
C685   H695    1.111   .     S
C685   H696    1.104   .     S
C686   C688    1.366   .     S
C686   O723    1.280   .     A
C686   O726    1.279   .     A
C687   O724    1.280   .     A
C687   O725    1.279   .     A
C687   C689    1.366   .     S
C689   C1192   1.165   .     S
C690   C804    1.395   1_455 S
C691   C730    1.395   .     S
C692   C746    1.395   .     S
H697   N715    1.045   .     S
H698   N715    1.045   .     S
H699   N716    1.045   .     S
H700   N716    1.045   .     S
H701   N717    1.045   .     S
H702   N717    1.045   .     S
H703   N718    1.045   .     S
H705   N718    1.045   .     S
N713   Zn727   2.018   .     S
N714   Zn728   2.018   .     S
O719   Zn727   1.985   .     S
O720   Zn728   1.985   .     S
O721   Zn727   1.985   .     S
O722   Zn728   1.985   .     S
O723   Zn727   1.950   .     S
O724   Zn728   1.950   .     S
O725   Zn727   1.949   .     S
O726   Zn728   1.949   .     S
C729   O778    1.280   .     A
C729   C732    1.411   .     S
C729   O775    1.281   .     A
C730   C732    1.405   .     A
C730   C741    1.524   .     S
C731   C747    1.412   .     A
C731   C748    1.411   .     A
C731   C740    1.410   .     S
C732   C746    1.406   .     A
C733   N770    1.368   .     A
C733   N771    1.431   .     S
C734   N772    1.430   .     S
C734   N769    1.368   .     A
C734   C903    1.433   .     S
C735   N773    1.431   .     S
C735   N770    1.368   .     A
C736   N769    1.368   .     A
C736   N774    1.431   .     S
C736   C901    1.434   .     S
C737   H762    1.104   .     S
C737   H760    1.111   .     S
C737   H749    1.110   .     S
C737   C746    1.524   .     S
C738   C747    1.522   .     S
C738   H763    1.104   .     S
C738   H765    1.110   .     S
C738   H764    1.110   .     S
C739   H766    1.104   .     S
C739   H767    1.110   .     S
C739   H768    1.110   .     S
C739   C748    1.522   .     S
C740   O776    1.281   .     A
C740   O777    1.281   .     A
C741   H750    1.108   .     S
C741   H751    1.111   .     S
C741   H752    1.104   .     S
C742   C744    1.366   .     S
C742   O779    1.280   .     A
C742   O782    1.279   .     A
C743   O780    1.280   .     A
C743   O781    1.279   .     A
C743   C745    1.366   .     S
C745   C1248   1.165   .     S
C747   C786    1.395   .     S
C748   C802    1.395   .     S
H753   N771    1.045   .     S
H754   N771    1.045   .     S
H755   N772    1.045   .     S
H756   N772    1.045   .     S
H757   N773    1.045   .     S
H758   N773    1.045   .     S
H759   N774    1.045   .     S
H761   N774    1.045   .     S
N769   Zn783   2.018   .     S
N770   Zn784   2.018   .     S
O775   Zn783   1.985   .     S
O776   Zn784   1.985   .     S
O777   Zn783   1.985   .     S
O778   Zn784   1.985   .     S
O779   Zn783   1.950   .     S
O780   Zn784   1.950   .     S
O781   Zn783   1.949   .     S
O782   Zn784   1.949   .     S
C785   O834    1.280   .     A
C785   C788    1.411   .     S
C785   O831    1.281   .     A
C786   C788    1.405   .     A
C786   C797    1.524   .     S
C787   C803    1.412   .     A
C787   C804    1.411   .     A
C787   C796    1.410   .     S
C788   C802    1.406   .     A
C789   N826    1.368   .     A
C789   N827    1.431   .     S
C790   N828    1.430   .     S
C790   N825    1.368   .     A
C790   C959    1.433   .     S
C791   N829    1.431   .     S
C791   N826    1.368   .     A
C792   N825    1.368   .     A
C792   N830    1.431   .     S
C792   C957    1.434   .     S
C793   H818    1.104   .     S
C793   H816    1.111   .     S
C793   H805    1.110   .     S
C793   C802    1.524   .     S
C794   C803    1.522   .     S
C794   H819    1.104   .     S
C794   H821    1.110   .     S
C794   H820    1.110   .     S
C795   H822    1.104   .     S
C795   H823    1.110   .     S
C795   H824    1.110   .     S
C795   C804    1.522   .     S
C796   O832    1.281   .     A
C796   O833    1.281   .     A
C797   H806    1.108   .     S
C797   H807    1.111   .     S
C797   H808    1.104   .     S
C798   C800    1.366   .     S
C798   O835    1.280   .     A
C798   O838    1.279   .     A
C799   O836    1.280   .     A
C799   O837    1.279   .     A
C799   C801    1.366   .     S
C801   C1304   1.165   .     S
C803   C674    1.395   1_655 S
C804   C690    1.395   1_655 S
H809   N827    1.045   .     S
H810   N827    1.045   .     S
H811   N828    1.045   .     S
H812   N828    1.045   .     S
H813   N829    1.045   .     S
H814   N829    1.045   .     S
H815   N830    1.045   .     S
H817   N830    1.045   .     S
N825   Zn839   2.018   .     S
N826   Zn840   2.018   .     S
O831   Zn839   1.985   .     S
O832   Zn840   1.985   .     S
O833   Zn839   1.985   .     S
O834   Zn840   1.985   .     S
O835   Zn839   1.950   .     S
O836   Zn840   1.950   .     S
O837   Zn839   1.949   .     S
O838   Zn840   1.949   .     S
C841   O890    1.280   .     A
C841   C844    1.411   .     S
C841   O887    1.281   .     A
C842   C844    1.405   .     A
C842   C853    1.524   .     S
C842   C971    1.395   1_455 S
C843   C859    1.412   .     A
C843   C860    1.411   .     A
C843   C852    1.410   .     S
C844   C858    1.406   .     A
C845   N882    1.368   .     A
C845   N883    1.431   .     S
C846   N884    1.430   .     S
C846   N881    1.368   .     A
C846   C511    1.433   1_565 S
C847   N885    1.431   .     S
C847   N882    1.368   .     A
C848   N881    1.368   .     A
C848   N886    1.431   .     S
C848   C509    1.434   1_565 S
C849   H874    1.104   .     S
C849   H872    1.111   .     S
C849   H861    1.110   .     S
C849   C858    1.524   .     S
C850   C859    1.522   .     S
C850   H875    1.104   .     S
C850   H877    1.110   .     S
C850   H876    1.110   .     S
C851   H878    1.104   .     S
C851   H879    1.110   .     S
C851   H880    1.110   .     S
C851   C860    1.522   .     S
C852   O888    1.281   .     A
C852   O889    1.281   .     A
C853   H862    1.108   .     S
C853   H863    1.111   .     S
C853   H864    1.104   .     S
C854   C856    1.366   .     S
C854   O891    1.280   .     A
C854   O894    1.279   .     A
C855   O892    1.280   .     A
C855   O893    1.279   .     A
C855   C857    1.366   .     S
C857   C1360   1.165   .     S
C858   C972    1.395   1_455 S
C859   C898    1.395   .     S
C860   C914    1.395   .     S
H865   N883    1.045   .     S
H866   N883    1.045   .     S
H867   N884    1.045   .     S
H868   N884    1.045   .     S
H869   N885    1.045   .     S
H870   N885    1.045   .     S
H871   N886    1.045   .     S
H873   N886    1.045   .     S
N881   Zn895   2.018   .     S
N882   Zn896   2.018   .     S
O887   Zn895   1.985   .     S
O888   Zn896   1.985   .     S
O889   Zn895   1.985   .     S
O890   Zn896   1.985   .     S
O891   Zn895   1.950   .     S
O892   Zn896   1.950   .     S
O893   Zn895   1.949   .     S
O894   Zn896   1.949   .     S
C897   O946    1.280   .     A
C897   C900    1.411   .     S
C897   O943    1.281   .     A
C898   C900    1.405   .     A
C898   C909    1.524   .     S
C899   C915    1.412   .     A
C899   C916    1.411   .     A
C899   C908    1.410   .     S
C900   C914    1.406   .     A
C901   N938    1.368   .     A
C901   N939    1.431   .     S
C902   N940    1.430   .     S
C902   N937    1.368   .     A
C902   C567    1.433   1_565 S
C903   N941    1.431   .     S
C903   N938    1.368   .     A
C904   N937    1.368   .     A
C904   N942    1.431   .     S
C904   C565    1.434   1_565 S
C905   H930    1.104   .     S
C905   H928    1.111   .     S
C905   H917    1.110   .     S
C905   C914    1.524   .     S
C906   C915    1.522   .     S
C906   H931    1.104   .     S
C906   H933    1.110   .     S
C906   H932    1.110   .     S
C907   H934    1.104   .     S
C907   H935    1.110   .     S
C907   H936    1.110   .     S
C907   C916    1.522   .     S
C908   O944    1.281   .     A
C908   O945    1.281   .     A
C909   H918    1.108   .     S
C909   H919    1.111   .     S
C909   H920    1.104   .     S
C910   C912    1.366   .     S
C910   O947    1.280   .     A
C910   O950    1.279   .     A
C911   O948    1.280   .     A
C911   O949    1.279   .     A
C911   C913    1.366   .     S
C913   C1416   1.165   .     S
C915   C954    1.395   .     S
C916   C970    1.395   .     S
H921   N939    1.045   .     S
H922   N939    1.045   .     S
H923   N940    1.045   .     S
H924   N940    1.045   .     S
H925   N941    1.045   .     S
H926   N941    1.045   .     S
H927   N942    1.045   .     S
H929   N942    1.045   .     S
N937   Zn951   2.018   .     S
N938   Zn952   2.018   .     S
O943   Zn951   1.985   .     S
O944   Zn952   1.985   .     S
O945   Zn951   1.985   .     S
O946   Zn952   1.985   .     S
O947   Zn951   1.950   .     S
O948   Zn952   1.950   .     S
O949   Zn951   1.949   .     S
O950   Zn952   1.949   .     S
C953   O1002   1.280   .     A
C953   C956    1.411   .     S
C953   O999    1.281   .     A
C954   C956    1.405   .     A
C954   C965    1.524   .     S
C955   C971    1.412   .     A
C955   C972    1.411   .     A
C955   C964    1.410   .     S
C956   C970    1.406   .     A
C957   N994    1.368   .     A
C957   N995    1.431   .     S
C958   N996    1.430   .     S
C958   N993    1.368   .     A
C958   C623    1.433   1_565 S
C959   N997    1.431   .     S
C959   N994    1.368   .     A
C960   N993    1.368   .     A
C960   N998    1.431   .     S
C960   C621    1.434   1_565 S
C961   H986    1.104   .     S
C961   H984    1.111   .     S
C961   H973    1.110   .     S
C961   C970    1.524   .     S
C962   C971    1.522   .     S
C962   H987    1.104   .     S
C962   H989    1.110   .     S
C962   H988    1.110   .     S
C963   H990    1.104   .     S
C963   H991    1.110   .     S
C963   H992    1.110   .     S
C963   C972    1.522   .     S
C964   O1000   1.281   .     A
C964   O1001   1.281   .     A
C965   H974    1.108   .     S
C965   H975    1.111   .     S
C965   H976    1.104   .     S
C966   C968    1.366   .     S
C966   O1003   1.280   .     A
C966   O1006   1.279   .     A
C967   O1004   1.280   .     A
C967   O1005   1.279   .     A
C967   C969    1.366   .     S
C969   C1472   1.165   .     S
C971   C842    1.395   1_655 S
C972   C858    1.395   1_655 S
H977   N995    1.045   .     S
H978   N995    1.045   .     S
H979   N996    1.045   .     S
H980   N996    1.045   .     S
H981   N997    1.045   .     S
H982   N997    1.045   .     S
H983   N998    1.045   .     S
H985   N998    1.045   .     S
N993   Zn1007  2.018   .     S
N994   Zn1008  2.018   .     S
O999   Zn1007  1.985   .     S
O1000  Zn1008  1.985   .     S
O1001  Zn1007  1.985   .     S
O1002  Zn1008  1.985   .     S
O1003  Zn1007  1.950   .     S
O1004  Zn1008  1.950   .     S
O1005  Zn1007  1.949   .     S
O1006  Zn1008  1.949   .     S
C1009  O1058   1.280   .     A
C1009  C1012   1.411   .     S
C1009  O1055   1.281   .     A
C1010  C1012   1.405   .     A
C1010  C1021   1.524   .     S
C1010  C1139   1.395   1_455 S
C1011  C1027   1.412   .     A
C1011  C1028   1.411   .     A
C1011  C1020   1.410   .     S
C1012  C1026   1.406   .     A
C1013  N1050   1.368   .     A
C1013  N1051   1.431   .     S
C1013  C1352   1.434   1_545 S
C1014  N1052   1.430   .     S
C1014  N1049   1.368   .     A
C1014  C1183   1.433   .     S
C1015  N1053   1.431   .     S
C1015  N1050   1.368   .     A
C1015  C1350   1.433   1_545 S
C1016  N1049   1.368   .     A
C1016  N1054   1.431   .     S
C1016  C1181   1.434   .     S
C1017  H1042   1.104   .     S
C1017  H1040   1.111   .     S
C1017  H1029   1.110   .     S
C1017  C1026   1.524   .     S
C1018  C1027   1.522   .     S
C1018  H1043   1.104   .     S
C1018  H1045   1.110   .     S
C1018  H1044   1.110   .     S
C1019  H1046   1.104   .     S
C1019  H1047   1.110   .     S
C1019  H1048   1.110   .     S
C1019  C1028   1.522   .     S
C1020  O1056   1.281   .     A
C1020  O1057   1.281   .     A
C1021  H1030   1.108   .     S
C1021  H1031   1.111   .     S
C1021  H1032   1.104   .     S
C1022  C1024   1.366   .     S
C1022  O1059   1.280   .     A
C1022  O1062   1.279   .     A
C1023  O1060   1.280   .     A
C1023  O1061   1.279   .     A
C1023  C1025   1.366   .     S
C1025  C16     1.165   1_556 S
C1026  C1140   1.395   1_455 S
C1027  C1066   1.395   .     S
C1028  C1082   1.395   .     S
H1033  N1051   1.045   .     S
H1034  N1051   1.045   .     S
H1035  N1052   1.045   .     S
H1036  N1052   1.045   .     S
H1037  N1053   1.045   .     S
H1038  N1053   1.045   .     S
H1039  N1054   1.045   .     S
H1041  N1054   1.045   .     S
N1049  Zn1063  2.018   .     S
N1050  Zn1064  2.018   .     S
O1055  Zn1063  1.985   .     S
O1056  Zn1064  1.985   .     S
O1057  Zn1063  1.985   .     S
O1058  Zn1064  1.985   .     S
O1059  Zn1063  1.950   .     S
O1060  Zn1064  1.950   .     S
O1061  Zn1063  1.949   .     S
O1062  Zn1064  1.949   .     S
C1065  O1114   1.280   .     A
C1065  C1068   1.411   .     S
C1065  O1111   1.281   .     A
C1066  C1068   1.405   .     A
C1066  C1077   1.524   .     S
C1067  C1083   1.412   .     A
C1067  C1084   1.411   .     A
C1067  C1076   1.410   .     S
C1068  C1082   1.406   .     A
C1069  N1106   1.368   .     A
C1069  N1107   1.431   .     S
C1069  C1408   1.434   1_545 S
C1070  N1108   1.430   .     S
C1070  N1105   1.368   .     A
C1070  C1239   1.433   .     S
C1071  N1109   1.431   .     S
C1071  N1106   1.368   .     A
C1071  C1406   1.433   1_545 S
C1072  N1105   1.368   .     A
C1072  N1110   1.431   .     S
C1072  C1237   1.434   .     S
C1073  H1098   1.104   .     S
C1073  H1096   1.111   .     S
C1073  H1085   1.110   .     S
C1073  C1082   1.524   .     S
C1074  C1083   1.522   .     S
C1074  H1099   1.104   .     S
C1074  H1101   1.110   .     S
C1074  H1100   1.110   .     S
C1075  H1102   1.104   .     S
C1075  H1103   1.110   .     S
C1075  H1104   1.110   .     S
C1075  C1084   1.522   .     S
C1076  O1112   1.281   .     A
C1076  O1113   1.281   .     A
C1077  H1086   1.108   .     S
C1077  H1087   1.111   .     S
C1077  H1088   1.104   .     S
C1078  C1080   1.366   .     S
C1078  O1115   1.280   .     A
C1078  O1118   1.279   .     A
C1079  O1116   1.280   .     A
C1079  O1117   1.279   .     A
C1079  C1081   1.366   .     S
C1081  C72     1.165   1_556 S
C1083  C1122   1.395   .     S
C1084  C1138   1.395   .     S
H1089  N1107   1.045   .     S
H1090  N1107   1.045   .     S
H1091  N1108   1.045   .     S
H1092  N1108   1.045   .     S
H1093  N1109   1.045   .     S
H1094  N1109   1.045   .     S
H1095  N1110   1.045   .     S
H1097  N1110   1.045   .     S
N1105  Zn1119  2.018   .     S
N1106  Zn1120  2.018   .     S
O1111  Zn1119  1.985   .     S
O1112  Zn1120  1.985   .     S
O1113  Zn1119  1.985   .     S
O1114  Zn1120  1.985   .     S
O1115  Zn1119  1.950   .     S
O1116  Zn1120  1.950   .     S
O1117  Zn1119  1.949   .     S
O1118  Zn1120  1.949   .     S
C1121  O1170   1.280   .     A
C1121  C1124   1.411   .     S
C1121  O1167   1.281   .     A
C1122  C1124   1.405   .     A
C1122  C1133   1.524   .     S
C1123  C1139   1.412   .     A
C1123  C1140   1.411   .     A
C1123  C1132   1.410   .     S
C1124  C1138   1.406   .     A
C1125  N1162   1.368   .     A
C1125  N1163   1.431   .     S
C1125  C1464   1.434   1_545 S
C1126  N1164   1.430   .     S
C1126  N1161   1.368   .     A
C1126  C1295   1.433   .     S
C1127  N1165   1.431   .     S
C1127  N1162   1.368   .     A
C1127  C1462   1.433   1_545 S
C1128  N1161   1.368   .     A
C1128  N1166   1.431   .     S
C1128  C1293   1.434   .     S
C1129  H1154   1.104   .     S
C1129  H1152   1.111   .     S
C1129  H1141   1.110   .     S
C1129  C1138   1.524   .     S
C1130  C1139   1.522   .     S
C1130  H1155   1.104   .     S
C1130  H1157   1.110   .     S
C1130  H1156   1.110   .     S
C1131  H1158   1.104   .     S
C1131  H1159   1.110   .     S
C1131  H1160   1.110   .     S
C1131  C1140   1.522   .     S
C1132  O1168   1.281   .     A
C1132  O1169   1.281   .     A
C1133  H1142   1.108   .     S
C1133  H1143   1.111   .     S
C1133  H1144   1.104   .     S
C1134  C1136   1.366   .     S
C1134  O1171   1.280   .     A
C1134  O1174   1.279   .     A
C1135  O1172   1.280   .     A
C1135  O1173   1.279   .     A
C1135  C1137   1.366   .     S
C1137  C128    1.165   1_556 S
C1139  C1010   1.395   1_655 S
C1140  C1026   1.395   1_655 S
H1145  N1163   1.045   .     S
H1146  N1163   1.045   .     S
H1147  N1164   1.045   .     S
H1148  N1164   1.045   .     S
H1149  N1165   1.045   .     S
H1150  N1165   1.045   .     S
H1151  N1166   1.045   .     S
H1153  N1166   1.045   .     S
N1161  Zn1175  2.018   .     S
N1162  Zn1176  2.018   .     S
O1167  Zn1175  1.985   .     S
O1168  Zn1176  1.985   .     S
O1169  Zn1175  1.985   .     S
O1170  Zn1176  1.985   .     S
O1171  Zn1175  1.950   .     S
O1172  Zn1176  1.950   .     S
O1173  Zn1175  1.949   .     S
O1174  Zn1176  1.949   .     S
C1177  O1226   1.280   .     A
C1177  C1180   1.411   .     S
C1177  O1223   1.281   .     A
C1178  C1180   1.405   .     A
C1178  C1189   1.524   .     S
C1178  C1307   1.395   1_455 S
C1179  C1195   1.412   .     A
C1179  C1196   1.411   .     A
C1179  C1188   1.410   .     S
C1180  C1194   1.406   .     A
C1181  N1218   1.368   .     A
C1181  N1219   1.431   .     S
C1182  N1220   1.430   .     S
C1182  N1217   1.368   .     A
C1182  C1351   1.433   .     S
C1183  N1221   1.431   .     S
C1183  N1218   1.368   .     A
C1184  N1217   1.368   .     A
C1184  N1222   1.431   .     S
C1184  C1349   1.434   .     S
C1185  H1210   1.104   .     S
C1185  H1208   1.111   .     S
C1185  H1197   1.110   .     S
C1185  C1194   1.524   .     S
C1186  C1195   1.522   .     S
C1186  H1211   1.104   .     S
C1186  H1213   1.110   .     S
C1186  H1212   1.110   .     S
C1187  H1214   1.104   .     S
C1187  H1215   1.110   .     S
C1187  H1216   1.110   .     S
C1187  C1196   1.522   .     S
C1188  O1224   1.281   .     A
C1188  O1225   1.281   .     A
C1189  H1198   1.108   .     S
C1189  H1199   1.111   .     S
C1189  H1200   1.104   .     S
C1190  C1192   1.366   .     S
C1190  O1227   1.280   .     A
C1190  O1230   1.279   .     A
C1191  O1228   1.280   .     A
C1191  O1229   1.279   .     A
C1191  C1193   1.366   .     S
C1193  C184    1.165   1_556 S
C1194  C1308   1.395   1_455 S
C1195  C1234   1.395   .     S
C1196  C1250   1.395   .     S
H1201  N1219   1.045   .     S
H1202  N1219   1.045   .     S
H1203  N1220   1.045   .     S
H1204  N1220   1.045   .     S
H1205  N1221   1.045   .     S
H1206  N1221   1.045   .     S
H1207  N1222   1.045   .     S
H1209  N1222   1.045   .     S
N1217  Zn1231  2.018   .     S
N1218  Zn1232  2.018   .     S
O1223  Zn1231  1.985   .     S
O1224  Zn1232  1.985   .     S
O1225  Zn1231  1.985   .     S
O1226  Zn1232  1.985   .     S
O1227  Zn1231  1.950   .     S
O1228  Zn1232  1.950   .     S
O1229  Zn1231  1.949   .     S
O1230  Zn1232  1.949   .     S
C1233  O1282   1.280   .     A
C1233  C1236   1.411   .     S
C1233  O1279   1.281   .     A
C1234  C1236   1.405   .     A
C1234  C1245   1.524   .     S
C1235  C1251   1.412   .     A
C1235  C1252   1.411   .     A
C1235  C1244   1.410   .     S
C1236  C1250   1.406   .     A
C1237  N1274   1.368   .     A
C1237  N1275   1.431   .     S
C1238  N1276   1.430   .     S
C1238  N1273   1.368   .     A
C1238  C1407   1.433   .     S
C1239  N1277   1.431   .     S
C1239  N1274   1.368   .     A
C1240  N1273   1.368   .     A
C1240  N1278   1.431   .     S
C1240  C1405   1.434   .     S
C1241  H1266   1.104   .     S
C1241  H1264   1.111   .     S
C1241  H1253   1.110   .     S
C1241  C1250   1.524   .     S
C1242  C1251   1.522   .     S
C1242  H1267   1.104   .     S
C1242  H1269   1.110   .     S
C1242  H1268   1.110   .     S
C1243  H1270   1.104   .     S
C1243  H1271   1.110   .     S
C1243  H1272   1.110   .     S
C1243  C1252   1.522   .     S
C1244  O1280   1.281   .     A
C1244  O1281   1.281   .     A
C1245  H1254   1.108   .     S
C1245  H1255   1.111   .     S
C1245  H1256   1.104   .     S
C1246  C1248   1.366   .     S
C1246  O1283   1.280   .     A
C1246  O1286   1.279   .     A
C1247  O1284   1.280   .     A
C1247  O1285   1.279   .     A
C1247  C1249   1.366   .     S
C1249  C240    1.165   1_556 S
C1251  C1290   1.395   .     S
C1252  C1306   1.395   .     S
H1257  N1275   1.045   .     S
H1258  N1275   1.045   .     S
H1259  N1276   1.045   .     S
H1260  N1276   1.045   .     S
H1261  N1277   1.045   .     S
H1262  N1277   1.045   .     S
H1263  N1278   1.045   .     S
H1265  N1278   1.045   .     S
N1273  Zn1287  2.018   .     S
N1274  Zn1288  2.018   .     S
O1279  Zn1287  1.985   .     S
O1280  Zn1288  1.985   .     S
O1281  Zn1287  1.985   .     S
O1282  Zn1288  1.985   .     S
O1283  Zn1287  1.950   .     S
O1284  Zn1288  1.950   .     S
O1285  Zn1287  1.949   .     S
O1286  Zn1288  1.949   .     S
C1289  O1338   1.280   .     A
C1289  C1292   1.411   .     S
C1289  O1335   1.281   .     A
C1290  C1292   1.405   .     A
C1290  C1301   1.524   .     S
C1291  C1307   1.412   .     A
C1291  C1308   1.411   .     A
C1291  C1300   1.410   .     S
C1292  C1306   1.406   .     A
C1293  N1330   1.368   .     A
C1293  N1331   1.431   .     S
C1294  N1332   1.430   .     S
C1294  N1329   1.368   .     A
C1294  C1463   1.433   .     S
C1295  N1333   1.431   .     S
C1295  N1330   1.368   .     A
C1296  N1329   1.368   .     A
C1296  N1334   1.431   .     S
C1296  C1461   1.434   .     S
C1297  H1322   1.104   .     S
C1297  H1320   1.111   .     S
C1297  H1309   1.110   .     S
C1297  C1306   1.524   .     S
C1298  C1307   1.522   .     S
C1298  H1323   1.104   .     S
C1298  H1325   1.110   .     S
C1298  H1324   1.110   .     S
C1299  H1326   1.104   .     S
C1299  H1327   1.110   .     S
C1299  H1328   1.110   .     S
C1299  C1308   1.522   .     S
C1300  O1336   1.281   .     A
C1300  O1337   1.281   .     A
C1301  H1310   1.108   .     S
C1301  H1311   1.111   .     S
C1301  H1312   1.104   .     S
C1302  C1304   1.366   .     S
C1302  O1339   1.280   .     A
C1302  O1342   1.279   .     A
C1303  O1340   1.280   .     A
C1303  O1341   1.279   .     A
C1303  C1305   1.366   .     S
C1305  C296    1.165   1_556 S
C1307  C1178   1.395   1_655 S
C1308  C1194   1.395   1_655 S
H1313  N1331   1.045   .     S
H1314  N1331   1.045   .     S
H1315  N1332   1.045   .     S
H1316  N1332   1.045   .     S
H1317  N1333   1.045   .     S
H1318  N1333   1.045   .     S
H1319  N1334   1.045   .     S
H1321  N1334   1.045   .     S
N1329  Zn1343  2.018   .     S
N1330  Zn1344  2.018   .     S
O1335  Zn1343  1.985   .     S
O1336  Zn1344  1.985   .     S
O1337  Zn1343  1.985   .     S
O1338  Zn1344  1.985   .     S
O1339  Zn1343  1.950   .     S
O1340  Zn1344  1.950   .     S
O1341  Zn1343  1.949   .     S
O1342  Zn1344  1.949   .     S
C1345  O1394   1.280   .     A
C1345  C1348   1.411   .     S
C1345  O1391   1.281   .     A
C1346  C1348   1.405   .     A
C1346  C1357   1.524   .     S
C1346  C1475   1.395   1_455 S
C1347  C1363   1.412   .     A
C1347  C1364   1.411   .     A
C1347  C1356   1.410   .     S
C1348  C1362   1.406   .     A
C1349  N1386   1.368   .     A
C1349  N1387   1.431   .     S
C1350  N1388   1.430   .     S
C1350  N1385   1.368   .     A
C1350  C1015   1.433   1_565 S
C1351  N1389   1.431   .     S
C1351  N1386   1.368   .     A
C1352  N1385   1.368   .     A
C1352  N1390   1.431   .     S
C1352  C1013   1.434   1_565 S
C1353  H1378   1.104   .     S
C1353  H1376   1.111   .     S
C1353  H1365   1.110   .     S
C1353  C1362   1.524   .     S
C1354  C1363   1.522   .     S
C1354  H1379   1.104   .     S
C1354  H1381   1.110   .     S
C1354  H1380   1.110   .     S
C1355  H1382   1.104   .     S
C1355  H1383   1.110   .     S
C1355  H1384   1.110   .     S
C1355  C1364   1.522   .     S
C1356  O1392   1.281   .     A
C1356  O1393   1.281   .     A
C1357  H1366   1.108   .     S
C1357  H1367   1.111   .     S
C1357  H1368   1.104   .     S
C1358  C1360   1.366   .     S
C1358  O1395   1.280   .     A
C1358  O1398   1.279   .     A
C1359  O1396   1.280   .     A
C1359  O1397   1.279   .     A
C1359  C1361   1.366   .     S
C1361  C352    1.165   1_556 S
C1362  C1476   1.395   1_455 S
C1363  C1402   1.395   .     S
C1364  C1418   1.395   .     S
H1369  N1387   1.045   .     S
H1370  N1387   1.045   .     S
H1371  N1388   1.045   .     S
H1372  N1388   1.045   .     S
H1373  N1389   1.045   .     S
H1374  N1389   1.045   .     S
H1375  N1390   1.045   .     S
H1377  N1390   1.045   .     S
N1385  Zn1399  2.018   .     S
N1386  Zn1400  2.018   .     S
O1391  Zn1399  1.985   .     S
O1392  Zn1400  1.985   .     S
O1393  Zn1399  1.985   .     S
O1394  Zn1400  1.985   .     S
O1395  Zn1399  1.950   .     S
O1396  Zn1400  1.950   .     S
O1397  Zn1399  1.949   .     S
O1398  Zn1400  1.949   .     S
C1401  O1450   1.280   .     A
C1401  C1404   1.411   .     S
C1401  O1447   1.281   .     A
C1402  C1404   1.405   .     A
C1402  C1413   1.524   .     S
C1403  C1419   1.412   .     A
C1403  C1420   1.411   .     A
C1403  C1412   1.410   .     S
C1404  C1418   1.406   .     A
C1405  N1442   1.368   .     A
C1405  N1443   1.431   .     S
C1406  N1444   1.430   .     S
C1406  N1441   1.368   .     A
C1406  C1071   1.433   1_565 S
C1407  N1445   1.431   .     S
C1407  N1442   1.368   .     A
C1408  N1441   1.368   .     A
C1408  N1446   1.431   .     S
C1408  C1069   1.434   1_565 S
C1409  H1434   1.104   .     S
C1409  H1432   1.111   .     S
C1409  H1421   1.110   .     S
C1409  C1418   1.524   .     S
C1410  C1419   1.522   .     S
C1410  H1435   1.104   .     S
C1410  H1437   1.110   .     S
C1410  H1436   1.110   .     S
C1411  H1438   1.104   .     S
C1411  H1439   1.110   .     S
C1411  H1440   1.110   .     S
C1411  C1420   1.522   .     S
C1412  O1448   1.281   .     A
C1412  O1449   1.281   .     A
C1413  H1422   1.108   .     S
C1413  H1423   1.111   .     S
C1413  H1424   1.104   .     S
C1414  C1416   1.366   .     S
C1414  O1451   1.280   .     A
C1414  O1454   1.279   .     A
C1415  O1452   1.280   .     A
C1415  O1453   1.279   .     A
C1415  C1417   1.366   .     S
C1417  C408    1.165   1_556 S
C1419  C1458   1.395   .     S
C1420  C1474   1.395   .     S
H1425  N1443   1.045   .     S
H1426  N1443   1.045   .     S
H1427  N1444   1.045   .     S
H1428  N1444   1.045   .     S
H1429  N1445   1.045   .     S
H1430  N1445   1.045   .     S
H1431  N1446   1.045   .     S
H1433  N1446   1.045   .     S
N1441  Zn1455  2.018   .     S
N1442  Zn1456  2.018   .     S
O1447  Zn1455  1.985   .     S
O1448  Zn1456  1.985   .     S
O1449  Zn1455  1.985   .     S
O1450  Zn1456  1.985   .     S
O1451  Zn1455  1.950   .     S
O1452  Zn1456  1.950   .     S
O1453  Zn1455  1.949   .     S
O1454  Zn1456  1.949   .     S
C1457  O1506   1.280   .     A
C1457  C1460   1.411   .     S
C1457  O1503   1.281   .     A
C1458  C1460   1.405   .     A
C1458  C1469   1.524   .     S
C1459  C1475   1.412   .     A
C1459  C1476   1.411   .     A
C1459  C1468   1.410   .     S
C1460  C1474   1.406   .     A
C1461  N1498   1.368   .     A
C1461  N1499   1.431   .     S
C1462  N1500   1.430   .     S
C1462  N1497   1.368   .     A
C1462  C1127   1.433   1_565 S
C1463  N1501   1.431   .     S
C1463  N1498   1.368   .     A
C1464  N1497   1.368   .     A
C1464  N1502   1.431   .     S
C1464  C1125   1.434   1_565 S
C1465  H1490   1.104   .     S
C1465  H1488   1.111   .     S
C1465  H1477   1.110   .     S
C1465  C1474   1.524   .     S
C1466  C1475   1.522   .     S
C1466  H1491   1.104   .     S
C1466  H1493   1.110   .     S
C1466  H1492   1.110   .     S
C1467  H1494   1.104   .     S
C1467  H1495   1.110   .     S
C1467  H1496   1.110   .     S
C1467  C1476   1.522   .     S
C1468  O1504   1.281   .     A
C1468  O1505   1.281   .     A
C1469  H1478   1.108   .     S
C1469  H1479   1.111   .     S
C1469  H1480   1.104   .     S
C1470  C1472   1.366   .     S
C1470  O1507   1.280   .     A
C1470  O1510   1.279   .     A
C1471  O1508   1.280   .     A
C1471  O1509   1.279   .     A
C1471  C1473   1.366   .     S
C1473  C464    1.165   1_556 S
C1475  C1346   1.395   1_655 S
C1476  C1362   1.395   1_655 S
H1481  N1499   1.045   .     S
H1482  N1499   1.045   .     S
H1483  N1500   1.045   .     S
H1484  N1500   1.045   .     S
H1485  N1501   1.045   .     S
H1486  N1501   1.045   .     S
H1487  N1502   1.045   .     S
H1489  N1502   1.045   .     S
N1497  Zn1511  2.018   .     S
N1498  Zn1512  2.018   .     S
O1503  Zn1511  1.985   .     S
O1504  Zn1512  1.985   .     S
O1505  Zn1511  1.985   .     S
O1506  Zn1512  1.985   .     S
O1507  Zn1511  1.950   .     S
O1508  Zn1512  1.950   .     S
O1509  Zn1511  1.949   .     S
O1510  Zn1512  1.949   .     S
