data_str_m3_o10_o16_pcu_sym.139
_audit_creation_date              2020-01-03
_audit_creation_method            'Materials Studio'
_symmetry_space_group_name_H-M    'P1'
_symmetry_Int_Tables_number       1
_symmetry_cell_setting            triclinic
loop_
_symmetry_equiv_pos_as_xyz
  x,y,z
_cell_length_a                    23.4892
_cell_length_b                    25.7073
_cell_length_c                    24.1051
_cell_angle_alpha                 92.2676
_cell_angle_beta                  101.2765
_cell_angle_gamma                 94.1880
loop_
_atom_site_label
_atom_site_type_symbol
_atom_site_fract_x
_atom_site_fract_y
_atom_site_fract_z
_atom_site_U_iso_or_equiv
_atom_site_adp_type
_atom_site_occupancy
C1     C     0.01489   0.26491   0.24867   0.00000  Uiso   1.00
C2     C     0.05296   0.16693   0.41651   0.00000  Uiso   1.00
C3     C     0.02267   0.31951   0.24806   0.00000  Uiso   1.00
C4     C     0.03536   0.16791   0.35531   0.00000  Uiso   1.00
C5     C     0.31079   0.01386   0.25236   0.00000  Uiso   1.00
C6     C     0.31848   0.06843   0.25146   0.00000  Uiso   1.00
C7     C     0.29751   0.16281   0.14475   0.00000  Uiso   1.00
C8     C     0.26666   0.08886   0.00538   0.00000  Uiso   1.00
C9     C     0.27703   0.15131   0.08477   0.00000  Uiso   1.00
C10    C     0.02407   0.19582   0.45149   0.00000  Uiso   1.00
C11    C     0.04716   0.20313   0.00914   0.00000  Uiso   1.00
C12    C     0.13211   0.15904   0.49518   0.00000  Uiso   1.00
C13    C     0.10115   0.18533   0.03099   0.00000  Uiso   1.00
C14    C     0.10321   0.14279   0.44010   0.00000  Uiso   1.00
C15    C     0.18996   0.14657   0.01299   0.00000  Uiso   1.00
C16    C     0.21186   0.10613   0.48307   0.00000  Uiso   1.00
C17    C     0.17856   0.08359   0.43194   0.00000  Uiso   1.00
C18    C     0.12509   0.10310   0.41008   0.00000  Uiso   1.00
C19    C     0.22741   0.17379   0.05900   0.00000  Uiso   1.00
C20    C     0.29774   0.10968   0.05756   0.00000  Uiso   1.00
Cl21   Cl    0.21963   0.23958   0.07990   0.00000  Uiso   1.00
H22    H     0.00342   0.09229   0.07743   0.00000  Uiso   1.00
H23    H     0.06528   0.00338   0.24403   0.00000  Uiso   1.00
H24    H     0.17103   0.03292   0.36807   0.00000  Uiso   1.00
H25    H     0.26821   0.32999   0.25645   0.00000  Uiso   1.00
H26    H     0.15650   0.12499   0.20809   0.00000  Uiso   1.00
H27    H     0.17683   0.20834   0.29191   0.00000  Uiso   1.00
H28    H     0.28404   0.05745   0.48433   0.00000  Uiso   1.00
H29    H     0.31778   0.21354   0.43414   0.00000  Uiso   1.00
H30    H     0.11761   0.19111   0.07610   0.00000  Uiso   1.00
H31    H     0.02430   0.22422   0.03654   0.00000  Uiso   1.00
H32    H     0.09976   0.08574   0.37044   0.00000  Uiso   1.00
N33    N     0.14493   0.15223   0.23542   0.00000  Uiso   1.00
N34    N     0.18840   0.18110   0.26457   0.00000  Uiso   1.00
O35    O     0.29769   0.24629   0.25357   0.00000  Uiso   1.00
O36    O     0.05742   0.23704   0.24423   0.00000  Uiso   1.00
O37    O     0.31490   0.17358   0.33380   0.00000  Uiso   1.00
O38    O     0.07463   0.16433   0.32446   0.00000  Uiso   1.00
O39    O     0.27592   0.09629   0.25576   0.00000  Uiso   1.00
O40    O     0.03565   0.08704   0.24642   0.00000  Uiso   1.00
O41    O     0.25870   0.16901   0.17554   0.00000  Uiso   1.00
O42    O     0.01843   0.15976   0.16620   0.00000  Uiso   1.00
O43    O     0.19960   0.04388   0.40336   0.00000  Uiso   1.00
Zn44   Zn    0.27119   0.17284   0.25623   0.00000  Uiso   1.00
Zn45   Zn    0.06214   0.16049   0.24376   0.00000  Uiso   1.00
C46    C     0.34823   0.26491   0.24867   0.00000  Uiso   1.00
C47    C     0.38629   0.16693   0.41651   0.00000  Uiso   1.00
C48    C     0.35601   0.31951   0.24806   0.00000  Uiso   1.00
C49    C     0.36870   0.16791   0.35531   0.00000  Uiso   1.00
C50    C     0.64413   0.01386   0.25236   0.00000  Uiso   1.00
C51    C     0.65182   0.06843   0.25146   0.00000  Uiso   1.00
C52    C     0.63084   0.16281   0.14475   0.00000  Uiso   1.00
C53    C     0.59999   0.08886   0.00538   0.00000  Uiso   1.00
C54    C     0.61036   0.15131   0.08477   0.00000  Uiso   1.00
C55    C     0.35741   0.19582   0.45149   0.00000  Uiso   1.00
C56    C     0.38050   0.20313   0.00914   0.00000  Uiso   1.00
C57    C     0.46544   0.15904   0.49518   0.00000  Uiso   1.00
C58    C     0.43448   0.18533   0.03099   0.00000  Uiso   1.00
C59    C     0.43655   0.14279   0.44010   0.00000  Uiso   1.00
C60    C     0.52329   0.14657   0.01299   0.00000  Uiso   1.00
C61    C     0.54519   0.10613   0.48307   0.00000  Uiso   1.00
C62    C     0.51190   0.08359   0.43194   0.00000  Uiso   1.00
C63    C     0.45843   0.10310   0.41008   0.00000  Uiso   1.00
C64    C     0.56075   0.17379   0.05900   0.00000  Uiso   1.00
C65    C     0.63107   0.10968   0.05756   0.00000  Uiso   1.00
Cl66   Cl    0.55296   0.23958   0.07990   0.00000  Uiso   1.00
H67    H     0.33675   0.09229   0.07743   0.00000  Uiso   1.00
H68    H     0.39861   0.00338   0.24403   0.00000  Uiso   1.00
H69    H     0.50436   0.03292   0.36807   0.00000  Uiso   1.00
H70    H     0.60154   0.32999   0.25645   0.00000  Uiso   1.00
H71    H     0.48983   0.12499   0.20809   0.00000  Uiso   1.00
H72    H     0.51017   0.20834   0.29191   0.00000  Uiso   1.00
H73    H     0.61737   0.05745   0.48433   0.00000  Uiso   1.00
H74    H     0.65111   0.21354   0.43414   0.00000  Uiso   1.00
H75    H     0.45094   0.19111   0.07610   0.00000  Uiso   1.00
H76    H     0.35763   0.22422   0.03654   0.00000  Uiso   1.00
H77    H     0.43309   0.08574   0.37044   0.00000  Uiso   1.00
N78    N     0.47827   0.15223   0.23542   0.00000  Uiso   1.00
N79    N     0.52173   0.18110   0.26457   0.00000  Uiso   1.00
O80    O     0.63102   0.24629   0.25357   0.00000  Uiso   1.00
O81    O     0.39075   0.23704   0.24423   0.00000  Uiso   1.00
O82    O     0.64823   0.17358   0.33380   0.00000  Uiso   1.00
O83    O     0.40796   0.16433   0.32446   0.00000  Uiso   1.00
O84    O     0.60925   0.09629   0.25576   0.00000  Uiso   1.00
O85    O     0.36898   0.08704   0.24642   0.00000  Uiso   1.00
O86    O     0.59204   0.16901   0.17554   0.00000  Uiso   1.00
O87    O     0.35177   0.15976   0.16620   0.00000  Uiso   1.00
O88    O     0.53294   0.04388   0.40336   0.00000  Uiso   1.00
Zn89   Zn    0.60453   0.17284   0.25623   0.00000  Uiso   1.00
Zn90   Zn    0.39547   0.16049   0.24376   0.00000  Uiso   1.00
C91    C     0.68156   0.26491   0.24867   0.00000  Uiso   1.00
C92    C     0.71963   0.16693   0.41651   0.00000  Uiso   1.00
C93    C     0.68934   0.31951   0.24806   0.00000  Uiso   1.00
C94    C     0.70203   0.16791   0.35531   0.00000  Uiso   1.00
C95    C     0.97746   0.01386   0.25236   0.00000  Uiso   1.00
C96    C     0.98515   0.06843   0.25146   0.00000  Uiso   1.00
C97    C     0.96417   0.16281   0.14475   0.00000  Uiso   1.00
C98    C     0.93333   0.08886   0.00538   0.00000  Uiso   1.00
C99    C     0.94369   0.15131   0.08477   0.00000  Uiso   1.00
C100   C     0.69074   0.19582   0.45149   0.00000  Uiso   1.00
C101   C     0.71383   0.20313   0.00914   0.00000  Uiso   1.00
C102   C     0.79877   0.15904   0.49518   0.00000  Uiso   1.00
C103   C     0.76782   0.18533   0.03099   0.00000  Uiso   1.00
C104   C     0.76988   0.14279   0.44010   0.00000  Uiso   1.00
C105   C     0.85662   0.14657   0.01299   0.00000  Uiso   1.00
C106   C     0.87853   0.10613   0.48307   0.00000  Uiso   1.00
C107   C     0.84523   0.08359   0.43194   0.00000  Uiso   1.00
C108   C     0.79176   0.10310   0.41008   0.00000  Uiso   1.00
C109   C     0.89408   0.17379   0.05900   0.00000  Uiso   1.00
C110   C     0.96441   0.10968   0.05756   0.00000  Uiso   1.00
Cl111  Cl    0.88630   0.23958   0.07990   0.00000  Uiso   1.00
H112   H     0.67008   0.09229   0.07743   0.00000  Uiso   1.00
H113   H     0.73194   0.00338   0.24403   0.00000  Uiso   1.00
H114   H     0.83770   0.03292   0.36807   0.00000  Uiso   1.00
H115   H     0.93488   0.32999   0.25645   0.00000  Uiso   1.00
H116   H     0.82317   0.12499   0.20809   0.00000  Uiso   1.00
H117   H     0.84350   0.20834   0.29191   0.00000  Uiso   1.00
H118   H     0.95070   0.05745   0.48433   0.00000  Uiso   1.00
H119   H     0.98445   0.21354   0.43414   0.00000  Uiso   1.00
H120   H     0.78427   0.19111   0.07610   0.00000  Uiso   1.00
H121   H     0.69096   0.22422   0.03654   0.00000  Uiso   1.00
H122   H     0.76643   0.08574   0.37044   0.00000  Uiso   1.00
N123   N     0.81160   0.15223   0.23542   0.00000  Uiso   1.00
N124   N     0.85507   0.18110   0.26457   0.00000  Uiso   1.00
O125   O     0.96435   0.24629   0.25357   0.00000  Uiso   1.00
O126   O     0.72408   0.23704   0.24423   0.00000  Uiso   1.00
O127   O     0.98157   0.17358   0.33380   0.00000  Uiso   1.00
O128   O     0.74130   0.16433   0.32446   0.00000  Uiso   1.00
O129   O     0.94258   0.09629   0.25576   0.00000  Uiso   1.00
O130   O     0.70231   0.08704   0.24642   0.00000  Uiso   1.00
O131   O     0.92537   0.16901   0.17554   0.00000  Uiso   1.00
O132   O     0.68510   0.15976   0.16620   0.00000  Uiso   1.00
O133   O     0.86627   0.04388   0.40336   0.00000  Uiso   1.00
Zn134  Zn    0.93786   0.17284   0.25623   0.00000  Uiso   1.00
Zn135  Zn    0.72881   0.16049   0.24376   0.00000  Uiso   1.00
C136   C     0.01489   0.59825   0.24867   0.00000  Uiso   1.00
C137   C     0.05296   0.50026   0.41651   0.00000  Uiso   1.00
C138   C     0.02267   0.65284   0.24806   0.00000  Uiso   1.00
C139   C     0.03536   0.50124   0.35531   0.00000  Uiso   1.00
C140   C     0.31079   0.34719   0.25236   0.00000  Uiso   1.00
C141   C     0.31848   0.40176   0.25146   0.00000  Uiso   1.00
C142   C     0.29751   0.49615   0.14475   0.00000  Uiso   1.00
C143   C     0.26666   0.42220   0.00538   0.00000  Uiso   1.00
C144   C     0.27703   0.48464   0.08477   0.00000  Uiso   1.00
C145   C     0.02407   0.52915   0.45149   0.00000  Uiso   1.00
C146   C     0.04716   0.53646   0.00914   0.00000  Uiso   1.00
C147   C     0.13211   0.49237   0.49518   0.00000  Uiso   1.00
C148   C     0.10115   0.51867   0.03099   0.00000  Uiso   1.00
C149   C     0.10321   0.47612   0.44010   0.00000  Uiso   1.00
C150   C     0.18996   0.47991   0.01299   0.00000  Uiso   1.00
C151   C     0.21186   0.43947   0.48307   0.00000  Uiso   1.00
C152   C     0.17856   0.41693   0.43194   0.00000  Uiso   1.00
C153   C     0.12509   0.43644   0.41008   0.00000  Uiso   1.00
C154   C     0.22741   0.50713   0.05900   0.00000  Uiso   1.00
C155   C     0.29774   0.44301   0.05756   0.00000  Uiso   1.00
Cl156  Cl    0.21963   0.57292   0.07990   0.00000  Uiso   1.00
H157   H     0.00342   0.42563   0.07743   0.00000  Uiso   1.00
H158   H     0.06528   0.33671   0.24403   0.00000  Uiso   1.00
H159   H     0.17103   0.36626   0.36807   0.00000  Uiso   1.00
H160   H     0.26821   0.66333   0.25645   0.00000  Uiso   1.00
H161   H     0.15650   0.45833   0.20809   0.00000  Uiso   1.00
H162   H     0.17683   0.54167   0.29191   0.00000  Uiso   1.00
H163   H     0.28404   0.39078   0.48433   0.00000  Uiso   1.00
H164   H     0.31778   0.54687   0.43414   0.00000  Uiso   1.00
H165   H     0.11761   0.52444   0.07610   0.00000  Uiso   1.00
H166   H     0.02430   0.55756   0.03654   0.00000  Uiso   1.00
H167   H     0.09976   0.41907   0.37044   0.00000  Uiso   1.00
N168   N     0.14493   0.48556   0.23542   0.00000  Uiso   1.00
N169   N     0.18840   0.51444   0.26457   0.00000  Uiso   1.00
O170   O     0.29769   0.57963   0.25357   0.00000  Uiso   1.00
O171   O     0.05742   0.57038   0.24423   0.00000  Uiso   1.00
O172   O     0.31490   0.50691   0.33380   0.00000  Uiso   1.00
O173   O     0.07463   0.49766   0.32446   0.00000  Uiso   1.00
O174   O     0.27592   0.42962   0.25576   0.00000  Uiso   1.00
O175   O     0.03565   0.42037   0.24642   0.00000  Uiso   1.00
O176   O     0.25870   0.50234   0.17554   0.00000  Uiso   1.00
O177   O     0.01843   0.49309   0.16620   0.00000  Uiso   1.00
O178   O     0.19960   0.37722   0.40336   0.00000  Uiso   1.00
Zn179  Zn    0.27119   0.50618   0.25623   0.00000  Uiso   1.00
Zn180  Zn    0.06214   0.49382   0.24376   0.00000  Uiso   1.00
C181   C     0.34823   0.59825   0.24867   0.00000  Uiso   1.00
C182   C     0.38629   0.50026   0.41651   0.00000  Uiso   1.00
C183   C     0.35601   0.65284   0.24806   0.00000  Uiso   1.00
C184   C     0.36870   0.50124   0.35531   0.00000  Uiso   1.00
C185   C     0.64413   0.34719   0.25236   0.00000  Uiso   1.00
C186   C     0.65182   0.40176   0.25146   0.00000  Uiso   1.00
C187   C     0.63084   0.49615   0.14475   0.00000  Uiso   1.00
C188   C     0.59999   0.42220   0.00538   0.00000  Uiso   1.00
C189   C     0.61036   0.48464   0.08477   0.00000  Uiso   1.00
C190   C     0.35741   0.52915   0.45149   0.00000  Uiso   1.00
C191   C     0.38050   0.53646   0.00914   0.00000  Uiso   1.00
C192   C     0.46544   0.49237   0.49518   0.00000  Uiso   1.00
C193   C     0.43448   0.51867   0.03099   0.00000  Uiso   1.00
C194   C     0.43655   0.47612   0.44010   0.00000  Uiso   1.00
C195   C     0.52329   0.47991   0.01299   0.00000  Uiso   1.00
C196   C     0.54519   0.43947   0.48307   0.00000  Uiso   1.00
C197   C     0.51190   0.41693   0.43194   0.00000  Uiso   1.00
C198   C     0.45843   0.43644   0.41008   0.00000  Uiso   1.00
C199   C     0.56075   0.50713   0.05900   0.00000  Uiso   1.00
C200   C     0.63107   0.44301   0.05756   0.00000  Uiso   1.00
Cl201  Cl    0.55296   0.57292   0.07990   0.00000  Uiso   1.00
H202   H     0.33675   0.42563   0.07743   0.00000  Uiso   1.00
H203   H     0.39861   0.33671   0.24403   0.00000  Uiso   1.00
H204   H     0.50436   0.36626   0.36807   0.00000  Uiso   1.00
H205   H     0.60154   0.66333   0.25645   0.00000  Uiso   1.00
H206   H     0.48983   0.45833   0.20809   0.00000  Uiso   1.00
H207   H     0.51017   0.54167   0.29191   0.00000  Uiso   1.00
H208   H     0.61737   0.39078   0.48433   0.00000  Uiso   1.00
H209   H     0.65111   0.54687   0.43414   0.00000  Uiso   1.00
H210   H     0.45094   0.52444   0.07610   0.00000  Uiso   1.00
H211   H     0.35763   0.55756   0.03654   0.00000  Uiso   1.00
H212   H     0.43309   0.41907   0.37044   0.00000  Uiso   1.00
N213   N     0.47827   0.48556   0.23542   0.00000  Uiso   1.00
N214   N     0.52173   0.51444   0.26457   0.00000  Uiso   1.00
O215   O     0.63102   0.57963   0.25357   0.00000  Uiso   1.00
O216   O     0.39075   0.57038   0.24423   0.00000  Uiso   1.00
O217   O     0.64823   0.50691   0.33380   0.00000  Uiso   1.00
O218   O     0.40796   0.49766   0.32446   0.00000  Uiso   1.00
O219   O     0.60925   0.42962   0.25576   0.00000  Uiso   1.00
O220   O     0.36898   0.42037   0.24642   0.00000  Uiso   1.00
O221   O     0.59204   0.50234   0.17554   0.00000  Uiso   1.00
O222   O     0.35177   0.49309   0.16620   0.00000  Uiso   1.00
O223   O     0.53294   0.37722   0.40336   0.00000  Uiso   1.00
Zn224  Zn    0.60453   0.50618   0.25623   0.00000  Uiso   1.00
Zn225  Zn    0.39547   0.49382   0.24376   0.00000  Uiso   1.00
C226   C     0.68156   0.59825   0.24867   0.00000  Uiso   1.00
C227   C     0.71963   0.50026   0.41651   0.00000  Uiso   1.00
C228   C     0.68934   0.65284   0.24806   0.00000  Uiso   1.00
C229   C     0.70203   0.50124   0.35531   0.00000  Uiso   1.00
C230   C     0.97746   0.34719   0.25236   0.00000  Uiso   1.00
C231   C     0.98515   0.40176   0.25146   0.00000  Uiso   1.00
C232   C     0.96417   0.49615   0.14475   0.00000  Uiso   1.00
C233   C     0.93333   0.42220   0.00538   0.00000  Uiso   1.00
C234   C     0.94369   0.48464   0.08477   0.00000  Uiso   1.00
C235   C     0.69074   0.52915   0.45149   0.00000  Uiso   1.00
C236   C     0.71383   0.53646   0.00914   0.00000  Uiso   1.00
C237   C     0.79877   0.49237   0.49518   0.00000  Uiso   1.00
C238   C     0.76782   0.51867   0.03099   0.00000  Uiso   1.00
C239   C     0.76988   0.47612   0.44010   0.00000  Uiso   1.00
C240   C     0.85662   0.47991   0.01299   0.00000  Uiso   1.00
C241   C     0.87853   0.43947   0.48307   0.00000  Uiso   1.00
C242   C     0.84523   0.41693   0.43194   0.00000  Uiso   1.00
C243   C     0.79176   0.43644   0.41008   0.00000  Uiso   1.00
C244   C     0.89408   0.50713   0.05900   0.00000  Uiso   1.00
C245   C     0.96441   0.44301   0.05756   0.00000  Uiso   1.00
Cl246  Cl    0.88630   0.57292   0.07990   0.00000  Uiso   1.00
H247   H     0.67008   0.42563   0.07743   0.00000  Uiso   1.00
H248   H     0.73194   0.33671   0.24403   0.00000  Uiso   1.00
H249   H     0.83770   0.36626   0.36807   0.00000  Uiso   1.00
H250   H     0.93488   0.66333   0.25645   0.00000  Uiso   1.00
H251   H     0.82317   0.45833   0.20809   0.00000  Uiso   1.00
H252   H     0.84350   0.54167   0.29191   0.00000  Uiso   1.00
H253   H     0.95070   0.39078   0.48433   0.00000  Uiso   1.00
H254   H     0.98445   0.54687   0.43414   0.00000  Uiso   1.00
H255   H     0.78427   0.52444   0.07610   0.00000  Uiso   1.00
H256   H     0.69096   0.55756   0.03654   0.00000  Uiso   1.00
H257   H     0.76643   0.41907   0.37044   0.00000  Uiso   1.00
N258   N     0.81160   0.48556   0.23542   0.00000  Uiso   1.00
N259   N     0.85507   0.51444   0.26457   0.00000  Uiso   1.00
O260   O     0.96435   0.57963   0.25357   0.00000  Uiso   1.00
O261   O     0.72408   0.57038   0.24423   0.00000  Uiso   1.00
O262   O     0.98157   0.50691   0.33380   0.00000  Uiso   1.00
O263   O     0.74130   0.49766   0.32446   0.00000  Uiso   1.00
O264   O     0.94258   0.42962   0.25576   0.00000  Uiso   1.00
O265   O     0.70231   0.42037   0.24642   0.00000  Uiso   1.00
O266   O     0.92537   0.50234   0.17554   0.00000  Uiso   1.00
O267   O     0.68510   0.49309   0.16620   0.00000  Uiso   1.00
O268   O     0.86627   0.37722   0.40336   0.00000  Uiso   1.00
Zn269  Zn    0.93786   0.50618   0.25623   0.00000  Uiso   1.00
Zn270  Zn    0.72881   0.49382   0.24376   0.00000  Uiso   1.00
C271   C     0.01489   0.93158   0.24867   0.00000  Uiso   1.00
C272   C     0.05296   0.83360   0.41651   0.00000  Uiso   1.00
C273   C     0.02267   0.98617   0.24806   0.00000  Uiso   1.00
C274   C     0.03536   0.83458   0.35531   0.00000  Uiso   1.00
C275   C     0.31079   0.68053   0.25236   0.00000  Uiso   1.00
C276   C     0.31848   0.73509   0.25146   0.00000  Uiso   1.00
C277   C     0.29751   0.82948   0.14475   0.00000  Uiso   1.00
C278   C     0.26666   0.75553   0.00538   0.00000  Uiso   1.00
C279   C     0.27703   0.81798   0.08477   0.00000  Uiso   1.00
C280   C     0.02407   0.86248   0.45149   0.00000  Uiso   1.00
C281   C     0.04716   0.86980   0.00914   0.00000  Uiso   1.00
C282   C     0.13211   0.82571   0.49518   0.00000  Uiso   1.00
C283   C     0.10115   0.85200   0.03099   0.00000  Uiso   1.00
C284   C     0.10321   0.80946   0.44010   0.00000  Uiso   1.00
C285   C     0.18996   0.81324   0.01299   0.00000  Uiso   1.00
C286   C     0.21186   0.77280   0.48307   0.00000  Uiso   1.00
C287   C     0.17856   0.75026   0.43194   0.00000  Uiso   1.00
C288   C     0.12509   0.76977   0.41008   0.00000  Uiso   1.00
C289   C     0.22741   0.84046   0.05900   0.00000  Uiso   1.00
C290   C     0.29774   0.77634   0.05756   0.00000  Uiso   1.00
Cl291  Cl    0.21963   0.90625   0.07990   0.00000  Uiso   1.00
H292   H     0.00342   0.75896   0.07743   0.00000  Uiso   1.00
H293   H     0.06528   0.67005   0.24403   0.00000  Uiso   1.00
H294   H     0.17103   0.69959   0.36807   0.00000  Uiso   1.00
H295   H     0.26821   0.99666   0.25645   0.00000  Uiso   1.00
H296   H     0.15650   0.79166   0.20809   0.00000  Uiso   1.00
H297   H     0.17683   0.87500   0.29191   0.00000  Uiso   1.00
H298   H     0.28404   0.72411   0.48433   0.00000  Uiso   1.00
H299   H     0.31778   0.88020   0.43414   0.00000  Uiso   1.00
H300   H     0.11761   0.85778   0.07610   0.00000  Uiso   1.00
H301   H     0.02430   0.89089   0.03654   0.00000  Uiso   1.00
H302   H     0.09976   0.75241   0.37044   0.00000  Uiso   1.00
N303   N     0.14493   0.81890   0.23542   0.00000  Uiso   1.00
N304   N     0.18840   0.84777   0.26457   0.00000  Uiso   1.00
O305   O     0.29769   0.91296   0.25357   0.00000  Uiso   1.00
O306   O     0.05742   0.90371   0.24423   0.00000  Uiso   1.00
O307   O     0.31490   0.84024   0.33380   0.00000  Uiso   1.00
O308   O     0.07463   0.83099   0.32446   0.00000  Uiso   1.00
O309   O     0.27592   0.76296   0.25576   0.00000  Uiso   1.00
O310   O     0.03565   0.75371   0.24642   0.00000  Uiso   1.00
O311   O     0.25870   0.83567   0.17554   0.00000  Uiso   1.00
O312   O     0.01843   0.82642   0.16620   0.00000  Uiso   1.00
O313   O     0.19960   0.71055   0.40336   0.00000  Uiso   1.00
Zn314  Zn    0.27119   0.83951   0.25623   0.00000  Uiso   1.00
Zn315  Zn    0.06214   0.82716   0.24376   0.00000  Uiso   1.00
C316   C     0.34823   0.93158   0.24867   0.00000  Uiso   1.00
C317   C     0.38629   0.83360   0.41651   0.00000  Uiso   1.00
C318   C     0.35601   0.98617   0.24806   0.00000  Uiso   1.00
C319   C     0.36870   0.83458   0.35531   0.00000  Uiso   1.00
C320   C     0.64413   0.68053   0.25236   0.00000  Uiso   1.00
C321   C     0.65182   0.73509   0.25146   0.00000  Uiso   1.00
C322   C     0.63084   0.82948   0.14475   0.00000  Uiso   1.00
C323   C     0.59999   0.75553   0.00538   0.00000  Uiso   1.00
C324   C     0.61036   0.81798   0.08477   0.00000  Uiso   1.00
C325   C     0.35741   0.86248   0.45149   0.00000  Uiso   1.00
C326   C     0.38050   0.86980   0.00914   0.00000  Uiso   1.00
C327   C     0.46544   0.82571   0.49518   0.00000  Uiso   1.00
C328   C     0.43448   0.85200   0.03099   0.00000  Uiso   1.00
C329   C     0.43655   0.80946   0.44010   0.00000  Uiso   1.00
C330   C     0.52329   0.81324   0.01299   0.00000  Uiso   1.00
C331   C     0.54519   0.77280   0.48307   0.00000  Uiso   1.00
C332   C     0.51190   0.75026   0.43194   0.00000  Uiso   1.00
C333   C     0.45843   0.76977   0.41008   0.00000  Uiso   1.00
C334   C     0.56075   0.84046   0.05900   0.00000  Uiso   1.00
C335   C     0.63107   0.77634   0.05756   0.00000  Uiso   1.00
Cl336  Cl    0.55296   0.90625   0.07990   0.00000  Uiso   1.00
H337   H     0.33675   0.75896   0.07743   0.00000  Uiso   1.00
H338   H     0.39861   0.67005   0.24403   0.00000  Uiso   1.00
H339   H     0.50436   0.69959   0.36807   0.00000  Uiso   1.00
H340   H     0.60154   0.99666   0.25645   0.00000  Uiso   1.00
H341   H     0.48983   0.79166   0.20809   0.00000  Uiso   1.00
H342   H     0.51017   0.87500   0.29191   0.00000  Uiso   1.00
H343   H     0.61737   0.72411   0.48433   0.00000  Uiso   1.00
H344   H     0.65111   0.88020   0.43414   0.00000  Uiso   1.00
H345   H     0.45094   0.85778   0.07610   0.00000  Uiso   1.00
H346   H     0.35763   0.89089   0.03654   0.00000  Uiso   1.00
H347   H     0.43309   0.75241   0.37044   0.00000  Uiso   1.00
N348   N     0.47827   0.81890   0.23542   0.00000  Uiso   1.00
N349   N     0.52173   0.84777   0.26457   0.00000  Uiso   1.00
O350   O     0.63102   0.91296   0.25357   0.00000  Uiso   1.00
O351   O     0.39075   0.90371   0.24423   0.00000  Uiso   1.00
O352   O     0.64823   0.84024   0.33380   0.00000  Uiso   1.00
O353   O     0.40796   0.83099   0.32446   0.00000  Uiso   1.00
O354   O     0.60925   0.76296   0.25576   0.00000  Uiso   1.00
O355   O     0.36898   0.75371   0.24642   0.00000  Uiso   1.00
O356   O     0.59204   0.83567   0.17554   0.00000  Uiso   1.00
O357   O     0.35177   0.82642   0.16620   0.00000  Uiso   1.00
O358   O     0.53294   0.71055   0.40336   0.00000  Uiso   1.00
Zn359  Zn    0.60453   0.83951   0.25623   0.00000  Uiso   1.00
Zn360  Zn    0.39547   0.82716   0.24376   0.00000  Uiso   1.00
C361   C     0.68156   0.93158   0.24867   0.00000  Uiso   1.00
C362   C     0.71963   0.83360   0.41651   0.00000  Uiso   1.00
C363   C     0.68934   0.98617   0.24806   0.00000  Uiso   1.00
C364   C     0.70203   0.83458   0.35531   0.00000  Uiso   1.00
C365   C     0.97746   0.68053   0.25236   0.00000  Uiso   1.00
C366   C     0.98515   0.73509   0.25146   0.00000  Uiso   1.00
C367   C     0.96417   0.82948   0.14475   0.00000  Uiso   1.00
C368   C     0.93333   0.75553   0.00538   0.00000  Uiso   1.00
C369   C     0.94369   0.81798   0.08477   0.00000  Uiso   1.00
C370   C     0.69074   0.86248   0.45149   0.00000  Uiso   1.00
C371   C     0.71383   0.86980   0.00914   0.00000  Uiso   1.00
C372   C     0.79877   0.82571   0.49518   0.00000  Uiso   1.00
C373   C     0.76782   0.85200   0.03099   0.00000  Uiso   1.00
C374   C     0.76988   0.80946   0.44010   0.00000  Uiso   1.00
C375   C     0.85662   0.81324   0.01299   0.00000  Uiso   1.00
C376   C     0.87853   0.77280   0.48307   0.00000  Uiso   1.00
C377   C     0.84523   0.75026   0.43194   0.00000  Uiso   1.00
C378   C     0.79176   0.76977   0.41008   0.00000  Uiso   1.00
C379   C     0.89408   0.84046   0.05900   0.00000  Uiso   1.00
C380   C     0.96441   0.77634   0.05756   0.00000  Uiso   1.00
Cl381  Cl    0.88630   0.90625   0.07990   0.00000  Uiso   1.00
H382   H     0.67008   0.75896   0.07743   0.00000  Uiso   1.00
H383   H     0.73194   0.67005   0.24403   0.00000  Uiso   1.00
H384   H     0.83770   0.69959   0.36807   0.00000  Uiso   1.00
H385   H     0.93488   0.99666   0.25645   0.00000  Uiso   1.00
H386   H     0.82317   0.79166   0.20809   0.00000  Uiso   1.00
H387   H     0.84350   0.87500   0.29191   0.00000  Uiso   1.00
H388   H     0.95070   0.72411   0.48433   0.00000  Uiso   1.00
H389   H     0.98445   0.88020   0.43414   0.00000  Uiso   1.00
H390   H     0.78427   0.85778   0.07610   0.00000  Uiso   1.00
H391   H     0.69096   0.89089   0.03654   0.00000  Uiso   1.00
H392   H     0.76643   0.75241   0.37044   0.00000  Uiso   1.00
N393   N     0.81160   0.81890   0.23542   0.00000  Uiso   1.00
N394   N     0.85507   0.84777   0.26457   0.00000  Uiso   1.00
O395   O     0.96435   0.91296   0.25357   0.00000  Uiso   1.00
O396   O     0.72408   0.90371   0.24423   0.00000  Uiso   1.00
O397   O     0.98157   0.84024   0.33380   0.00000  Uiso   1.00
O398   O     0.74130   0.83099   0.32446   0.00000  Uiso   1.00
O399   O     0.94258   0.76296   0.25576   0.00000  Uiso   1.00
O400   O     0.70231   0.75371   0.24642   0.00000  Uiso   1.00
O401   O     0.92537   0.83567   0.17554   0.00000  Uiso   1.00
O402   O     0.68510   0.82642   0.16620   0.00000  Uiso   1.00
O403   O     0.86627   0.71055   0.40336   0.00000  Uiso   1.00
Zn404  Zn    0.93786   0.83951   0.25623   0.00000  Uiso   1.00
Zn405  Zn    0.72881   0.82716   0.24376   0.00000  Uiso   1.00
C406   C     0.01489   0.26491   0.74867   0.00000  Uiso   1.00
C407   C     0.05296   0.16693   0.91651   0.00000  Uiso   1.00
C408   C     0.02267   0.31951   0.74806   0.00000  Uiso   1.00
C409   C     0.03536   0.16791   0.85531   0.00000  Uiso   1.00
C410   C     0.31079   0.01386   0.75236   0.00000  Uiso   1.00
C411   C     0.31848   0.06843   0.75146   0.00000  Uiso   1.00
C412   C     0.29751   0.16281   0.64475   0.00000  Uiso   1.00
C413   C     0.26666   0.08886   0.50538   0.00000  Uiso   1.00
C414   C     0.27703   0.15131   0.58477   0.00000  Uiso   1.00
C415   C     0.02407   0.19582   0.95149   0.00000  Uiso   1.00
C416   C     0.04716   0.20313   0.50914   0.00000  Uiso   1.00
C417   C     0.13211   0.15904   0.99518   0.00000  Uiso   1.00
C418   C     0.10115   0.18533   0.53099   0.00000  Uiso   1.00
C419   C     0.10321   0.14279   0.94010   0.00000  Uiso   1.00
C420   C     0.18996   0.14657   0.51299   0.00000  Uiso   1.00
C421   C     0.21186   0.10613   0.98307   0.00000  Uiso   1.00
C422   C     0.17856   0.08359   0.93194   0.00000  Uiso   1.00
C423   C     0.12509   0.10310   0.91008   0.00000  Uiso   1.00
C424   C     0.22741   0.17379   0.55900   0.00000  Uiso   1.00
C425   C     0.29774   0.10968   0.55756   0.00000  Uiso   1.00
Cl426  Cl    0.21963   0.23958   0.57990   0.00000  Uiso   1.00
H427   H     0.00342   0.09229   0.57743   0.00000  Uiso   1.00
H428   H     0.06528   0.00338   0.74403   0.00000  Uiso   1.00
H429   H     0.17103   0.03292   0.86807   0.00000  Uiso   1.00
H430   H     0.26821   0.32999   0.75645   0.00000  Uiso   1.00
H431   H     0.15650   0.12499   0.70809   0.00000  Uiso   1.00
H432   H     0.17683   0.20834   0.79191   0.00000  Uiso   1.00
H433   H     0.28404   0.05745   0.98433   0.00000  Uiso   1.00
H434   H     0.31778   0.21354   0.93414   0.00000  Uiso   1.00
H435   H     0.11761   0.19111   0.57610   0.00000  Uiso   1.00
H436   H     0.02430   0.22422   0.53654   0.00000  Uiso   1.00
H437   H     0.09976   0.08574   0.87044   0.00000  Uiso   1.00
N438   N     0.14493   0.15223   0.73542   0.00000  Uiso   1.00
N439   N     0.18840   0.18110   0.76457   0.00000  Uiso   1.00
O440   O     0.29769   0.24629   0.75357   0.00000  Uiso   1.00
O441   O     0.05742   0.23704   0.74423   0.00000  Uiso   1.00
O442   O     0.31490   0.17358   0.83380   0.00000  Uiso   1.00
O443   O     0.07463   0.16433   0.82446   0.00000  Uiso   1.00
O444   O     0.27592   0.09629   0.75576   0.00000  Uiso   1.00
O445   O     0.03565   0.08704   0.74642   0.00000  Uiso   1.00
O446   O     0.25870   0.16901   0.67554   0.00000  Uiso   1.00
O447   O     0.01843   0.15976   0.66620   0.00000  Uiso   1.00
O448   O     0.19960   0.04388   0.90336   0.00000  Uiso   1.00
Zn449  Zn    0.27119   0.17284   0.75623   0.00000  Uiso   1.00
Zn450  Zn    0.06214   0.16049   0.74376   0.00000  Uiso   1.00
C451   C     0.34823   0.26491   0.74867   0.00000  Uiso   1.00
C452   C     0.38629   0.16693   0.91651   0.00000  Uiso   1.00
C453   C     0.35601   0.31951   0.74806   0.00000  Uiso   1.00
C454   C     0.36870   0.16791   0.85531   0.00000  Uiso   1.00
C455   C     0.64413   0.01386   0.75236   0.00000  Uiso   1.00
C456   C     0.65182   0.06843   0.75146   0.00000  Uiso   1.00
C457   C     0.63084   0.16281   0.64475   0.00000  Uiso   1.00
C458   C     0.59999   0.08886   0.50538   0.00000  Uiso   1.00
C459   C     0.61036   0.15131   0.58477   0.00000  Uiso   1.00
C460   C     0.35741   0.19582   0.95149   0.00000  Uiso   1.00
C461   C     0.38050   0.20313   0.50914   0.00000  Uiso   1.00
C462   C     0.46544   0.15904   0.99518   0.00000  Uiso   1.00
C463   C     0.43448   0.18533   0.53099   0.00000  Uiso   1.00
C464   C     0.43655   0.14279   0.94010   0.00000  Uiso   1.00
C465   C     0.52329   0.14657   0.51299   0.00000  Uiso   1.00
C466   C     0.54519   0.10613   0.98307   0.00000  Uiso   1.00
C467   C     0.51190   0.08359   0.93194   0.00000  Uiso   1.00
C468   C     0.45843   0.10310   0.91008   0.00000  Uiso   1.00
C469   C     0.56075   0.17379   0.55900   0.00000  Uiso   1.00
C470   C     0.63107   0.10968   0.55756   0.00000  Uiso   1.00
Cl471  Cl    0.55296   0.23958   0.57990   0.00000  Uiso   1.00
H472   H     0.33675   0.09229   0.57743   0.00000  Uiso   1.00
H473   H     0.39861   0.00338   0.74403   0.00000  Uiso   1.00
H474   H     0.50436   0.03292   0.86807   0.00000  Uiso   1.00
H475   H     0.60154   0.32999   0.75645   0.00000  Uiso   1.00
H476   H     0.48983   0.12499   0.70809   0.00000  Uiso   1.00
H477   H     0.51017   0.20834   0.79191   0.00000  Uiso   1.00
H478   H     0.61737   0.05745   0.98433   0.00000  Uiso   1.00
H479   H     0.65111   0.21354   0.93414   0.00000  Uiso   1.00
H480   H     0.45094   0.19111   0.57610   0.00000  Uiso   1.00
H481   H     0.35763   0.22422   0.53654   0.00000  Uiso   1.00
H482   H     0.43309   0.08574   0.87044   0.00000  Uiso   1.00
N483   N     0.47827   0.15223   0.73542   0.00000  Uiso   1.00
N484   N     0.52173   0.18110   0.76457   0.00000  Uiso   1.00
O485   O     0.63102   0.24629   0.75357   0.00000  Uiso   1.00
O486   O     0.39075   0.23704   0.74423   0.00000  Uiso   1.00
O487   O     0.64823   0.17358   0.83380   0.00000  Uiso   1.00
O488   O     0.40796   0.16433   0.82446   0.00000  Uiso   1.00
O489   O     0.60925   0.09629   0.75576   0.00000  Uiso   1.00
O490   O     0.36898   0.08704   0.74642   0.00000  Uiso   1.00
O491   O     0.59204   0.16901   0.67554   0.00000  Uiso   1.00
O492   O     0.35177   0.15976   0.66620   0.00000  Uiso   1.00
O493   O     0.53294   0.04388   0.90336   0.00000  Uiso   1.00
Zn494  Zn    0.60453   0.17284   0.75623   0.00000  Uiso   1.00
Zn495  Zn    0.39547   0.16049   0.74376   0.00000  Uiso   1.00
C496   C     0.68156   0.26491   0.74867   0.00000  Uiso   1.00
C497   C     0.71963   0.16693   0.91651   0.00000  Uiso   1.00
C498   C     0.68934   0.31951   0.74806   0.00000  Uiso   1.00
C499   C     0.70203   0.16791   0.85531   0.00000  Uiso   1.00
C500   C     0.97746   0.01386   0.75236   0.00000  Uiso   1.00
C501   C     0.98515   0.06843   0.75146   0.00000  Uiso   1.00
C502   C     0.96417   0.16281   0.64475   0.00000  Uiso   1.00
C503   C     0.93333   0.08886   0.50538   0.00000  Uiso   1.00
C504   C     0.94369   0.15131   0.58477   0.00000  Uiso   1.00
C505   C     0.69074   0.19582   0.95149   0.00000  Uiso   1.00
C506   C     0.71383   0.20313   0.50914   0.00000  Uiso   1.00
C507   C     0.79877   0.15904   0.99518   0.00000  Uiso   1.00
C508   C     0.76782   0.18533   0.53099   0.00000  Uiso   1.00
C509   C     0.76988   0.14279   0.94010   0.00000  Uiso   1.00
C510   C     0.85662   0.14657   0.51299   0.00000  Uiso   1.00
C511   C     0.87853   0.10613   0.98307   0.00000  Uiso   1.00
C512   C     0.84523   0.08359   0.93194   0.00000  Uiso   1.00
C513   C     0.79176   0.10310   0.91008   0.00000  Uiso   1.00
C514   C     0.89408   0.17379   0.55900   0.00000  Uiso   1.00
C515   C     0.96441   0.10968   0.55756   0.00000  Uiso   1.00
Cl516  Cl    0.88630   0.23958   0.57990   0.00000  Uiso   1.00
H517   H     0.67008   0.09229   0.57743   0.00000  Uiso   1.00
H518   H     0.73194   0.00338   0.74403   0.00000  Uiso   1.00
H519   H     0.83770   0.03292   0.86807   0.00000  Uiso   1.00
H520   H     0.93488   0.32999   0.75645   0.00000  Uiso   1.00
H521   H     0.82317   0.12499   0.70809   0.00000  Uiso   1.00
H522   H     0.84350   0.20834   0.79191   0.00000  Uiso   1.00
H523   H     0.95070   0.05745   0.98433   0.00000  Uiso   1.00
H524   H     0.98445   0.21354   0.93414   0.00000  Uiso   1.00
H525   H     0.78427   0.19111   0.57610   0.00000  Uiso   1.00
H526   H     0.69096   0.22422   0.53654   0.00000  Uiso   1.00
H527   H     0.76643   0.08574   0.87044   0.00000  Uiso   1.00
N528   N     0.81160   0.15223   0.73542   0.00000  Uiso   1.00
N529   N     0.85507   0.18110   0.76457   0.00000  Uiso   1.00
O530   O     0.96435   0.24629   0.75357   0.00000  Uiso   1.00
O531   O     0.72408   0.23704   0.74423   0.00000  Uiso   1.00
O532   O     0.98157   0.17358   0.83380   0.00000  Uiso   1.00
O533   O     0.74130   0.16433   0.82446   0.00000  Uiso   1.00
O534   O     0.94258   0.09629   0.75576   0.00000  Uiso   1.00
O535   O     0.70231   0.08704   0.74642   0.00000  Uiso   1.00
O536   O     0.92537   0.16901   0.67554   0.00000  Uiso   1.00
O537   O     0.68510   0.15976   0.66620   0.00000  Uiso   1.00
O538   O     0.86627   0.04388   0.90336   0.00000  Uiso   1.00
Zn539  Zn    0.93786   0.17284   0.75623   0.00000  Uiso   1.00
Zn540  Zn    0.72881   0.16049   0.74376   0.00000  Uiso   1.00
C541   C     0.01489   0.59825   0.74867   0.00000  Uiso   1.00
C542   C     0.05296   0.50026   0.91651   0.00000  Uiso   1.00
C543   C     0.02267   0.65284   0.74806   0.00000  Uiso   1.00
C544   C     0.03536   0.50124   0.85531   0.00000  Uiso   1.00
C545   C     0.31079   0.34719   0.75236   0.00000  Uiso   1.00
C546   C     0.31848   0.40176   0.75146   0.00000  Uiso   1.00
C547   C     0.29751   0.49615   0.64475   0.00000  Uiso   1.00
C548   C     0.26666   0.42220   0.50538   0.00000  Uiso   1.00
C549   C     0.27703   0.48464   0.58477   0.00000  Uiso   1.00
C550   C     0.02407   0.52915   0.95149   0.00000  Uiso   1.00
C551   C     0.04716   0.53646   0.50914   0.00000  Uiso   1.00
C552   C     0.13211   0.49237   0.99518   0.00000  Uiso   1.00
C553   C     0.10115   0.51867   0.53099   0.00000  Uiso   1.00
C554   C     0.10321   0.47612   0.94010   0.00000  Uiso   1.00
C555   C     0.18996   0.47991   0.51299   0.00000  Uiso   1.00
C556   C     0.21186   0.43947   0.98307   0.00000  Uiso   1.00
C557   C     0.17856   0.41693   0.93194   0.00000  Uiso   1.00
C558   C     0.12509   0.43644   0.91008   0.00000  Uiso   1.00
C559   C     0.22741   0.50713   0.55900   0.00000  Uiso   1.00
C560   C     0.29774   0.44301   0.55756   0.00000  Uiso   1.00
Cl561  Cl    0.21963   0.57292   0.57990   0.00000  Uiso   1.00
H562   H     0.00342   0.42563   0.57743   0.00000  Uiso   1.00
H563   H     0.06528   0.33671   0.74403   0.00000  Uiso   1.00
H564   H     0.17103   0.36626   0.86807   0.00000  Uiso   1.00
H565   H     0.26821   0.66333   0.75645   0.00000  Uiso   1.00
H566   H     0.15650   0.45833   0.70809   0.00000  Uiso   1.00
H567   H     0.17683   0.54167   0.79191   0.00000  Uiso   1.00
H568   H     0.28404   0.39078   0.98433   0.00000  Uiso   1.00
H569   H     0.31778   0.54687   0.93414   0.00000  Uiso   1.00
H570   H     0.11761   0.52444   0.57610   0.00000  Uiso   1.00
H571   H     0.02430   0.55756   0.53654   0.00000  Uiso   1.00
H572   H     0.09976   0.41907   0.87044   0.00000  Uiso   1.00
N573   N     0.14493   0.48556   0.73542   0.00000  Uiso   1.00
N574   N     0.18840   0.51444   0.76457   0.00000  Uiso   1.00
O575   O     0.29769   0.57963   0.75357   0.00000  Uiso   1.00
O576   O     0.05742   0.57038   0.74423   0.00000  Uiso   1.00
O577   O     0.31490   0.50691   0.83380   0.00000  Uiso   1.00
O578   O     0.07463   0.49766   0.82446   0.00000  Uiso   1.00
O579   O     0.27592   0.42962   0.75576   0.00000  Uiso   1.00
O580   O     0.03565   0.42037   0.74642   0.00000  Uiso   1.00
O581   O     0.25870   0.50234   0.67554   0.00000  Uiso   1.00
O582   O     0.01843   0.49309   0.66620   0.00000  Uiso   1.00
O583   O     0.19960   0.37722   0.90336   0.00000  Uiso   1.00
Zn584  Zn    0.27119   0.50618   0.75623   0.00000  Uiso   1.00
Zn585  Zn    0.06214   0.49382   0.74376   0.00000  Uiso   1.00
C586   C     0.34823   0.59825   0.74867   0.00000  Uiso   1.00
C587   C     0.38629   0.50026   0.91651   0.00000  Uiso   1.00
C588   C     0.35601   0.65284   0.74806   0.00000  Uiso   1.00
C589   C     0.36870   0.50124   0.85531   0.00000  Uiso   1.00
C590   C     0.64413   0.34719   0.75236   0.00000  Uiso   1.00
C591   C     0.65182   0.40176   0.75146   0.00000  Uiso   1.00
C592   C     0.63084   0.49615   0.64475   0.00000  Uiso   1.00
C593   C     0.59999   0.42220   0.50538   0.00000  Uiso   1.00
C594   C     0.61036   0.48464   0.58477   0.00000  Uiso   1.00
C595   C     0.35741   0.52915   0.95149   0.00000  Uiso   1.00
C596   C     0.38050   0.53646   0.50914   0.00000  Uiso   1.00
C597   C     0.46544   0.49237   0.99518   0.00000  Uiso   1.00
C598   C     0.43448   0.51867   0.53099   0.00000  Uiso   1.00
C599   C     0.43655   0.47612   0.94010   0.00000  Uiso   1.00
C600   C     0.52329   0.47991   0.51299   0.00000  Uiso   1.00
C601   C     0.54519   0.43947   0.98307   0.00000  Uiso   1.00
C602   C     0.51190   0.41693   0.93194   0.00000  Uiso   1.00
C603   C     0.45843   0.43644   0.91008   0.00000  Uiso   1.00
C604   C     0.56075   0.50713   0.55900   0.00000  Uiso   1.00
C605   C     0.63107   0.44301   0.55756   0.00000  Uiso   1.00
Cl606  Cl    0.55296   0.57292   0.57990   0.00000  Uiso   1.00
H607   H     0.33675   0.42563   0.57743   0.00000  Uiso   1.00
H608   H     0.39861   0.33671   0.74403   0.00000  Uiso   1.00
H609   H     0.50436   0.36626   0.86807   0.00000  Uiso   1.00
H610   H     0.60154   0.66333   0.75645   0.00000  Uiso   1.00
H611   H     0.48983   0.45833   0.70809   0.00000  Uiso   1.00
H612   H     0.51017   0.54167   0.79191   0.00000  Uiso   1.00
H613   H     0.61737   0.39078   0.98433   0.00000  Uiso   1.00
H614   H     0.65111   0.54687   0.93414   0.00000  Uiso   1.00
H615   H     0.45094   0.52444   0.57610   0.00000  Uiso   1.00
H616   H     0.35763   0.55756   0.53654   0.00000  Uiso   1.00
H617   H     0.43309   0.41907   0.87044   0.00000  Uiso   1.00
N618   N     0.47827   0.48556   0.73542   0.00000  Uiso   1.00
N619   N     0.52173   0.51444   0.76457   0.00000  Uiso   1.00
O620   O     0.63102   0.57963   0.75357   0.00000  Uiso   1.00
O621   O     0.39075   0.57038   0.74423   0.00000  Uiso   1.00
O622   O     0.64823   0.50691   0.83380   0.00000  Uiso   1.00
O623   O     0.40796   0.49766   0.82446   0.00000  Uiso   1.00
O624   O     0.60925   0.42962   0.75576   0.00000  Uiso   1.00
O625   O     0.36898   0.42037   0.74642   0.00000  Uiso   1.00
O626   O     0.59204   0.50234   0.67554   0.00000  Uiso   1.00
O627   O     0.35177   0.49309   0.66620   0.00000  Uiso   1.00
O628   O     0.53294   0.37722   0.90336   0.00000  Uiso   1.00
Zn629  Zn    0.60453   0.50618   0.75623   0.00000  Uiso   1.00
Zn630  Zn    0.39547   0.49382   0.74376   0.00000  Uiso   1.00
C631   C     0.68156   0.59825   0.74867   0.00000  Uiso   1.00
C632   C     0.71963   0.50026   0.91651   0.00000  Uiso   1.00
C633   C     0.68934   0.65284   0.74806   0.00000  Uiso   1.00
C634   C     0.70203   0.50124   0.85531   0.00000  Uiso   1.00
C635   C     0.97746   0.34719   0.75236   0.00000  Uiso   1.00
C636   C     0.98515   0.40176   0.75146   0.00000  Uiso   1.00
C637   C     0.96417   0.49615   0.64475   0.00000  Uiso   1.00
C638   C     0.93333   0.42220   0.50538   0.00000  Uiso   1.00
C639   C     0.94369   0.48464   0.58477   0.00000  Uiso   1.00
C640   C     0.69074   0.52915   0.95149   0.00000  Uiso   1.00
C641   C     0.71383   0.53646   0.50914   0.00000  Uiso   1.00
C642   C     0.79877   0.49237   0.99518   0.00000  Uiso   1.00
C643   C     0.76782   0.51867   0.53099   0.00000  Uiso   1.00
C644   C     0.76988   0.47612   0.94010   0.00000  Uiso   1.00
C645   C     0.85662   0.47991   0.51299   0.00000  Uiso   1.00
C646   C     0.87853   0.43947   0.98307   0.00000  Uiso   1.00
C647   C     0.84523   0.41693   0.93194   0.00000  Uiso   1.00
C648   C     0.79176   0.43644   0.91008   0.00000  Uiso   1.00
C649   C     0.89408   0.50713   0.55900   0.00000  Uiso   1.00
C650   C     0.96441   0.44301   0.55756   0.00000  Uiso   1.00
Cl651  Cl    0.88630   0.57292   0.57990   0.00000  Uiso   1.00
H652   H     0.67008   0.42563   0.57743   0.00000  Uiso   1.00
H653   H     0.73194   0.33671   0.74403   0.00000  Uiso   1.00
H654   H     0.83770   0.36626   0.86807   0.00000  Uiso   1.00
H655   H     0.93488   0.66333   0.75645   0.00000  Uiso   1.00
H656   H     0.82317   0.45833   0.70809   0.00000  Uiso   1.00
H657   H     0.84350   0.54167   0.79191   0.00000  Uiso   1.00
H658   H     0.95070   0.39078   0.98433   0.00000  Uiso   1.00
H659   H     0.98445   0.54687   0.93414   0.00000  Uiso   1.00
H660   H     0.78427   0.52444   0.57610   0.00000  Uiso   1.00
H661   H     0.69096   0.55756   0.53654   0.00000  Uiso   1.00
H662   H     0.76643   0.41907   0.87044   0.00000  Uiso   1.00
N663   N     0.81160   0.48556   0.73542   0.00000  Uiso   1.00
N664   N     0.85507   0.51444   0.76457   0.00000  Uiso   1.00
O665   O     0.96435   0.57963   0.75357   0.00000  Uiso   1.00
O666   O     0.72408   0.57038   0.74423   0.00000  Uiso   1.00
O667   O     0.98157   0.50691   0.83380   0.00000  Uiso   1.00
O668   O     0.74130   0.49766   0.82446   0.00000  Uiso   1.00
O669   O     0.94258   0.42962   0.75576   0.00000  Uiso   1.00
O670   O     0.70231   0.42037   0.74642   0.00000  Uiso   1.00
O671   O     0.92537   0.50234   0.67554   0.00000  Uiso   1.00
O672   O     0.68510   0.49309   0.66620   0.00000  Uiso   1.00
O673   O     0.86627   0.37722   0.90336   0.00000  Uiso   1.00
Zn674  Zn    0.93786   0.50618   0.75623   0.00000  Uiso   1.00
Zn675  Zn    0.72881   0.49382   0.74376   0.00000  Uiso   1.00
C676   C     0.01489   0.93158   0.74867   0.00000  Uiso   1.00
C677   C     0.05296   0.83360   0.91651   0.00000  Uiso   1.00
C678   C     0.02267   0.98617   0.74806   0.00000  Uiso   1.00
C679   C     0.03536   0.83458   0.85531   0.00000  Uiso   1.00
C680   C     0.31079   0.68053   0.75236   0.00000  Uiso   1.00
C681   C     0.31848   0.73509   0.75146   0.00000  Uiso   1.00
C682   C     0.29751   0.82948   0.64475   0.00000  Uiso   1.00
C683   C     0.26666   0.75553   0.50538   0.00000  Uiso   1.00
C684   C     0.27703   0.81798   0.58477   0.00000  Uiso   1.00
C685   C     0.02407   0.86248   0.95149   0.00000  Uiso   1.00
C686   C     0.04716   0.86980   0.50914   0.00000  Uiso   1.00
C687   C     0.13211   0.82571   0.99518   0.00000  Uiso   1.00
C688   C     0.10115   0.85200   0.53099   0.00000  Uiso   1.00
C689   C     0.10321   0.80946   0.94010   0.00000  Uiso   1.00
C690   C     0.18996   0.81324   0.51299   0.00000  Uiso   1.00
C691   C     0.21186   0.77280   0.98307   0.00000  Uiso   1.00
C692   C     0.17856   0.75026   0.93194   0.00000  Uiso   1.00
C693   C     0.12509   0.76977   0.91008   0.00000  Uiso   1.00
C694   C     0.22741   0.84046   0.55900   0.00000  Uiso   1.00
C695   C     0.29774   0.77634   0.55756   0.00000  Uiso   1.00
Cl696  Cl    0.21963   0.90625   0.57990   0.00000  Uiso   1.00
H697   H     0.00342   0.75896   0.57743   0.00000  Uiso   1.00
H698   H     0.06528   0.67005   0.74403   0.00000  Uiso   1.00
H699   H     0.17103   0.69959   0.86807   0.00000  Uiso   1.00
H700   H     0.26821   0.99666   0.75645   0.00000  Uiso   1.00
H701   H     0.15650   0.79166   0.70809   0.00000  Uiso   1.00
H702   H     0.17683   0.87500   0.79191   0.00000  Uiso   1.00
H703   H     0.28404   0.72411   0.98433   0.00000  Uiso   1.00
H704   H     0.31778   0.88020   0.93414   0.00000  Uiso   1.00
H705   H     0.11761   0.85778   0.57610   0.00000  Uiso   1.00
H706   H     0.02430   0.89089   0.53654   0.00000  Uiso   1.00
H707   H     0.09976   0.75241   0.87044   0.00000  Uiso   1.00
N708   N     0.14493   0.81890   0.73542   0.00000  Uiso   1.00
N709   N     0.18840   0.84777   0.76457   0.00000  Uiso   1.00
O710   O     0.29769   0.91296   0.75357   0.00000  Uiso   1.00
O711   O     0.05742   0.90371   0.74423   0.00000  Uiso   1.00
O712   O     0.31490   0.84024   0.83380   0.00000  Uiso   1.00
O713   O     0.07463   0.83099   0.82446   0.00000  Uiso   1.00
O714   O     0.27592   0.76296   0.75576   0.00000  Uiso   1.00
O715   O     0.03565   0.75371   0.74642   0.00000  Uiso   1.00
O716   O     0.25870   0.83567   0.67554   0.00000  Uiso   1.00
O717   O     0.01843   0.82642   0.66620   0.00000  Uiso   1.00
O718   O     0.19960   0.71055   0.90336   0.00000  Uiso   1.00
Zn719  Zn    0.27119   0.83951   0.75623   0.00000  Uiso   1.00
Zn720  Zn    0.06214   0.82716   0.74376   0.00000  Uiso   1.00
C721   C     0.34823   0.93158   0.74867   0.00000  Uiso   1.00
C722   C     0.38629   0.83360   0.91651   0.00000  Uiso   1.00
C723   C     0.35601   0.98617   0.74806   0.00000  Uiso   1.00
C724   C     0.36870   0.83458   0.85531   0.00000  Uiso   1.00
C725   C     0.64413   0.68053   0.75236   0.00000  Uiso   1.00
C726   C     0.65182   0.73509   0.75146   0.00000  Uiso   1.00
C727   C     0.63084   0.82948   0.64475   0.00000  Uiso   1.00
C728   C     0.59999   0.75553   0.50538   0.00000  Uiso   1.00
C729   C     0.61036   0.81798   0.58477   0.00000  Uiso   1.00
C730   C     0.35741   0.86248   0.95149   0.00000  Uiso   1.00
C731   C     0.38050   0.86980   0.50914   0.00000  Uiso   1.00
C732   C     0.46544   0.82571   0.99518   0.00000  Uiso   1.00
C733   C     0.43448   0.85200   0.53099   0.00000  Uiso   1.00
C734   C     0.43655   0.80946   0.94010   0.00000  Uiso   1.00
C735   C     0.52329   0.81324   0.51299   0.00000  Uiso   1.00
C736   C     0.54519   0.77280   0.98307   0.00000  Uiso   1.00
C737   C     0.51190   0.75026   0.93194   0.00000  Uiso   1.00
C738   C     0.45843   0.76977   0.91008   0.00000  Uiso   1.00
C739   C     0.56075   0.84046   0.55900   0.00000  Uiso   1.00
C740   C     0.63107   0.77634   0.55756   0.00000  Uiso   1.00
Cl741  Cl    0.55296   0.90625   0.57990   0.00000  Uiso   1.00
H742   H     0.33675   0.75896   0.57743   0.00000  Uiso   1.00
H743   H     0.39861   0.67005   0.74403   0.00000  Uiso   1.00
H744   H     0.50436   0.69959   0.86807   0.00000  Uiso   1.00
H745   H     0.60154   0.99666   0.75645   0.00000  Uiso   1.00
H746   H     0.48983   0.79166   0.70809   0.00000  Uiso   1.00
H747   H     0.51017   0.87500   0.79191   0.00000  Uiso   1.00
H748   H     0.61737   0.72411   0.98433   0.00000  Uiso   1.00
H749   H     0.65111   0.88020   0.93414   0.00000  Uiso   1.00
H750   H     0.45094   0.85778   0.57610   0.00000  Uiso   1.00
H751   H     0.35763   0.89089   0.53654   0.00000  Uiso   1.00
H752   H     0.43309   0.75241   0.87044   0.00000  Uiso   1.00
N753   N     0.47827   0.81890   0.73542   0.00000  Uiso   1.00
N754   N     0.52173   0.84777   0.76457   0.00000  Uiso   1.00
O755   O     0.63102   0.91296   0.75357   0.00000  Uiso   1.00
O756   O     0.39075   0.90371   0.74423   0.00000  Uiso   1.00
O757   O     0.64823   0.84024   0.83380   0.00000  Uiso   1.00
O758   O     0.40796   0.83099   0.82446   0.00000  Uiso   1.00
O759   O     0.60925   0.76296   0.75576   0.00000  Uiso   1.00
O760   O     0.36898   0.75371   0.74642   0.00000  Uiso   1.00
O761   O     0.59204   0.83567   0.67554   0.00000  Uiso   1.00
O762   O     0.35177   0.82642   0.66620   0.00000  Uiso   1.00
O763   O     0.53294   0.71055   0.90336   0.00000  Uiso   1.00
Zn764  Zn    0.60453   0.83951   0.75623   0.00000  Uiso   1.00
Zn765  Zn    0.39547   0.82716   0.74376   0.00000  Uiso   1.00
C766   C     0.68156   0.93158   0.74867   0.00000  Uiso   1.00
C767   C     0.71963   0.83360   0.91651   0.00000  Uiso   1.00
C768   C     0.68934   0.98617   0.74806   0.00000  Uiso   1.00
C769   C     0.70203   0.83458   0.85531   0.00000  Uiso   1.00
C770   C     0.97746   0.68053   0.75236   0.00000  Uiso   1.00
C771   C     0.98515   0.73509   0.75146   0.00000  Uiso   1.00
C772   C     0.96417   0.82948   0.64475   0.00000  Uiso   1.00
C773   C     0.93333   0.75553   0.50538   0.00000  Uiso   1.00
C774   C     0.94369   0.81798   0.58477   0.00000  Uiso   1.00
C775   C     0.69074   0.86248   0.95149   0.00000  Uiso   1.00
C776   C     0.71383   0.86980   0.50914   0.00000  Uiso   1.00
C777   C     0.79877   0.82571   0.99518   0.00000  Uiso   1.00
C778   C     0.76782   0.85200   0.53099   0.00000  Uiso   1.00
C779   C     0.76988   0.80946   0.94010   0.00000  Uiso   1.00
C780   C     0.85662   0.81324   0.51299   0.00000  Uiso   1.00
C781   C     0.87853   0.77280   0.98307   0.00000  Uiso   1.00
C782   C     0.84523   0.75026   0.93194   0.00000  Uiso   1.00
C783   C     0.79176   0.76977   0.91008   0.00000  Uiso   1.00
C784   C     0.89408   0.84046   0.55900   0.00000  Uiso   1.00
C785   C     0.96441   0.77634   0.55756   0.00000  Uiso   1.00
Cl786  Cl    0.88630   0.90625   0.57990   0.00000  Uiso   1.00
H787   H     0.67008   0.75896   0.57743   0.00000  Uiso   1.00
H788   H     0.73194   0.67005   0.74403   0.00000  Uiso   1.00
H789   H     0.83770   0.69959   0.86807   0.00000  Uiso   1.00
H790   H     0.93488   0.99666   0.75645   0.00000  Uiso   1.00
H791   H     0.82317   0.79166   0.70809   0.00000  Uiso   1.00
H792   H     0.84350   0.87500   0.79191   0.00000  Uiso   1.00
H793   H     0.95070   0.72411   0.98433   0.00000  Uiso   1.00
H794   H     0.98445   0.88020   0.93414   0.00000  Uiso   1.00
H795   H     0.78427   0.85778   0.57610   0.00000  Uiso   1.00
H796   H     0.69096   0.89089   0.53654   0.00000  Uiso   1.00
H797   H     0.76643   0.75241   0.87044   0.00000  Uiso   1.00
N798   N     0.81160   0.81890   0.73542   0.00000  Uiso   1.00
N799   N     0.85507   0.84777   0.76457   0.00000  Uiso   1.00
O800   O     0.96435   0.91296   0.75357   0.00000  Uiso   1.00
O801   O     0.72408   0.90371   0.74423   0.00000  Uiso   1.00
O802   O     0.98157   0.84024   0.83380   0.00000  Uiso   1.00
O803   O     0.74130   0.83099   0.82446   0.00000  Uiso   1.00
O804   O     0.94258   0.76296   0.75576   0.00000  Uiso   1.00
O805   O     0.70231   0.75371   0.74642   0.00000  Uiso   1.00
O806   O     0.92537   0.83567   0.67554   0.00000  Uiso   1.00
O807   O     0.68510   0.82642   0.66620   0.00000  Uiso   1.00
O808   O     0.86627   0.71055   0.90336   0.00000  Uiso   1.00
Zn809  Zn    0.93786   0.83951   0.75623   0.00000  Uiso   1.00
Zn810  Zn    0.72881   0.82716   0.74376   0.00000  Uiso   1.00
loop_
_geom_bond_atom_site_label_1
_geom_bond_atom_site_label_2
_geom_bond_distance
_geom_bond_site_symmetry_2
_ccdc_geom_bond_type
C1     O36     1.289   .     A
C1     C3      1.403   .     S
C1     O125    1.276   1_455 S
C2     C4      1.454   .     S
C2     C14     1.405   .     A
C2     C10     1.404   .     A
C3     C230    1.339   1_455 S
C3     H158    1.088   .     S
C4     O38     1.299   .     A
C4     O127    1.290   1_455 S
C5     C6      1.403   .     S
C5     C318    1.339   1_545 S
C5     H295    1.088   1_545 S
C6     O39     1.290   .     A
C6     O85     1.276   .     S
C7     O41     1.297   .     A
C7     C9      1.443   .     S
C7     O87     1.288   .     S
C8     C20     1.390   .     A
C8     C421    1.405   1_554 S
C8     H433    1.083   1_554 S
C9     C20     1.399   .     A
C9     C19     1.386   .     A
C10    C416    1.389   .     S
C10    H119    1.083   1_455 S
C11    H31     1.082   .     S
C11    C13     1.392   .     A
C11    C415    1.389   1_554 S
C12    C14     1.400   .     A
C12    C418    1.415   .     S
C12    C420    1.407   .     S
C13    H30     1.081   .     S
C13    C417    1.415   1_554 S
C14    C18     1.412   .     A
C15    C19     1.400   .     A
C15    C417    1.407   1_554 S
C15    C421    1.425   1_554 S
C16    C17     1.402   .     A
C16    C413    1.405   .     S
C16    C420    1.425   .     S
C17    O43     1.383   .     S
C17    C18     1.400   .     A
C18    H32     1.082   .     S
C19    Cl21    1.778   .     S
C20    H67     1.083   .     S
H22    C110    1.083   1_455 S
H23    C273    1.088   1_545 S
H24    O43     0.992   .     S
H25    C140    1.088   .     S
H26    N33     1.029   .     S
H27    N34     1.029   .     S
H28    C413    1.083   .     S
H29    C55     1.083   .     S
N33    Zn45    2.019   .     S
N33    N34     1.286   .     D
N34    Zn44    2.019   .     S
O35    Zn44    1.952   .     S
O35    C46     1.276   .     S
O36    Zn45    1.979   .     S
O37    Zn44    1.948   .     S
O37    C49     1.290   .     S
O38    Zn45    1.907   .     S
O39    Zn44    1.979   .     S
O40    Zn45    1.952   .     S
O40    C96     1.276   1_455 S
O41    Zn44    1.907   .     S
O42    Zn45    1.948   .     S
O42    C97     1.288   1_455 S
C46    O81     1.289   .     A
C46    C48     1.403   .     S
C47    C49     1.454   .     S
C47    C59     1.405   .     A
C47    C55     1.404   .     A
C48    C140    1.339   .     S
C48    H203    1.088   .     S
C49    O83     1.299   .     A
C50    C51     1.403   .     S
C50    C363    1.339   1_545 S
C50    H340    1.088   1_545 S
C51    O84     1.290   .     A
C51    O130    1.276   .     S
C52    O86     1.297   .     A
C52    C54     1.443   .     S
C52    O132    1.288   .     S
C53    C65     1.390   .     A
C53    C466    1.405   1_554 S
C53    H478    1.083   1_554 S
C54    C65     1.399   .     A
C54    C64     1.386   .     A
C55    C461    1.389   .     S
C56    H76     1.082   .     S
C56    C58     1.392   .     A
C56    C460    1.389   1_554 S
C57    C59     1.400   .     A
C57    C463    1.415   .     S
C57    C465    1.407   .     S
C58    H75     1.081   .     S
C58    C462    1.415   1_554 S
C59    C63     1.412   .     A
C60    C64     1.400   .     A
C60    C462    1.407   1_554 S
C60    C466    1.425   1_554 S
C61    C62     1.402   .     A
C61    C458    1.405   .     S
C61    C465    1.425   .     S
C62    O88     1.383   .     S
C62    C63     1.400   .     A
C63    H77     1.082   .     S
C64    Cl66    1.778   .     S
C65    H112    1.083   .     S
H68    C318    1.088   1_545 S
H69    O88     0.992   .     S
H70    C185    1.088   .     S
H71    N78     1.029   .     S
H72    N79     1.029   .     S
H73    C458    1.083   .     S
H74    C100    1.083   .     S
N78    Zn90    2.019   .     S
N78    N79     1.286   .     D
N79    Zn89    2.019   .     S
O80    Zn89    1.952   .     S
O80    C91     1.276   .     S
O81    Zn90    1.979   .     S
O82    Zn89    1.948   .     S
O82    C94     1.290   .     S
O83    Zn90    1.907   .     S
O84    Zn89    1.979   .     S
O85    Zn90    1.952   .     S
O86    Zn89    1.907   .     S
O87    Zn90    1.948   .     S
C91    O126    1.289   .     A
C91    C93     1.403   .     S
C92    C94     1.454   .     S
C92    C104    1.405   .     A
C92    C100    1.404   .     A
C93    C185    1.339   .     S
C93    H248    1.088   .     S
C94    O128    1.299   .     A
C95    C96     1.403   .     S
C95    C273    1.339   1_645 S
C95    H385    1.088   1_545 S
C96    O129    1.290   .     A
C96    O40     1.276   1_655 S
C97    O131    1.297   .     A
C97    C99     1.443   .     S
C97    O42     1.288   1_655 S
C98    C110    1.390   .     A
C98    C511    1.405   1_554 S
C98    H523    1.083   1_554 S
C99    C110    1.399   .     A
C99    C109    1.386   .     A
C100   C506    1.389   .     S
C101   H121    1.082   .     S
C101   C103    1.392   .     A
C101   C505    1.389   1_554 S
C102   C104    1.400   .     A
C102   C508    1.415   .     S
C102   C510    1.407   .     S
C103   H120    1.081   .     S
C103   C507    1.415   1_554 S
C104   C108    1.412   .     A
C105   C109    1.400   .     A
C105   C507    1.407   1_554 S
C105   C511    1.425   1_554 S
C106   C107    1.402   .     A
C106   C503    1.405   .     S
C106   C510    1.425   .     S
C107   O133    1.383   .     S
C107   C108    1.400   .     A
C108   H122    1.082   .     S
C109   Cl111   1.778   .     S
C110   H22     1.083   1_655 S
H113   C363    1.088   1_545 S
H114   O133    0.992   .     S
H115   C230    1.088   .     S
H116   N123    1.029   .     S
H117   N124    1.029   .     S
H118   C503    1.083   .     S
H119   C10     1.083   1_655 S
N123   Zn135   2.019   .     S
N123   N124    1.286   .     D
N124   Zn134   2.019   .     S
O125   Zn134   1.952   .     S
O125   C1      1.276   1_655 S
O126   Zn135   1.979   .     S
O127   Zn134   1.948   .     S
O127   C4      1.290   1_655 S
O128   Zn135   1.907   .     S
O129   Zn134   1.979   .     S
O130   Zn135   1.952   .     S
O131   Zn134   1.907   .     S
O132   Zn135   1.948   .     S
C136   O171    1.289   .     A
C136   C138    1.403   .     S
C136   O260    1.276   1_455 S
C137   C139    1.454   .     S
C137   C149    1.405   .     A
C137   C145    1.404   .     A
C138   C365    1.339   1_455 S
C138   H293    1.088   .     S
C139   O173    1.299   .     A
C139   O262    1.290   1_455 S
C140   C141    1.403   .     S
C141   O174    1.290   .     A
C141   O220    1.276   .     S
C142   O176    1.297   .     A
C142   C144    1.443   .     S
C142   O222    1.288   .     S
C143   C155    1.390   .     A
C143   C556    1.405   1_554 S
C143   H568    1.083   1_554 S
C144   C155    1.399   .     A
C144   C154    1.386   .     A
C145   C551    1.389   .     S
C145   H254    1.083   1_455 S
C146   H166    1.082   .     S
C146   C148    1.392   .     A
C146   C550    1.389   1_554 S
C147   C149    1.400   .     A
C147   C553    1.415   .     S
C147   C555    1.407   .     S
C148   H165    1.081   .     S
C148   C552    1.415   1_554 S
C149   C153    1.412   .     A
C150   C154    1.400   .     A
C150   C552    1.407   1_554 S
C150   C556    1.425   1_554 S
C151   C152    1.402   .     A
C151   C548    1.405   .     S
C151   C555    1.425   .     S
C152   O178    1.383   .     S
C152   C153    1.400   .     A
C153   H167    1.082   .     S
C154   Cl156   1.778   .     S
C155   H202    1.083   .     S
H157   C245    1.083   1_455 S
H159   O178    0.992   .     S
H160   C275    1.088   .     S
H161   N168    1.029   .     S
H162   N169    1.029   .     S
H163   C548    1.083   .     S
H164   C190    1.083   .     S
N168   Zn180   2.019   .     S
N168   N169    1.286   .     D
N169   Zn179   2.019   .     S
O170   Zn179   1.952   .     S
O170   C181    1.276   .     S
O171   Zn180   1.979   .     S
O172   Zn179   1.948   .     S
O172   C184    1.290   .     S
O173   Zn180   1.907   .     S
O174   Zn179   1.979   .     S
O175   Zn180   1.952   .     S
O175   C231    1.276   1_455 S
O176   Zn179   1.907   .     S
O177   Zn180   1.948   .     S
O177   C232    1.288   1_455 S
C181   O216    1.289   .     A
C181   C183    1.403   .     S
C182   C184    1.454   .     S
C182   C194    1.405   .     A
C182   C190    1.404   .     A
C183   C275    1.339   .     S
C183   H338    1.088   .     S
C184   O218    1.299   .     A
C185   C186    1.403   .     S
C186   O219    1.290   .     A
C186   O265    1.276   .     S
C187   O221    1.297   .     A
C187   C189    1.443   .     S
C187   O267    1.288   .     S
C188   C200    1.390   .     A
C188   C601    1.405   1_554 S
C188   H613    1.083   1_554 S
C189   C200    1.399   .     A
C189   C199    1.386   .     A
C190   C596    1.389   .     S
C191   H211    1.082   .     S
C191   C193    1.392   .     A
C191   C595    1.389   1_554 S
C192   C194    1.400   .     A
C192   C598    1.415   .     S
C192   C600    1.407   .     S
C193   H210    1.081   .     S
C193   C597    1.415   1_554 S
C194   C198    1.412   .     A
C195   C199    1.400   .     A
C195   C597    1.407   1_554 S
C195   C601    1.425   1_554 S
C196   C197    1.402   .     A
C196   C593    1.405   .     S
C196   C600    1.425   .     S
C197   O223    1.383   .     S
C197   C198    1.400   .     A
C198   H212    1.082   .     S
C199   Cl201   1.778   .     S
C200   H247    1.083   .     S
H204   O223    0.992   .     S
H205   C320    1.088   .     S
H206   N213    1.029   .     S
H207   N214    1.029   .     S
H208   C593    1.083   .     S
H209   C235    1.083   .     S
N213   Zn225   2.019   .     S
N213   N214    1.286   .     D
N214   Zn224   2.019   .     S
O215   Zn224   1.952   .     S
O215   C226    1.276   .     S
O216   Zn225   1.979   .     S
O217   Zn224   1.948   .     S
O217   C229    1.290   .     S
O218   Zn225   1.907   .     S
O219   Zn224   1.979   .     S
O220   Zn225   1.952   .     S
O221   Zn224   1.907   .     S
O222   Zn225   1.948   .     S
C226   O261    1.289   .     A
C226   C228    1.403   .     S
C227   C229    1.454   .     S
C227   C239    1.405   .     A
C227   C235    1.404   .     A
C228   C320    1.339   .     S
C228   H383    1.088   .     S
C229   O263    1.299   .     A
C230   C231    1.403   .     S
C230   C3      1.339   1_655 S
C231   O264    1.290   .     A
C231   O175    1.276   1_655 S
C232   O266    1.297   .     A
C232   C234    1.443   .     S
C232   O177    1.288   1_655 S
C233   C245    1.390   .     A
C233   C646    1.405   1_554 S
C233   H658    1.083   1_554 S
C234   C245    1.399   .     A
C234   C244    1.386   .     A
C235   C641    1.389   .     S
C236   H256    1.082   .     S
C236   C238    1.392   .     A
C236   C640    1.389   1_554 S
C237   C239    1.400   .     A
C237   C643    1.415   .     S
C237   C645    1.407   .     S
C238   H255    1.081   .     S
C238   C642    1.415   1_554 S
C239   C243    1.412   .     A
C240   C244    1.400   .     A
C240   C642    1.407   1_554 S
C240   C646    1.425   1_554 S
C241   C242    1.402   .     A
C241   C638    1.405   .     S
C241   C645    1.425   .     S
C242   O268    1.383   .     S
C242   C243    1.400   .     A
C243   H257    1.082   .     S
C244   Cl246   1.778   .     S
C245   H157    1.083   1_655 S
H249   O268    0.992   .     S
H250   C365    1.088   .     S
H251   N258    1.029   .     S
H252   N259    1.029   .     S
H253   C638    1.083   .     S
H254   C145    1.083   1_655 S
N258   Zn270   2.019   .     S
N258   N259    1.286   .     D
N259   Zn269   2.019   .     S
O260   Zn269   1.952   .     S
O260   C136    1.276   1_655 S
O261   Zn270   1.979   .     S
O262   Zn269   1.948   .     S
O262   C139    1.290   1_655 S
O263   Zn270   1.907   .     S
O264   Zn269   1.979   .     S
O265   Zn270   1.952   .     S
O266   Zn269   1.907   .     S
O267   Zn270   1.948   .     S
C271   O306    1.289   .     A
C271   C273    1.403   .     S
C271   O395    1.276   1_455 S
C272   C274    1.454   .     S
C272   C284    1.405   .     A
C272   C280    1.404   .     A
C273   C95     1.339   1_465 S
C273   H23     1.088   1_565 S
C274   O308    1.299   .     A
C274   O397    1.290   1_455 S
C275   C276    1.403   .     S
C276   O309    1.290   .     A
C276   O355    1.276   .     S
C277   O311    1.297   .     A
C277   C279    1.443   .     S
C277   O357    1.288   .     S
C278   C290    1.390   .     A
C278   C691    1.405   1_554 S
C278   H703    1.083   1_554 S
C279   C290    1.399   .     A
C279   C289    1.386   .     A
C280   C686    1.389   .     S
C280   H389    1.083   1_455 S
C281   H301    1.082   .     S
C281   C283    1.392   .     A
C281   C685    1.389   1_554 S
C282   C284    1.400   .     A
C282   C688    1.415   .     S
C282   C690    1.407   .     S
C283   H300    1.081   .     S
C283   C687    1.415   1_554 S
C284   C288    1.412   .     A
C285   C289    1.400   .     A
C285   C687    1.407   1_554 S
C285   C691    1.425   1_554 S
C286   C287    1.402   .     A
C286   C683    1.405   .     S
C286   C690    1.425   .     S
C287   O313    1.383   .     S
C287   C288    1.400   .     A
C288   H302    1.082   .     S
C289   Cl291   1.778   .     S
C290   H337    1.083   .     S
H292   C380    1.083   1_455 S
H294   O313    0.992   .     S
H295   C5      1.088   1_565 S
H296   N303    1.029   .     S
H297   N304    1.029   .     S
H298   C683    1.083   .     S
H299   C325    1.083   .     S
N303   Zn315   2.019   .     S
N303   N304    1.286   .     D
N304   Zn314   2.019   .     S
O305   Zn314   1.952   .     S
O305   C316    1.276   .     S
O306   Zn315   1.979   .     S
O307   Zn314   1.948   .     S
O307   C319    1.290   .     S
O308   Zn315   1.907   .     S
O309   Zn314   1.979   .     S
O310   Zn315   1.952   .     S
O310   C366    1.276   1_455 S
O311   Zn314   1.907   .     S
O312   Zn315   1.948   .     S
O312   C367    1.288   1_455 S
C316   O351    1.289   .     A
C316   C318    1.403   .     S
C317   C319    1.454   .     S
C317   C329    1.405   .     A
C317   C325    1.404   .     A
C318   C5      1.339   1_565 S
C318   H68     1.088   1_565 S
C319   O353    1.299   .     A
C320   C321    1.403   .     S
C321   O354    1.290   .     A
C321   O400    1.276   .     S
C322   O356    1.297   .     A
C322   C324    1.443   .     S
C322   O402    1.288   .     S
C323   C335    1.390   .     A
C323   C736    1.405   1_554 S
C323   H748    1.083   1_554 S
C324   C335    1.399   .     A
C324   C334    1.386   .     A
C325   C731    1.389   .     S
C326   H346    1.082   .     S
C326   C328    1.392   .     A
C326   C730    1.389   1_554 S
C327   C329    1.400   .     A
C327   C733    1.415   .     S
C327   C735    1.407   .     S
C328   H345    1.081   .     S
C328   C732    1.415   1_554 S
C329   C333    1.412   .     A
C330   C334    1.400   .     A
C330   C732    1.407   1_554 S
C330   C736    1.425   1_554 S
C331   C332    1.402   .     A
C331   C728    1.405   .     S
C331   C735    1.425   .     S
C332   O358    1.383   .     S
C332   C333    1.400   .     A
C333   H347    1.082   .     S
C334   Cl336   1.778   .     S
C335   H382    1.083   .     S
H339   O358    0.992   .     S
H340   C50     1.088   1_565 S
H341   N348    1.029   .     S
H342   N349    1.029   .     S
H343   C728    1.083   .     S
H344   C370    1.083   .     S
N348   Zn360   2.019   .     S
N348   N349    1.286   .     D
N349   Zn359   2.019   .     S
O350   Zn359   1.952   .     S
O350   C361    1.276   .     S
O351   Zn360   1.979   .     S
O352   Zn359   1.948   .     S
O352   C364    1.290   .     S
O353   Zn360   1.907   .     S
O354   Zn359   1.979   .     S
O355   Zn360   1.952   .     S
O356   Zn359   1.907   .     S
O357   Zn360   1.948   .     S
C361   O396    1.289   .     A
C361   C363    1.403   .     S
C362   C364    1.454   .     S
C362   C374    1.405   .     A
C362   C370    1.404   .     A
C363   C50     1.339   1_565 S
C363   H113    1.088   1_565 S
C364   O398    1.299   .     A
C365   C366    1.403   .     S
C365   C138    1.339   1_655 S
C366   O399    1.290   .     A
C366   O310    1.276   1_655 S
C367   O401    1.297   .     A
C367   C369    1.443   .     S
C367   O312    1.288   1_655 S
C368   C380    1.390   .     A
C368   C781    1.405   1_554 S
C368   H793    1.083   1_554 S
C369   C380    1.399   .     A
C369   C379    1.386   .     A
C370   C776    1.389   .     S
C371   H391    1.082   .     S
C371   C373    1.392   .     A
C371   C775    1.389   1_554 S
C372   C374    1.400   .     A
C372   C778    1.415   .     S
C372   C780    1.407   .     S
C373   H390    1.081   .     S
C373   C777    1.415   1_554 S
C374   C378    1.412   .     A
C375   C379    1.400   .     A
C375   C777    1.407   1_554 S
C375   C781    1.425   1_554 S
C376   C377    1.402   .     A
C376   C773    1.405   .     S
C376   C780    1.425   .     S
C377   O403    1.383   .     S
C377   C378    1.400   .     A
C378   H392    1.082   .     S
C379   Cl381   1.778   .     S
C380   H292    1.083   1_655 S
H384   O403    0.992   .     S
H385   C95     1.088   1_565 S
H386   N393    1.029   .     S
H387   N394    1.029   .     S
H388   C773    1.083   .     S
H389   C280    1.083   1_655 S
N393   Zn405   2.019   .     S
N393   N394    1.286   .     D
N394   Zn404   2.019   .     S
O395   Zn404   1.952   .     S
O395   C271    1.276   1_655 S
O396   Zn405   1.979   .     S
O397   Zn404   1.948   .     S
O397   C274    1.290   1_655 S
O398   Zn405   1.907   .     S
O399   Zn404   1.979   .     S
O400   Zn405   1.952   .     S
O401   Zn404   1.907   .     S
O402   Zn405   1.948   .     S
C406   O441    1.289   .     A
C406   C408    1.403   .     S
C406   O530    1.276   1_455 S
C407   C409    1.454   .     S
C407   C419    1.405   .     A
C407   C415    1.404   .     A
C408   C635    1.339   1_455 S
C408   H563    1.088   .     S
C409   O443    1.299   .     A
C409   O532    1.290   1_455 S
C410   C411    1.403   .     S
C410   C723    1.339   1_545 S
C410   H700    1.088   1_545 S
C411   O444    1.290   .     A
C411   O490    1.276   .     S
C412   O446    1.297   .     A
C412   C414    1.443   .     S
C412   O492    1.288   .     S
C413   C425    1.390   .     A
C414   C425    1.399   .     A
C414   C424    1.386   .     A
C415   C11     1.389   1_556 S
C415   H524    1.083   1_455 S
C416   H436    1.082   .     S
C416   C418    1.392   .     A
C417   C419    1.400   .     A
C417   C13     1.415   1_556 S
C417   C15     1.407   1_556 S
C418   H435    1.081   .     S
C419   C423    1.412   .     A
C420   C424    1.400   .     A
C421   C422    1.402   .     A
C421   C8      1.405   1_556 S
C421   C15     1.425   1_556 S
C422   O448    1.383   .     S
C422   C423    1.400   .     A
C423   H437    1.082   .     S
C424   Cl426   1.778   .     S
C425   H472    1.083   .     S
H427   C515    1.083   1_455 S
H428   C678    1.088   1_545 S
H429   O448    0.992   .     S
H430   C545    1.088   .     S
H431   N438    1.029   .     S
H432   N439    1.029   .     S
H433   C8      1.083   1_556 S
H434   C460    1.083   .     S
N438   Zn450   2.019   .     S
N438   N439    1.286   .     D
N439   Zn449   2.019   .     S
O440   Zn449   1.952   .     S
O440   C451    1.276   .     S
O441   Zn450   1.979   .     S
O442   Zn449   1.948   .     S
O442   C454    1.290   .     S
O443   Zn450   1.907   .     S
O444   Zn449   1.979   .     S
O445   Zn450   1.952   .     S
O445   C501    1.276   1_455 S
O446   Zn449   1.907   .     S
O447   Zn450   1.948   .     S
O447   C502    1.288   1_455 S
C451   O486    1.289   .     A
C451   C453    1.403   .     S
C452   C454    1.454   .     S
C452   C464    1.405   .     A
C452   C460    1.404   .     A
C453   C545    1.339   .     S
C453   H608    1.088   .     S
C454   O488    1.299   .     A
C455   C456    1.403   .     S
C455   C768    1.339   1_545 S
C455   H745    1.088   1_545 S
C456   O489    1.290   .     A
C456   O535    1.276   .     S
C457   O491    1.297   .     A
C457   C459    1.443   .     S
C457   O537    1.288   .     S
C458   C470    1.390   .     A
C459   C470    1.399   .     A
C459   C469    1.386   .     A
C460   C56     1.389   1_556 S
C461   H481    1.082   .     S
C461   C463    1.392   .     A
C462   C464    1.400   .     A
C462   C58     1.415   1_556 S
C462   C60     1.407   1_556 S
C463   H480    1.081   .     S
C464   C468    1.412   .     A
C465   C469    1.400   .     A
C466   C467    1.402   .     A
C466   C53     1.405   1_556 S
C466   C60     1.425   1_556 S
C467   O493    1.383   .     S
C467   C468    1.400   .     A
C468   H482    1.082   .     S
C469   Cl471   1.778   .     S
C470   H517    1.083   .     S
H473   C723    1.088   1_545 S
H474   O493    0.992   .     S
H475   C590    1.088   .     S
H476   N483    1.029   .     S
H477   N484    1.029   .     S
H478   C53     1.083   1_556 S
H479   C505    1.083   .     S
N483   Zn495   2.019   .     S
N483   N484    1.286   .     D
N484   Zn494   2.019   .     S
O485   Zn494   1.952   .     S
O485   C496    1.276   .     S
O486   Zn495   1.979   .     S
O487   Zn494   1.948   .     S
O487   C499    1.290   .     S
O488   Zn495   1.907   .     S
O489   Zn494   1.979   .     S
O490   Zn495   1.952   .     S
O491   Zn494   1.907   .     S
O492   Zn495   1.948   .     S
C496   O531    1.289   .     A
C496   C498    1.403   .     S
C497   C499    1.454   .     S
C497   C509    1.405   .     A
C497   C505    1.404   .     A
C498   C590    1.339   .     S
C498   H653    1.088   .     S
C499   O533    1.299   .     A
C500   C501    1.403   .     S
C500   C678    1.339   1_645 S
C500   H790    1.088   1_545 S
C501   O534    1.290   .     A
C501   O445    1.276   1_655 S
C502   O536    1.297   .     A
C502   C504    1.443   .     S
C502   O447    1.288   1_655 S
C503   C515    1.390   .     A
C504   C515    1.399   .     A
C504   C514    1.386   .     A
C505   C101    1.389   1_556 S
C506   H526    1.082   .     S
C506   C508    1.392   .     A
C507   C509    1.400   .     A
C507   C103    1.415   1_556 S
C507   C105    1.407   1_556 S
C508   H525    1.081   .     S
C509   C513    1.412   .     A
C510   C514    1.400   .     A
C511   C512    1.402   .     A
C511   C98     1.405   1_556 S
C511   C105    1.425   1_556 S
C512   O538    1.383   .     S
C512   C513    1.400   .     A
C513   H527    1.082   .     S
C514   Cl516   1.778   .     S
C515   H427    1.083   1_655 S
H518   C768    1.088   1_545 S
H519   O538    0.992   .     S
H520   C635    1.088   .     S
H521   N528    1.029   .     S
H522   N529    1.029   .     S
H523   C98     1.083   1_556 S
H524   C415    1.083   1_655 S
N528   Zn540   2.019   .     S
N528   N529    1.286   .     D
N529   Zn539   2.019   .     S
O530   Zn539   1.952   .     S
O530   C406    1.276   1_655 S
O531   Zn540   1.979   .     S
O532   Zn539   1.948   .     S
O532   C409    1.290   1_655 S
O533   Zn540   1.907   .     S
O534   Zn539   1.979   .     S
O535   Zn540   1.952   .     S
O536   Zn539   1.907   .     S
O537   Zn540   1.948   .     S
C541   O576    1.289   .     A
C541   C543    1.403   .     S
C541   O665    1.276   1_455 S
C542   C544    1.454   .     S
C542   C554    1.405   .     A
C542   C550    1.404   .     A
C543   C770    1.339   1_455 S
C543   H698    1.088   .     S
C544   O578    1.299   .     A
C544   O667    1.290   1_455 S
C545   C546    1.403   .     S
C546   O579    1.290   .     A
C546   O625    1.276   .     S
C547   O581    1.297   .     A
C547   C549    1.443   .     S
C547   O627    1.288   .     S
C548   C560    1.390   .     A
C549   C560    1.399   .     A
C549   C559    1.386   .     A
C550   C146    1.389   1_556 S
C550   H659    1.083   1_455 S
C551   H571    1.082   .     S
C551   C553    1.392   .     A
C552   C554    1.400   .     A
C552   C148    1.415   1_556 S
C552   C150    1.407   1_556 S
C553   H570    1.081   .     S
C554   C558    1.412   .     A
C555   C559    1.400   .     A
C556   C557    1.402   .     A
C556   C143    1.405   1_556 S
C556   C150    1.425   1_556 S
C557   O583    1.383   .     S
C557   C558    1.400   .     A
C558   H572    1.082   .     S
C559   Cl561   1.778   .     S
C560   H607    1.083   .     S
H562   C650    1.083   1_455 S
H564   O583    0.992   .     S
H565   C680    1.088   .     S
H566   N573    1.029   .     S
H567   N574    1.029   .     S
H568   C143    1.083   1_556 S
H569   C595    1.083   .     S
N573   Zn585   2.019   .     S
N573   N574    1.286   .     D
N574   Zn584   2.019   .     S
O575   Zn584   1.952   .     S
O575   C586    1.276   .     S
O576   Zn585   1.979   .     S
O577   Zn584   1.948   .     S
O577   C589    1.290   .     S
O578   Zn585   1.907   .     S
O579   Zn584   1.979   .     S
O580   Zn585   1.952   .     S
O580   C636    1.276   1_455 S
O581   Zn584   1.907   .     S
O582   Zn585   1.948   .     S
O582   C637    1.288   1_455 S
C586   O621    1.289   .     A
C586   C588    1.403   .     S
C587   C589    1.454   .     S
C587   C599    1.405   .     A
C587   C595    1.404   .     A
C588   C680    1.339   .     S
C588   H743    1.088   .     S
C589   O623    1.299   .     A
C590   C591    1.403   .     S
C591   O624    1.290   .     A
C591   O670    1.276   .     S
C592   O626    1.297   .     A
C592   C594    1.443   .     S
C592   O672    1.288   .     S
C593   C605    1.390   .     A
C594   C605    1.399   .     A
C594   C604    1.386   .     A
C595   C191    1.389   1_556 S
C596   H616    1.082   .     S
C596   C598    1.392   .     A
C597   C599    1.400   .     A
C597   C193    1.415   1_556 S
C597   C195    1.407   1_556 S
C598   H615    1.081   .     S
C599   C603    1.412   .     A
C600   C604    1.400   .     A
C601   C602    1.402   .     A
C601   C188    1.405   1_556 S
C601   C195    1.425   1_556 S
C602   O628    1.383   .     S
C602   C603    1.400   .     A
C603   H617    1.082   .     S
C604   Cl606   1.778   .     S
C605   H652    1.083   .     S
H609   O628    0.992   .     S
H610   C725    1.088   .     S
H611   N618    1.029   .     S
H612   N619    1.029   .     S
H613   C188    1.083   1_556 S
H614   C640    1.083   .     S
N618   Zn630   2.019   .     S
N618   N619    1.286   .     D
N619   Zn629   2.019   .     S
O620   Zn629   1.952   .     S
O620   C631    1.276   .     S
O621   Zn630   1.979   .     S
O622   Zn629   1.948   .     S
O622   C634    1.290   .     S
O623   Zn630   1.907   .     S
O624   Zn629   1.979   .     S
O625   Zn630   1.952   .     S
O626   Zn629   1.907   .     S
O627   Zn630   1.948   .     S
C631   O666    1.289   .     A
C631   C633    1.403   .     S
C632   C634    1.454   .     S
C632   C644    1.405   .     A
C632   C640    1.404   .     A
C633   C725    1.339   .     S
C633   H788    1.088   .     S
C634   O668    1.299   .     A
C635   C636    1.403   .     S
C635   C408    1.339   1_655 S
C636   O669    1.290   .     A
C636   O580    1.276   1_655 S
C637   O671    1.297   .     A
C637   C639    1.443   .     S
C637   O582    1.288   1_655 S
C638   C650    1.390   .     A
C639   C650    1.399   .     A
C639   C649    1.386   .     A
C640   C236    1.389   1_556 S
C641   H661    1.082   .     S
C641   C643    1.392   .     A
C642   C644    1.400   .     A
C642   C238    1.415   1_556 S
C642   C240    1.407   1_556 S
C643   H660    1.081   .     S
C644   C648    1.412   .     A
C645   C649    1.400   .     A
C646   C647    1.402   .     A
C646   C233    1.405   1_556 S
C646   C240    1.425   1_556 S
C647   O673    1.383   .     S
C647   C648    1.400   .     A
C648   H662    1.082   .     S
C649   Cl651   1.778   .     S
C650   H562    1.083   1_655 S
H654   O673    0.992   .     S
H655   C770    1.088   .     S
H656   N663    1.029   .     S
H657   N664    1.029   .     S
H658   C233    1.083   1_556 S
H659   C550    1.083   1_655 S
N663   Zn675   2.019   .     S
N663   N664    1.286   .     D
N664   Zn674   2.019   .     S
O665   Zn674   1.952   .     S
O665   C541    1.276   1_655 S
O666   Zn675   1.979   .     S
O667   Zn674   1.948   .     S
O667   C544    1.290   1_655 S
O668   Zn675   1.907   .     S
O669   Zn674   1.979   .     S
O670   Zn675   1.952   .     S
O671   Zn674   1.907   .     S
O672   Zn675   1.948   .     S
C676   O711    1.289   .     A
C676   C678    1.403   .     S
C676   O800    1.276   1_455 S
C677   C679    1.454   .     S
C677   C689    1.405   .     A
C677   C685    1.404   .     A
C678   C500    1.339   1_465 S
C678   H428    1.088   1_565 S
C679   O713    1.299   .     A
C679   O802    1.290   1_455 S
C680   C681    1.403   .     S
C681   O714    1.290   .     A
C681   O760    1.276   .     S
C682   O716    1.297   .     A
C682   C684    1.443   .     S
C682   O762    1.288   .     S
C683   C695    1.390   .     A
C684   C695    1.399   .     A
C684   C694    1.386   .     A
C685   C281    1.389   1_556 S
C685   H794    1.083   1_455 S
C686   H706    1.082   .     S
C686   C688    1.392   .     A
C687   C689    1.400   .     A
C687   C283    1.415   1_556 S
C687   C285    1.407   1_556 S
C688   H705    1.081   .     S
C689   C693    1.412   .     A
C690   C694    1.400   .     A
C691   C692    1.402   .     A
C691   C278    1.405   1_556 S
C691   C285    1.425   1_556 S
C692   O718    1.383   .     S
C692   C693    1.400   .     A
C693   H707    1.082   .     S
C694   Cl696   1.778   .     S
C695   H742    1.083   .     S
H697   C785    1.083   1_455 S
H699   O718    0.992   .     S
H700   C410    1.088   1_565 S
H701   N708    1.029   .     S
H702   N709    1.029   .     S
H703   C278    1.083   1_556 S
H704   C730    1.083   .     S
N708   Zn720   2.019   .     S
N708   N709    1.286   .     D
N709   Zn719   2.019   .     S
O710   Zn719   1.952   .     S
O710   C721    1.276   .     S
O711   Zn720   1.979   .     S
O712   Zn719   1.948   .     S
O712   C724    1.290   .     S
O713   Zn720   1.907   .     S
O714   Zn719   1.979   .     S
O715   Zn720   1.952   .     S
O715   C771    1.276   1_455 S
O716   Zn719   1.907   .     S
O717   Zn720   1.948   .     S
O717   C772    1.288   1_455 S
C721   O756    1.289   .     A
C721   C723    1.403   .     S
C722   C724    1.454   .     S
C722   C734    1.405   .     A
C722   C730    1.404   .     A
C723   C410    1.339   1_565 S
C723   H473    1.088   1_565 S
C724   O758    1.299   .     A
C725   C726    1.403   .     S
C726   O759    1.290   .     A
C726   O805    1.276   .     S
C727   O761    1.297   .     A
C727   C729    1.443   .     S
C727   O807    1.288   .     S
C728   C740    1.390   .     A
C729   C740    1.399   .     A
C729   C739    1.386   .     A
C730   C326    1.389   1_556 S
C731   H751    1.082   .     S
C731   C733    1.392   .     A
C732   C734    1.400   .     A
C732   C328    1.415   1_556 S
C732   C330    1.407   1_556 S
C733   H750    1.081   .     S
C734   C738    1.412   .     A
C735   C739    1.400   .     A
C736   C737    1.402   .     A
C736   C323    1.405   1_556 S
C736   C330    1.425   1_556 S
C737   O763    1.383   .     S
C737   C738    1.400   .     A
C738   H752    1.082   .     S
C739   Cl741   1.778   .     S
C740   H787    1.083   .     S
H744   O763    0.992   .     S
H745   C455    1.088   1_565 S
H746   N753    1.029   .     S
H747   N754    1.029   .     S
H748   C323    1.083   1_556 S
H749   C775    1.083   .     S
N753   Zn765   2.019   .     S
N753   N754    1.286   .     D
N754   Zn764   2.019   .     S
O755   Zn764   1.952   .     S
O755   C766    1.276   .     S
O756   Zn765   1.979   .     S
O757   Zn764   1.948   .     S
O757   C769    1.290   .     S
O758   Zn765   1.907   .     S
O759   Zn764   1.979   .     S
O760   Zn765   1.952   .     S
O761   Zn764   1.907   .     S
O762   Zn765   1.948   .     S
C766   O801    1.289   .     A
C766   C768    1.403   .     S
C767   C769    1.454   .     S
C767   C779    1.405   .     A
C767   C775    1.404   .     A
C768   C455    1.339   1_565 S
C768   H518    1.088   1_565 S
C769   O803    1.299   .     A
C770   C771    1.403   .     S
C770   C543    1.339   1_655 S
C771   O804    1.290   .     A
C771   O715    1.276   1_655 S
C772   O806    1.297   .     A
C772   C774    1.443   .     S
C772   O717    1.288   1_655 S
C773   C785    1.390   .     A
C774   C785    1.399   .     A
C774   C784    1.386   .     A
C775   C371    1.389   1_556 S
C776   H796    1.082   .     S
C776   C778    1.392   .     A
C777   C779    1.400   .     A
C777   C373    1.415   1_556 S
C777   C375    1.407   1_556 S
C778   H795    1.081   .     S
C779   C783    1.412   .     A
C780   C784    1.400   .     A
C781   C782    1.402   .     A
C781   C368    1.405   1_556 S
C781   C375    1.425   1_556 S
C782   O808    1.383   .     S
C782   C783    1.400   .     A
C783   H797    1.082   .     S
C784   Cl786   1.778   .     S
C785   H697    1.083   1_655 S
H789   O808    0.992   .     S
H790   C500    1.088   1_565 S
H791   N798    1.029   .     S
H792   N799    1.029   .     S
H793   C368    1.083   1_556 S
H794   C685    1.083   1_655 S
N798   Zn810   2.019   .     S
N798   N799    1.286   .     D
N799   Zn809   2.019   .     S
O800   Zn809   1.952   .     S
O800   C676    1.276   1_655 S
O801   Zn810   1.979   .     S
O802   Zn809   1.948   .     S
O802   C679    1.290   1_655 S
O803   Zn810   1.907   .     S
O804   Zn809   1.979   .     S
O805   Zn810   1.952   .     S
O806   Zn809   1.907   .     S
O807   Zn810   1.948   .     S
