data_str_m3_o2_o10_pcu_sym.11
_audit_creation_date              2020-01-03
_audit_creation_method            'Materials Studio'
_symmetry_space_group_name_H-M    'P1'
_symmetry_Int_Tables_number       1
_symmetry_cell_setting            triclinic
loop_
_symmetry_equiv_pos_as_xyz
  x,y,z
_cell_length_a                    25.7414
_cell_length_b                    29.8668
_cell_length_c                    28.3617
_cell_angle_alpha                 89.9307
_cell_angle_beta                  98.6650
_cell_angle_gamma                 90.1392
loop_
_atom_site_label
_atom_site_type_symbol
_atom_site_fract_x
_atom_site_fract_y
_atom_site_fract_z
_atom_site_U_iso_or_equiv
_atom_site_adp_type
_atom_site_occupancy
C1     C     0.16787   0.16400   0.25017   0.00000  Uiso   1.00
C2     C     0.14207   0.21546   0.44401   0.00000  Uiso   1.00
C3     C     0.16670   0.24985   0.02668   0.00000  Uiso   1.00
C4     C     0.16666   0.24991   0.47331   0.00000  Uiso   1.00
C5     C     0.06701   0.24981   0.23752   0.00000  Uiso   1.00
C6     C     0.26633   0.25001   0.26246   0.00000  Uiso   1.00
C7     C     0.01197   0.24959   0.23078   0.00000  Uiso   1.00
C8     C     0.32136   0.24990   0.26918   0.00000  Uiso   1.00
C9     C     0.13100   0.04714   0.27079   0.00000  Uiso   1.00
C10    C     0.21244   0.45199   0.26766   0.00000  Uiso   1.00
C11    C     0.13203   0.09328   0.27138   0.00000  Uiso   1.00
C12    C     0.16579   0.33590   0.24985   0.00000  Uiso   1.00
C13    C     0.21109   0.40584   0.26804   0.00000  Uiso   1.00
C14    C     0.17015   0.11615   0.25051   0.00000  Uiso   1.00
C15    C     0.16476   0.38359   0.24963   0.00000  Uiso   1.00
C16    C     0.20881   0.09303   0.22972   0.00000  Uiso   1.00
C17    C     0.11877   0.40702   0.23087   0.00000  Uiso   1.00
C18    C     0.20724   0.04650   0.22943   0.00000  Uiso   1.00
C19    C     0.12064   0.45354   0.23093   0.00000  Uiso   1.00
C20    C     0.16842   0.02389   0.24966   0.00000  Uiso   1.00
C21    C     0.16724   0.47570   0.24919   0.00000  Uiso   1.00
C22    C     0.25306   0.11640   0.20968   0.00000  Uiso   1.00
C23    C     0.12476   0.23116   0.04694   0.00000  Uiso   1.00
C24    C     0.24202   0.11847   0.15533   0.00000  Uiso   1.00
C25    C     0.06755   0.38363   0.21202   0.00000  Uiso   1.00
C26    C     0.03810   0.36999   0.25266   0.00000  Uiso   1.00
C27    C     0.19122   0.28442   0.45072   0.00000  Uiso   1.00
C28    C     0.12562   0.23145   0.09666   0.00000  Uiso   1.00
C29    C     0.19088   0.28376   0.40106   0.00000  Uiso   1.00
C30    C     0.20778   0.26839   0.10780   0.00000  Uiso   1.00
C31    C     0.14240   0.21623   0.39445   0.00000  Uiso   1.00
C32    C     0.20866   0.26853   0.05832   0.00000  Uiso   1.00
H33    H     0.32465   0.24933   0.19437   0.00000  Uiso   1.00
H34    H     0.20999   0.31223   0.47101   0.00000  Uiso   1.00
H35    H     0.09318   0.21691   0.11160   0.00000  Uiso   1.00
H36    H     0.20996   0.31045   0.38431   0.00000  Uiso   1.00
H37    H     0.24023   0.28298   0.13150   0.00000  Uiso   1.00
H38    H     0.12331   0.18959   0.37248   0.00000  Uiso   1.00
H39    H     0.24247   0.28269   0.04518   0.00000  Uiso   1.00
H40    H     0.12328   0.18762   0.45918   0.00000  Uiso   1.00
H41    H     0.20492   0.13683   0.14328   0.00000  Uiso   1.00
H42    H     0.27469   0.13626   0.14173   0.00000  Uiso   1.00
H43    H     0.23884   0.08416   0.14008   0.00000  Uiso   1.00
H44    H     0.00869   0.25019   0.30559   0.00000  Uiso   1.00
H45    H     0.25976   0.15081   0.22409   0.00000  Uiso   1.00
H46    H     0.29044   0.09806   0.22080   0.00000  Uiso   1.00
H47    H     0.00055   0.35336   0.23784   0.00000  Uiso   1.00
H48    H     0.06183   0.34630   0.27723   0.00000  Uiso   1.00
H49    H     0.02906   0.40001   0.27302   0.00000  Uiso   1.00
H50    H     0.04179   0.40616   0.18756   0.00000  Uiso   1.00
H51    H     0.07473   0.35372   0.19073   0.00000  Uiso   1.00
H52    H     0.10128   0.02951   0.28692   0.00000  Uiso   1.00
H53    H     0.24839   0.46925   0.28215   0.00000  Uiso   1.00
H54    H     0.10256   0.11124   0.28740   0.00000  Uiso   1.00
H55    H     0.24619   0.38739   0.28234   0.00000  Uiso   1.00
H56    H     0.23621   0.02782   0.21347   0.00000  Uiso   1.00
H57    H     0.08593   0.47261   0.21687   0.00000  Uiso   1.00
H58    H     0.09098   0.21694   0.02462   0.00000  Uiso   1.00
N59    N     0.16667   0.24999   0.12623   0.00000  Uiso   1.00
N60    N     0.16667   0.25001   0.37377   0.00000  Uiso   1.00
O61    O     0.16667   0.18453   0.28974   0.00000  Uiso   1.00
O62    O     0.16666   0.31546   0.21026   0.00000  Uiso   1.00
O63    O     0.16667   0.18453   0.21026   0.00000  Uiso   1.00
O64    O     0.16666   0.31547   0.28974   0.00000  Uiso   1.00
O65    O     0.09058   0.25000   0.28044   0.00000  Uiso   1.00
O66    O     0.24275   0.25000   0.21956   0.00000  Uiso   1.00
O67    O     0.09058   0.24999   0.20096   0.00000  Uiso   1.00
O68    O     0.24275   0.25000   0.29904   0.00000  Uiso   1.00
Zn69   Zn    0.16667   0.25000   0.30307   0.00000  Uiso   1.00
Zn70   Zn    0.16667   0.24999   0.19693   0.00000  Uiso   1.00
C71    C     0.50120   0.16400   0.25017   0.00000  Uiso   1.00
C72    C     0.47541   0.21546   0.44401   0.00000  Uiso   1.00
C73    C     0.50003   0.24985   0.02668   0.00000  Uiso   1.00
C74    C     0.50000   0.24991   0.47331   0.00000  Uiso   1.00
C75    C     0.40034   0.24981   0.23752   0.00000  Uiso   1.00
C76    C     0.59966   0.25001   0.26246   0.00000  Uiso   1.00
C77    C     0.34530   0.24959   0.23078   0.00000  Uiso   1.00
C78    C     0.65469   0.24990   0.26918   0.00000  Uiso   1.00
C79    C     0.46434   0.04714   0.27079   0.00000  Uiso   1.00
C80    C     0.54577   0.45199   0.26766   0.00000  Uiso   1.00
C81    C     0.46536   0.09328   0.27138   0.00000  Uiso   1.00
C82    C     0.49913   0.33590   0.24985   0.00000  Uiso   1.00
C83    C     0.54442   0.40584   0.26804   0.00000  Uiso   1.00
C84    C     0.50349   0.11615   0.25051   0.00000  Uiso   1.00
C85    C     0.49809   0.38359   0.24963   0.00000  Uiso   1.00
C86    C     0.54214   0.09303   0.22972   0.00000  Uiso   1.00
C87    C     0.45210   0.40702   0.23087   0.00000  Uiso   1.00
C88    C     0.54058   0.04650   0.22943   0.00000  Uiso   1.00
C89    C     0.45397   0.45354   0.23093   0.00000  Uiso   1.00
C90    C     0.50175   0.02389   0.24966   0.00000  Uiso   1.00
C91    C     0.50057   0.47570   0.24919   0.00000  Uiso   1.00
C92    C     0.58639   0.11640   0.20968   0.00000  Uiso   1.00
C93    C     0.45810   0.23116   0.04694   0.00000  Uiso   1.00
C94    C     0.57535   0.11847   0.15533   0.00000  Uiso   1.00
C95    C     0.40088   0.38363   0.21202   0.00000  Uiso   1.00
C96    C     0.37143   0.36999   0.25266   0.00000  Uiso   1.00
C97    C     0.52455   0.28442   0.45072   0.00000  Uiso   1.00
C98    C     0.45896   0.23145   0.09666   0.00000  Uiso   1.00
C99    C     0.52422   0.28376   0.40106   0.00000  Uiso   1.00
C100   C     0.54111   0.26839   0.10780   0.00000  Uiso   1.00
C101   C     0.47573   0.21623   0.39445   0.00000  Uiso   1.00
C102   C     0.54200   0.26853   0.05832   0.00000  Uiso   1.00
H103   H     0.65798   0.24933   0.19437   0.00000  Uiso   1.00
H104   H     0.54333   0.31223   0.47101   0.00000  Uiso   1.00
H105   H     0.42652   0.21691   0.11160   0.00000  Uiso   1.00
H106   H     0.54329   0.31045   0.38431   0.00000  Uiso   1.00
H107   H     0.57356   0.28298   0.13150   0.00000  Uiso   1.00
H108   H     0.45664   0.18959   0.37248   0.00000  Uiso   1.00
H109   H     0.57580   0.28269   0.04518   0.00000  Uiso   1.00
H110   H     0.45661   0.18762   0.45918   0.00000  Uiso   1.00
H111   H     0.53825   0.13683   0.14328   0.00000  Uiso   1.00
H112   H     0.60802   0.13626   0.14173   0.00000  Uiso   1.00
H113   H     0.57217   0.08416   0.14008   0.00000  Uiso   1.00
H114   H     0.34203   0.25019   0.30559   0.00000  Uiso   1.00
H115   H     0.59309   0.15081   0.22409   0.00000  Uiso   1.00
H116   H     0.62378   0.09806   0.22080   0.00000  Uiso   1.00
H117   H     0.33388   0.35336   0.23784   0.00000  Uiso   1.00
H118   H     0.39516   0.34630   0.27723   0.00000  Uiso   1.00
H119   H     0.36239   0.40001   0.27302   0.00000  Uiso   1.00
H120   H     0.37512   0.40616   0.18756   0.00000  Uiso   1.00
H121   H     0.40806   0.35372   0.19073   0.00000  Uiso   1.00
H122   H     0.43462   0.02951   0.28692   0.00000  Uiso   1.00
H123   H     0.58172   0.46925   0.28215   0.00000  Uiso   1.00
H124   H     0.43590   0.11124   0.28740   0.00000  Uiso   1.00
H125   H     0.57952   0.38739   0.28234   0.00000  Uiso   1.00
H126   H     0.56955   0.02782   0.21347   0.00000  Uiso   1.00
H127   H     0.41926   0.47261   0.21687   0.00000  Uiso   1.00
H128   H     0.42431   0.21694   0.02462   0.00000  Uiso   1.00
N129   N     0.50000   0.24999   0.12623   0.00000  Uiso   1.00
N130   N     0.50000   0.25001   0.37377   0.00000  Uiso   1.00
O131   O     0.50000   0.18453   0.28974   0.00000  Uiso   1.00
O132   O     0.50000   0.31546   0.21026   0.00000  Uiso   1.00
O133   O     0.50000   0.18453   0.21026   0.00000  Uiso   1.00
O134   O     0.50000   0.31547   0.28974   0.00000  Uiso   1.00
O135   O     0.42392   0.25000   0.28044   0.00000  Uiso   1.00
O136   O     0.57608   0.25000   0.21956   0.00000  Uiso   1.00
O137   O     0.42392   0.24999   0.20096   0.00000  Uiso   1.00
O138   O     0.57608   0.25000   0.29904   0.00000  Uiso   1.00
Zn139  Zn    0.50000   0.25000   0.30307   0.00000  Uiso   1.00
Zn140  Zn    0.50000   0.24999   0.19693   0.00000  Uiso   1.00
C141   C     0.83454   0.16400   0.25017   0.00000  Uiso   1.00
C142   C     0.80874   0.21546   0.44401   0.00000  Uiso   1.00
C143   C     0.83337   0.24985   0.02668   0.00000  Uiso   1.00
C144   C     0.83333   0.24991   0.47331   0.00000  Uiso   1.00
C145   C     0.73367   0.24981   0.23752   0.00000  Uiso   1.00
C146   C     0.93299   0.25001   0.26246   0.00000  Uiso   1.00
C147   C     0.67863   0.24959   0.23078   0.00000  Uiso   1.00
C148   C     0.98803   0.24990   0.26918   0.00000  Uiso   1.00
C149   C     0.79767   0.04714   0.27079   0.00000  Uiso   1.00
C150   C     0.87910   0.45199   0.26766   0.00000  Uiso   1.00
C151   C     0.79870   0.09328   0.27138   0.00000  Uiso   1.00
C152   C     0.83246   0.33590   0.24985   0.00000  Uiso   1.00
C153   C     0.87775   0.40584   0.26804   0.00000  Uiso   1.00
C154   C     0.83682   0.11615   0.25051   0.00000  Uiso   1.00
C155   C     0.83142   0.38359   0.24963   0.00000  Uiso   1.00
C156   C     0.87547   0.09303   0.22972   0.00000  Uiso   1.00
C157   C     0.78544   0.40702   0.23087   0.00000  Uiso   1.00
C158   C     0.87391   0.04650   0.22943   0.00000  Uiso   1.00
C159   C     0.78730   0.45354   0.23093   0.00000  Uiso   1.00
C160   C     0.83508   0.02389   0.24966   0.00000  Uiso   1.00
C161   C     0.83390   0.47570   0.24919   0.00000  Uiso   1.00
C162   C     0.91972   0.11640   0.20968   0.00000  Uiso   1.00
C163   C     0.79143   0.23116   0.04694   0.00000  Uiso   1.00
C164   C     0.90869   0.11847   0.15533   0.00000  Uiso   1.00
C165   C     0.73422   0.38363   0.21202   0.00000  Uiso   1.00
C166   C     0.70476   0.36999   0.25266   0.00000  Uiso   1.00
C167   C     0.85788   0.28442   0.45072   0.00000  Uiso   1.00
C168   C     0.79229   0.23145   0.09666   0.00000  Uiso   1.00
C169   C     0.85755   0.28376   0.40106   0.00000  Uiso   1.00
C170   C     0.87444   0.26839   0.10780   0.00000  Uiso   1.00
C171   C     0.80907   0.21623   0.39445   0.00000  Uiso   1.00
C172   C     0.87533   0.26853   0.05832   0.00000  Uiso   1.00
H173   H     0.99131   0.24933   0.19437   0.00000  Uiso   1.00
H174   H     0.87666   0.31223   0.47101   0.00000  Uiso   1.00
H175   H     0.75985   0.21691   0.11160   0.00000  Uiso   1.00
H176   H     0.87662   0.31045   0.38431   0.00000  Uiso   1.00
H177   H     0.90690   0.28298   0.13150   0.00000  Uiso   1.00
H178   H     0.78997   0.18959   0.37248   0.00000  Uiso   1.00
H179   H     0.90913   0.28269   0.04518   0.00000  Uiso   1.00
H180   H     0.78995   0.18762   0.45918   0.00000  Uiso   1.00
H181   H     0.87158   0.13683   0.14328   0.00000  Uiso   1.00
H182   H     0.94136   0.13626   0.14173   0.00000  Uiso   1.00
H183   H     0.90550   0.08416   0.14008   0.00000  Uiso   1.00
H184   H     0.67536   0.25019   0.30559   0.00000  Uiso   1.00
H185   H     0.92642   0.15081   0.22409   0.00000  Uiso   1.00
H186   H     0.95711   0.09806   0.22080   0.00000  Uiso   1.00
H187   H     0.66722   0.35336   0.23784   0.00000  Uiso   1.00
H188   H     0.72849   0.34630   0.27723   0.00000  Uiso   1.00
H189   H     0.69572   0.40001   0.27302   0.00000  Uiso   1.00
H190   H     0.70845   0.40616   0.18756   0.00000  Uiso   1.00
H191   H     0.74139   0.35372   0.19073   0.00000  Uiso   1.00
H192   H     0.76795   0.02951   0.28692   0.00000  Uiso   1.00
H193   H     0.91505   0.46925   0.28215   0.00000  Uiso   1.00
H194   H     0.76923   0.11124   0.28740   0.00000  Uiso   1.00
H195   H     0.91286   0.38739   0.28234   0.00000  Uiso   1.00
H196   H     0.90288   0.02782   0.21347   0.00000  Uiso   1.00
H197   H     0.75260   0.47261   0.21687   0.00000  Uiso   1.00
H198   H     0.75765   0.21694   0.02462   0.00000  Uiso   1.00
N199   N     0.83333   0.24999   0.12623   0.00000  Uiso   1.00
N200   N     0.83333   0.25001   0.37377   0.00000  Uiso   1.00
O201   O     0.83334   0.18453   0.28974   0.00000  Uiso   1.00
O202   O     0.83333   0.31546   0.21026   0.00000  Uiso   1.00
O203   O     0.83334   0.18453   0.21026   0.00000  Uiso   1.00
O204   O     0.83333   0.31547   0.28974   0.00000  Uiso   1.00
O205   O     0.75725   0.25000   0.28044   0.00000  Uiso   1.00
O206   O     0.90942   0.25000   0.21956   0.00000  Uiso   1.00
O207   O     0.75725   0.24999   0.20096   0.00000  Uiso   1.00
O208   O     0.90942   0.25000   0.29904   0.00000  Uiso   1.00
Zn209  Zn    0.83333   0.25000   0.30307   0.00000  Uiso   1.00
Zn210  Zn    0.83333   0.24999   0.19693   0.00000  Uiso   1.00
C211   C     0.16787   0.66400   0.25017   0.00000  Uiso   1.00
C212   C     0.14207   0.71546   0.44401   0.00000  Uiso   1.00
C213   C     0.16670   0.74985   0.02668   0.00000  Uiso   1.00
C214   C     0.16666   0.74991   0.47331   0.00000  Uiso   1.00
C215   C     0.06701   0.74981   0.23752   0.00000  Uiso   1.00
C216   C     0.26633   0.75001   0.26246   0.00000  Uiso   1.00
C217   C     0.01197   0.74959   0.23078   0.00000  Uiso   1.00
C218   C     0.32136   0.74990   0.26918   0.00000  Uiso   1.00
C219   C     0.13100   0.54714   0.27079   0.00000  Uiso   1.00
C220   C     0.21244   0.95199   0.26766   0.00000  Uiso   1.00
C221   C     0.13203   0.59328   0.27138   0.00000  Uiso   1.00
C222   C     0.16579   0.83590   0.24985   0.00000  Uiso   1.00
C223   C     0.21109   0.90584   0.26804   0.00000  Uiso   1.00
C224   C     0.17015   0.61615   0.25051   0.00000  Uiso   1.00
C225   C     0.16476   0.88359   0.24963   0.00000  Uiso   1.00
C226   C     0.20881   0.59303   0.22972   0.00000  Uiso   1.00
C227   C     0.11877   0.90702   0.23087   0.00000  Uiso   1.00
C228   C     0.20724   0.54650   0.22943   0.00000  Uiso   1.00
C229   C     0.12064   0.95354   0.23093   0.00000  Uiso   1.00
C230   C     0.16842   0.52389   0.24966   0.00000  Uiso   1.00
C231   C     0.16724   0.97570   0.24919   0.00000  Uiso   1.00
C232   C     0.25306   0.61640   0.20968   0.00000  Uiso   1.00
C233   C     0.12476   0.73116   0.04694   0.00000  Uiso   1.00
C234   C     0.24202   0.61847   0.15533   0.00000  Uiso   1.00
C235   C     0.06755   0.88363   0.21202   0.00000  Uiso   1.00
C236   C     0.03810   0.86999   0.25266   0.00000  Uiso   1.00
C237   C     0.19122   0.78442   0.45072   0.00000  Uiso   1.00
C238   C     0.12562   0.73145   0.09666   0.00000  Uiso   1.00
C239   C     0.19088   0.78376   0.40106   0.00000  Uiso   1.00
C240   C     0.20778   0.76839   0.10780   0.00000  Uiso   1.00
C241   C     0.14240   0.71623   0.39445   0.00000  Uiso   1.00
C242   C     0.20866   0.76853   0.05832   0.00000  Uiso   1.00
H243   H     0.32465   0.74933   0.19437   0.00000  Uiso   1.00
H244   H     0.20999   0.81223   0.47101   0.00000  Uiso   1.00
H245   H     0.09318   0.71691   0.11160   0.00000  Uiso   1.00
H246   H     0.20996   0.81045   0.38431   0.00000  Uiso   1.00
H247   H     0.24023   0.78298   0.13150   0.00000  Uiso   1.00
H248   H     0.12331   0.68959   0.37248   0.00000  Uiso   1.00
H249   H     0.24247   0.78269   0.04518   0.00000  Uiso   1.00
H250   H     0.12328   0.68762   0.45918   0.00000  Uiso   1.00
H251   H     0.20492   0.63683   0.14328   0.00000  Uiso   1.00
H252   H     0.27469   0.63626   0.14173   0.00000  Uiso   1.00
H253   H     0.23884   0.58416   0.14008   0.00000  Uiso   1.00
H254   H     0.00869   0.75019   0.30559   0.00000  Uiso   1.00
H255   H     0.25976   0.65081   0.22409   0.00000  Uiso   1.00
H256   H     0.29044   0.59806   0.22080   0.00000  Uiso   1.00
H257   H     0.00055   0.85336   0.23784   0.00000  Uiso   1.00
H258   H     0.06183   0.84630   0.27723   0.00000  Uiso   1.00
H259   H     0.02906   0.90001   0.27302   0.00000  Uiso   1.00
H260   H     0.04179   0.90616   0.18756   0.00000  Uiso   1.00
H261   H     0.07473   0.85372   0.19073   0.00000  Uiso   1.00
H262   H     0.10128   0.52951   0.28692   0.00000  Uiso   1.00
H263   H     0.24839   0.96925   0.28215   0.00000  Uiso   1.00
H264   H     0.10256   0.61124   0.28740   0.00000  Uiso   1.00
H265   H     0.24619   0.88739   0.28234   0.00000  Uiso   1.00
H266   H     0.23621   0.52782   0.21347   0.00000  Uiso   1.00
H267   H     0.08593   0.97261   0.21687   0.00000  Uiso   1.00
H268   H     0.09098   0.71694   0.02462   0.00000  Uiso   1.00
N269   N     0.16667   0.74999   0.12623   0.00000  Uiso   1.00
N270   N     0.16667   0.75001   0.37377   0.00000  Uiso   1.00
O271   O     0.16667   0.68453   0.28974   0.00000  Uiso   1.00
O272   O     0.16666   0.81546   0.21026   0.00000  Uiso   1.00
O273   O     0.16667   0.68453   0.21026   0.00000  Uiso   1.00
O274   O     0.16666   0.81547   0.28974   0.00000  Uiso   1.00
O275   O     0.09058   0.75000   0.28044   0.00000  Uiso   1.00
O276   O     0.24275   0.75000   0.21956   0.00000  Uiso   1.00
O277   O     0.09058   0.74999   0.20096   0.00000  Uiso   1.00
O278   O     0.24275   0.75000   0.29904   0.00000  Uiso   1.00
Zn279  Zn    0.16667   0.75000   0.30307   0.00000  Uiso   1.00
Zn280  Zn    0.16667   0.74999   0.19693   0.00000  Uiso   1.00
C281   C     0.50120   0.66400   0.25017   0.00000  Uiso   1.00
C282   C     0.47541   0.71546   0.44401   0.00000  Uiso   1.00
C283   C     0.50003   0.74985   0.02668   0.00000  Uiso   1.00
C284   C     0.50000   0.74991   0.47331   0.00000  Uiso   1.00
C285   C     0.40034   0.74981   0.23752   0.00000  Uiso   1.00
C286   C     0.59966   0.75001   0.26246   0.00000  Uiso   1.00
C287   C     0.34530   0.74959   0.23078   0.00000  Uiso   1.00
C288   C     0.65469   0.74990   0.26918   0.00000  Uiso   1.00
C289   C     0.46434   0.54714   0.27079   0.00000  Uiso   1.00
C290   C     0.54577   0.95199   0.26766   0.00000  Uiso   1.00
C291   C     0.46536   0.59328   0.27138   0.00000  Uiso   1.00
C292   C     0.49913   0.83590   0.24985   0.00000  Uiso   1.00
C293   C     0.54442   0.90584   0.26804   0.00000  Uiso   1.00
C294   C     0.50349   0.61615   0.25051   0.00000  Uiso   1.00
C295   C     0.49809   0.88359   0.24963   0.00000  Uiso   1.00
C296   C     0.54214   0.59303   0.22972   0.00000  Uiso   1.00
C297   C     0.45210   0.90702   0.23087   0.00000  Uiso   1.00
C298   C     0.54058   0.54650   0.22943   0.00000  Uiso   1.00
C299   C     0.45397   0.95354   0.23093   0.00000  Uiso   1.00
C300   C     0.50175   0.52389   0.24966   0.00000  Uiso   1.00
C301   C     0.50057   0.97570   0.24919   0.00000  Uiso   1.00
C302   C     0.58639   0.61640   0.20968   0.00000  Uiso   1.00
C303   C     0.45810   0.73116   0.04694   0.00000  Uiso   1.00
C304   C     0.57535   0.61847   0.15533   0.00000  Uiso   1.00
C305   C     0.40088   0.88363   0.21202   0.00000  Uiso   1.00
C306   C     0.37143   0.86999   0.25266   0.00000  Uiso   1.00
C307   C     0.52455   0.78442   0.45072   0.00000  Uiso   1.00
C308   C     0.45896   0.73145   0.09666   0.00000  Uiso   1.00
C309   C     0.52422   0.78376   0.40106   0.00000  Uiso   1.00
C310   C     0.54111   0.76839   0.10780   0.00000  Uiso   1.00
C311   C     0.47573   0.71623   0.39445   0.00000  Uiso   1.00
C312   C     0.54200   0.76853   0.05832   0.00000  Uiso   1.00
H313   H     0.65798   0.74933   0.19437   0.00000  Uiso   1.00
H314   H     0.54333   0.81223   0.47101   0.00000  Uiso   1.00
H315   H     0.42652   0.71691   0.11160   0.00000  Uiso   1.00
H316   H     0.54329   0.81045   0.38431   0.00000  Uiso   1.00
H317   H     0.57356   0.78298   0.13150   0.00000  Uiso   1.00
H318   H     0.45664   0.68959   0.37248   0.00000  Uiso   1.00
H319   H     0.57580   0.78269   0.04518   0.00000  Uiso   1.00
H320   H     0.45661   0.68762   0.45918   0.00000  Uiso   1.00
H321   H     0.53825   0.63683   0.14328   0.00000  Uiso   1.00
H322   H     0.60802   0.63626   0.14173   0.00000  Uiso   1.00
H323   H     0.57217   0.58416   0.14008   0.00000  Uiso   1.00
H324   H     0.34203   0.75019   0.30559   0.00000  Uiso   1.00
H325   H     0.59309   0.65081   0.22409   0.00000  Uiso   1.00
H326   H     0.62378   0.59806   0.22080   0.00000  Uiso   1.00
H327   H     0.33388   0.85336   0.23784   0.00000  Uiso   1.00
H328   H     0.39516   0.84630   0.27723   0.00000  Uiso   1.00
H329   H     0.36239   0.90001   0.27302   0.00000  Uiso   1.00
H330   H     0.37512   0.90616   0.18756   0.00000  Uiso   1.00
H331   H     0.40806   0.85372   0.19073   0.00000  Uiso   1.00
H332   H     0.43462   0.52951   0.28692   0.00000  Uiso   1.00
H333   H     0.58172   0.96925   0.28215   0.00000  Uiso   1.00
H334   H     0.43590   0.61124   0.28740   0.00000  Uiso   1.00
H335   H     0.57952   0.88739   0.28234   0.00000  Uiso   1.00
H336   H     0.56955   0.52782   0.21347   0.00000  Uiso   1.00
H337   H     0.41926   0.97261   0.21687   0.00000  Uiso   1.00
H338   H     0.42431   0.71694   0.02462   0.00000  Uiso   1.00
N339   N     0.50000   0.74999   0.12623   0.00000  Uiso   1.00
N340   N     0.50000   0.75001   0.37377   0.00000  Uiso   1.00
O341   O     0.50000   0.68453   0.28974   0.00000  Uiso   1.00
O342   O     0.50000   0.81546   0.21026   0.00000  Uiso   1.00
O343   O     0.50000   0.68453   0.21026   0.00000  Uiso   1.00
O344   O     0.50000   0.81547   0.28974   0.00000  Uiso   1.00
O345   O     0.42392   0.75000   0.28044   0.00000  Uiso   1.00
O346   O     0.57608   0.75000   0.21956   0.00000  Uiso   1.00
O347   O     0.42392   0.74999   0.20096   0.00000  Uiso   1.00
O348   O     0.57608   0.75000   0.29904   0.00000  Uiso   1.00
Zn349  Zn    0.50000   0.75000   0.30307   0.00000  Uiso   1.00
Zn350  Zn    0.50000   0.74999   0.19693   0.00000  Uiso   1.00
C351   C     0.83454   0.66400   0.25017   0.00000  Uiso   1.00
C352   C     0.80874   0.71546   0.44401   0.00000  Uiso   1.00
C353   C     0.83337   0.74985   0.02668   0.00000  Uiso   1.00
C354   C     0.83333   0.74991   0.47331   0.00000  Uiso   1.00
C355   C     0.73367   0.74981   0.23752   0.00000  Uiso   1.00
C356   C     0.93299   0.75001   0.26246   0.00000  Uiso   1.00
C357   C     0.67863   0.74959   0.23078   0.00000  Uiso   1.00
C358   C     0.98803   0.74990   0.26918   0.00000  Uiso   1.00
C359   C     0.79767   0.54714   0.27079   0.00000  Uiso   1.00
C360   C     0.87910   0.95199   0.26766   0.00000  Uiso   1.00
C361   C     0.79870   0.59328   0.27138   0.00000  Uiso   1.00
C362   C     0.83246   0.83590   0.24985   0.00000  Uiso   1.00
C363   C     0.87775   0.90584   0.26804   0.00000  Uiso   1.00
C364   C     0.83682   0.61615   0.25051   0.00000  Uiso   1.00
C365   C     0.83142   0.88359   0.24963   0.00000  Uiso   1.00
C366   C     0.87547   0.59303   0.22972   0.00000  Uiso   1.00
C367   C     0.78544   0.90702   0.23087   0.00000  Uiso   1.00
C368   C     0.87391   0.54650   0.22943   0.00000  Uiso   1.00
C369   C     0.78730   0.95354   0.23093   0.00000  Uiso   1.00
C370   C     0.83508   0.52389   0.24966   0.00000  Uiso   1.00
C371   C     0.83390   0.97570   0.24919   0.00000  Uiso   1.00
C372   C     0.91972   0.61640   0.20968   0.00000  Uiso   1.00
C373   C     0.79143   0.73116   0.04694   0.00000  Uiso   1.00
C374   C     0.90869   0.61847   0.15533   0.00000  Uiso   1.00
C375   C     0.73422   0.88363   0.21202   0.00000  Uiso   1.00
C376   C     0.70476   0.86999   0.25266   0.00000  Uiso   1.00
C377   C     0.85788   0.78442   0.45072   0.00000  Uiso   1.00
C378   C     0.79229   0.73145   0.09666   0.00000  Uiso   1.00
C379   C     0.85755   0.78376   0.40106   0.00000  Uiso   1.00
C380   C     0.87444   0.76839   0.10780   0.00000  Uiso   1.00
C381   C     0.80907   0.71623   0.39445   0.00000  Uiso   1.00
C382   C     0.87533   0.76853   0.05832   0.00000  Uiso   1.00
H383   H     0.99131   0.74933   0.19437   0.00000  Uiso   1.00
H384   H     0.87666   0.81223   0.47101   0.00000  Uiso   1.00
H385   H     0.75985   0.71691   0.11160   0.00000  Uiso   1.00
H386   H     0.87662   0.81045   0.38431   0.00000  Uiso   1.00
H387   H     0.90690   0.78298   0.13150   0.00000  Uiso   1.00
H388   H     0.78997   0.68959   0.37248   0.00000  Uiso   1.00
H389   H     0.90913   0.78269   0.04518   0.00000  Uiso   1.00
H390   H     0.78995   0.68762   0.45918   0.00000  Uiso   1.00
H391   H     0.87158   0.63683   0.14328   0.00000  Uiso   1.00
H392   H     0.94136   0.63626   0.14173   0.00000  Uiso   1.00
H393   H     0.90550   0.58416   0.14008   0.00000  Uiso   1.00
H394   H     0.67536   0.75019   0.30559   0.00000  Uiso   1.00
H395   H     0.92642   0.65081   0.22409   0.00000  Uiso   1.00
H396   H     0.95711   0.59806   0.22080   0.00000  Uiso   1.00
H397   H     0.66722   0.85336   0.23784   0.00000  Uiso   1.00
H398   H     0.72849   0.84630   0.27723   0.00000  Uiso   1.00
H399   H     0.69572   0.90001   0.27302   0.00000  Uiso   1.00
H400   H     0.70845   0.90616   0.18756   0.00000  Uiso   1.00
H401   H     0.74139   0.85372   0.19073   0.00000  Uiso   1.00
H402   H     0.76795   0.52951   0.28692   0.00000  Uiso   1.00
H403   H     0.91505   0.96925   0.28215   0.00000  Uiso   1.00
H404   H     0.76923   0.61124   0.28740   0.00000  Uiso   1.00
H405   H     0.91286   0.88739   0.28234   0.00000  Uiso   1.00
H406   H     0.90288   0.52782   0.21347   0.00000  Uiso   1.00
H407   H     0.75260   0.97261   0.21687   0.00000  Uiso   1.00
H408   H     0.75765   0.71694   0.02462   0.00000  Uiso   1.00
N409   N     0.83333   0.74999   0.12623   0.00000  Uiso   1.00
N410   N     0.83333   0.75001   0.37377   0.00000  Uiso   1.00
O411   O     0.83334   0.68453   0.28974   0.00000  Uiso   1.00
O412   O     0.83333   0.81546   0.21026   0.00000  Uiso   1.00
O413   O     0.83334   0.68453   0.21026   0.00000  Uiso   1.00
O414   O     0.83333   0.81547   0.28974   0.00000  Uiso   1.00
O415   O     0.75725   0.75000   0.28044   0.00000  Uiso   1.00
O416   O     0.90942   0.75000   0.21956   0.00000  Uiso   1.00
O417   O     0.75725   0.74999   0.20096   0.00000  Uiso   1.00
O418   O     0.90942   0.75000   0.29904   0.00000  Uiso   1.00
Zn419  Zn    0.83333   0.75000   0.30307   0.00000  Uiso   1.00
Zn420  Zn    0.83333   0.74999   0.19693   0.00000  Uiso   1.00
C421   C     0.16787   0.16400   0.75017   0.00000  Uiso   1.00
C422   C     0.14207   0.21546   0.94401   0.00000  Uiso   1.00
C423   C     0.16670   0.24985   0.52668   0.00000  Uiso   1.00
C424   C     0.16666   0.24991   0.97331   0.00000  Uiso   1.00
C425   C     0.06701   0.24981   0.73752   0.00000  Uiso   1.00
C426   C     0.26633   0.25001   0.76246   0.00000  Uiso   1.00
C427   C     0.01197   0.24959   0.73078   0.00000  Uiso   1.00
C428   C     0.32136   0.24990   0.76918   0.00000  Uiso   1.00
C429   C     0.13100   0.04714   0.77079   0.00000  Uiso   1.00
C430   C     0.21244   0.45199   0.76766   0.00000  Uiso   1.00
C431   C     0.13203   0.09328   0.77138   0.00000  Uiso   1.00
C432   C     0.16579   0.33590   0.74985   0.00000  Uiso   1.00
C433   C     0.21109   0.40584   0.76804   0.00000  Uiso   1.00
C434   C     0.17015   0.11615   0.75051   0.00000  Uiso   1.00
C435   C     0.16476   0.38359   0.74963   0.00000  Uiso   1.00
C436   C     0.20881   0.09303   0.72972   0.00000  Uiso   1.00
C437   C     0.11877   0.40702   0.73087   0.00000  Uiso   1.00
C438   C     0.20724   0.04650   0.72943   0.00000  Uiso   1.00
C439   C     0.12064   0.45354   0.73093   0.00000  Uiso   1.00
C440   C     0.16842   0.02389   0.74966   0.00000  Uiso   1.00
C441   C     0.16724   0.47570   0.74919   0.00000  Uiso   1.00
C442   C     0.25306   0.11640   0.70968   0.00000  Uiso   1.00
C443   C     0.12476   0.23116   0.54694   0.00000  Uiso   1.00
C444   C     0.24202   0.11847   0.65533   0.00000  Uiso   1.00
C445   C     0.06755   0.38363   0.71202   0.00000  Uiso   1.00
C446   C     0.03810   0.36999   0.75266   0.00000  Uiso   1.00
C447   C     0.19122   0.28442   0.95072   0.00000  Uiso   1.00
C448   C     0.12562   0.23145   0.59666   0.00000  Uiso   1.00
C449   C     0.19088   0.28376   0.90106   0.00000  Uiso   1.00
C450   C     0.20778   0.26839   0.60780   0.00000  Uiso   1.00
C451   C     0.14240   0.21623   0.89445   0.00000  Uiso   1.00
C452   C     0.20866   0.26853   0.55832   0.00000  Uiso   1.00
H453   H     0.32465   0.24933   0.69437   0.00000  Uiso   1.00
H454   H     0.20999   0.31223   0.97101   0.00000  Uiso   1.00
H455   H     0.09318   0.21691   0.61160   0.00000  Uiso   1.00
H456   H     0.20996   0.31045   0.88431   0.00000  Uiso   1.00
H457   H     0.24023   0.28298   0.63150   0.00000  Uiso   1.00
H458   H     0.12331   0.18959   0.87248   0.00000  Uiso   1.00
H459   H     0.24247   0.28269   0.54518   0.00000  Uiso   1.00
H460   H     0.12328   0.18762   0.95918   0.00000  Uiso   1.00
H461   H     0.20492   0.13683   0.64328   0.00000  Uiso   1.00
H462   H     0.27469   0.13626   0.64173   0.00000  Uiso   1.00
H463   H     0.23884   0.08416   0.64008   0.00000  Uiso   1.00
H464   H     0.00869   0.25019   0.80559   0.00000  Uiso   1.00
H465   H     0.25976   0.15081   0.72409   0.00000  Uiso   1.00
H466   H     0.29044   0.09806   0.72080   0.00000  Uiso   1.00
H467   H     0.00055   0.35336   0.73784   0.00000  Uiso   1.00
H468   H     0.06183   0.34630   0.77723   0.00000  Uiso   1.00
H469   H     0.02906   0.40001   0.77302   0.00000  Uiso   1.00
H470   H     0.04179   0.40616   0.68756   0.00000  Uiso   1.00
H471   H     0.07473   0.35372   0.69073   0.00000  Uiso   1.00
H472   H     0.10128   0.02951   0.78692   0.00000  Uiso   1.00
H473   H     0.24839   0.46925   0.78215   0.00000  Uiso   1.00
H474   H     0.10256   0.11124   0.78740   0.00000  Uiso   1.00
H475   H     0.24619   0.38739   0.78234   0.00000  Uiso   1.00
H476   H     0.23621   0.02782   0.71347   0.00000  Uiso   1.00
H477   H     0.08593   0.47261   0.71687   0.00000  Uiso   1.00
H478   H     0.09098   0.21694   0.52462   0.00000  Uiso   1.00
N479   N     0.16667   0.24999   0.62623   0.00000  Uiso   1.00
N480   N     0.16667   0.25001   0.87377   0.00000  Uiso   1.00
O481   O     0.16667   0.18453   0.78974   0.00000  Uiso   1.00
O482   O     0.16666   0.31546   0.71026   0.00000  Uiso   1.00
O483   O     0.16667   0.18453   0.71026   0.00000  Uiso   1.00
O484   O     0.16666   0.31547   0.78974   0.00000  Uiso   1.00
O485   O     0.09058   0.25000   0.78044   0.00000  Uiso   1.00
O486   O     0.24275   0.25000   0.71956   0.00000  Uiso   1.00
O487   O     0.09058   0.24999   0.70096   0.00000  Uiso   1.00
O488   O     0.24275   0.25000   0.79904   0.00000  Uiso   1.00
Zn489  Zn    0.16667   0.25000   0.80307   0.00000  Uiso   1.00
Zn490  Zn    0.16667   0.24999   0.69693   0.00000  Uiso   1.00
C491   C     0.50120   0.16400   0.75017   0.00000  Uiso   1.00
C492   C     0.47541   0.21546   0.94401   0.00000  Uiso   1.00
C493   C     0.50003   0.24985   0.52668   0.00000  Uiso   1.00
C494   C     0.50000   0.24991   0.97331   0.00000  Uiso   1.00
C495   C     0.40034   0.24981   0.73752   0.00000  Uiso   1.00
C496   C     0.59966   0.25001   0.76246   0.00000  Uiso   1.00
C497   C     0.34530   0.24959   0.73078   0.00000  Uiso   1.00
C498   C     0.65469   0.24990   0.76918   0.00000  Uiso   1.00
C499   C     0.46434   0.04714   0.77079   0.00000  Uiso   1.00
C500   C     0.54577   0.45199   0.76766   0.00000  Uiso   1.00
C501   C     0.46536   0.09328   0.77138   0.00000  Uiso   1.00
C502   C     0.49913   0.33590   0.74985   0.00000  Uiso   1.00
C503   C     0.54442   0.40584   0.76804   0.00000  Uiso   1.00
C504   C     0.50349   0.11615   0.75051   0.00000  Uiso   1.00
C505   C     0.49809   0.38359   0.74963   0.00000  Uiso   1.00
C506   C     0.54214   0.09303   0.72972   0.00000  Uiso   1.00
C507   C     0.45210   0.40702   0.73087   0.00000  Uiso   1.00
C508   C     0.54058   0.04650   0.72943   0.00000  Uiso   1.00
C509   C     0.45397   0.45354   0.73093   0.00000  Uiso   1.00
C510   C     0.50175   0.02389   0.74966   0.00000  Uiso   1.00
C511   C     0.50057   0.47570   0.74919   0.00000  Uiso   1.00
C512   C     0.58639   0.11640   0.70968   0.00000  Uiso   1.00
C513   C     0.45810   0.23116   0.54694   0.00000  Uiso   1.00
C514   C     0.57535   0.11847   0.65533   0.00000  Uiso   1.00
C515   C     0.40088   0.38363   0.71202   0.00000  Uiso   1.00
C516   C     0.37143   0.36999   0.75266   0.00000  Uiso   1.00
C517   C     0.52455   0.28442   0.95072   0.00000  Uiso   1.00
C518   C     0.45896   0.23145   0.59666   0.00000  Uiso   1.00
C519   C     0.52422   0.28376   0.90106   0.00000  Uiso   1.00
C520   C     0.54111   0.26839   0.60780   0.00000  Uiso   1.00
C521   C     0.47573   0.21623   0.89445   0.00000  Uiso   1.00
C522   C     0.54200   0.26853   0.55832   0.00000  Uiso   1.00
H523   H     0.65798   0.24933   0.69437   0.00000  Uiso   1.00
H524   H     0.54333   0.31223   0.97101   0.00000  Uiso   1.00
H525   H     0.42652   0.21691   0.61160   0.00000  Uiso   1.00
H526   H     0.54329   0.31045   0.88431   0.00000  Uiso   1.00
H527   H     0.57356   0.28298   0.63150   0.00000  Uiso   1.00
H528   H     0.45664   0.18959   0.87248   0.00000  Uiso   1.00
H529   H     0.57580   0.28269   0.54518   0.00000  Uiso   1.00
H530   H     0.45661   0.18762   0.95918   0.00000  Uiso   1.00
H531   H     0.53825   0.13683   0.64328   0.00000  Uiso   1.00
H532   H     0.60802   0.13626   0.64173   0.00000  Uiso   1.00
H533   H     0.57217   0.08416   0.64008   0.00000  Uiso   1.00
H534   H     0.34203   0.25019   0.80559   0.00000  Uiso   1.00
H535   H     0.59309   0.15081   0.72409   0.00000  Uiso   1.00
H536   H     0.62378   0.09806   0.72080   0.00000  Uiso   1.00
H537   H     0.33388   0.35336   0.73784   0.00000  Uiso   1.00
H538   H     0.39516   0.34630   0.77723   0.00000  Uiso   1.00
H539   H     0.36239   0.40001   0.77302   0.00000  Uiso   1.00
H540   H     0.37512   0.40616   0.68756   0.00000  Uiso   1.00
H541   H     0.40806   0.35372   0.69073   0.00000  Uiso   1.00
H542   H     0.43462   0.02951   0.78692   0.00000  Uiso   1.00
H543   H     0.58172   0.46925   0.78215   0.00000  Uiso   1.00
H544   H     0.43590   0.11124   0.78740   0.00000  Uiso   1.00
H545   H     0.57952   0.38739   0.78234   0.00000  Uiso   1.00
H546   H     0.56955   0.02782   0.71347   0.00000  Uiso   1.00
H547   H     0.41926   0.47261   0.71687   0.00000  Uiso   1.00
H548   H     0.42431   0.21694   0.52462   0.00000  Uiso   1.00
N549   N     0.50000   0.24999   0.62623   0.00000  Uiso   1.00
N550   N     0.50000   0.25001   0.87377   0.00000  Uiso   1.00
O551   O     0.50000   0.18453   0.78974   0.00000  Uiso   1.00
O552   O     0.50000   0.31546   0.71026   0.00000  Uiso   1.00
O553   O     0.50000   0.18453   0.71026   0.00000  Uiso   1.00
O554   O     0.50000   0.31547   0.78974   0.00000  Uiso   1.00
O555   O     0.42392   0.25000   0.78044   0.00000  Uiso   1.00
O556   O     0.57608   0.25000   0.71956   0.00000  Uiso   1.00
O557   O     0.42392   0.24999   0.70096   0.00000  Uiso   1.00
O558   O     0.57608   0.25000   0.79904   0.00000  Uiso   1.00
Zn559  Zn    0.50000   0.25000   0.80307   0.00000  Uiso   1.00
Zn560  Zn    0.50000   0.24999   0.69693   0.00000  Uiso   1.00
C561   C     0.83454   0.16400   0.75017   0.00000  Uiso   1.00
C562   C     0.80874   0.21546   0.94401   0.00000  Uiso   1.00
C563   C     0.83337   0.24985   0.52668   0.00000  Uiso   1.00
C564   C     0.83333   0.24991   0.97331   0.00000  Uiso   1.00
C565   C     0.73367   0.24981   0.73752   0.00000  Uiso   1.00
C566   C     0.93299   0.25001   0.76246   0.00000  Uiso   1.00
C567   C     0.67863   0.24959   0.73078   0.00000  Uiso   1.00
C568   C     0.98803   0.24990   0.76918   0.00000  Uiso   1.00
C569   C     0.79767   0.04714   0.77079   0.00000  Uiso   1.00
C570   C     0.87910   0.45199   0.76766   0.00000  Uiso   1.00
C571   C     0.79870   0.09328   0.77138   0.00000  Uiso   1.00
C572   C     0.83246   0.33590   0.74985   0.00000  Uiso   1.00
C573   C     0.87775   0.40584   0.76804   0.00000  Uiso   1.00
C574   C     0.83682   0.11615   0.75051   0.00000  Uiso   1.00
C575   C     0.83142   0.38359   0.74963   0.00000  Uiso   1.00
C576   C     0.87547   0.09303   0.72972   0.00000  Uiso   1.00
C577   C     0.78544   0.40702   0.73087   0.00000  Uiso   1.00
C578   C     0.87391   0.04650   0.72943   0.00000  Uiso   1.00
C579   C     0.78730   0.45354   0.73093   0.00000  Uiso   1.00
C580   C     0.83508   0.02389   0.74966   0.00000  Uiso   1.00
C581   C     0.83390   0.47570   0.74919   0.00000  Uiso   1.00
C582   C     0.91972   0.11640   0.70968   0.00000  Uiso   1.00
C583   C     0.79143   0.23116   0.54694   0.00000  Uiso   1.00
C584   C     0.90869   0.11847   0.65533   0.00000  Uiso   1.00
C585   C     0.73422   0.38363   0.71202   0.00000  Uiso   1.00
C586   C     0.70476   0.36999   0.75266   0.00000  Uiso   1.00
C587   C     0.85788   0.28442   0.95072   0.00000  Uiso   1.00
C588   C     0.79229   0.23145   0.59666   0.00000  Uiso   1.00
C589   C     0.85755   0.28376   0.90106   0.00000  Uiso   1.00
C590   C     0.87444   0.26839   0.60780   0.00000  Uiso   1.00
C591   C     0.80907   0.21623   0.89445   0.00000  Uiso   1.00
C592   C     0.87533   0.26853   0.55832   0.00000  Uiso   1.00
H593   H     0.99131   0.24933   0.69437   0.00000  Uiso   1.00
H594   H     0.87666   0.31223   0.97101   0.00000  Uiso   1.00
H595   H     0.75985   0.21691   0.61160   0.00000  Uiso   1.00
H596   H     0.87662   0.31045   0.88431   0.00000  Uiso   1.00
H597   H     0.90690   0.28298   0.63150   0.00000  Uiso   1.00
H598   H     0.78997   0.18959   0.87248   0.00000  Uiso   1.00
H599   H     0.90913   0.28269   0.54518   0.00000  Uiso   1.00
H600   H     0.78995   0.18762   0.95918   0.00000  Uiso   1.00
H601   H     0.87158   0.13683   0.64328   0.00000  Uiso   1.00
H602   H     0.94136   0.13626   0.64173   0.00000  Uiso   1.00
H603   H     0.90550   0.08416   0.64008   0.00000  Uiso   1.00
H604   H     0.67536   0.25019   0.80559   0.00000  Uiso   1.00
H605   H     0.92642   0.15081   0.72409   0.00000  Uiso   1.00
H606   H     0.95711   0.09806   0.72080   0.00000  Uiso   1.00
H607   H     0.66722   0.35336   0.73784   0.00000  Uiso   1.00
H608   H     0.72849   0.34630   0.77723   0.00000  Uiso   1.00
H609   H     0.69572   0.40001   0.77302   0.00000  Uiso   1.00
H610   H     0.70845   0.40616   0.68756   0.00000  Uiso   1.00
H611   H     0.74139   0.35372   0.69073   0.00000  Uiso   1.00
H612   H     0.76795   0.02951   0.78692   0.00000  Uiso   1.00
H613   H     0.91505   0.46925   0.78215   0.00000  Uiso   1.00
H614   H     0.76923   0.11124   0.78740   0.00000  Uiso   1.00
H615   H     0.91286   0.38739   0.78234   0.00000  Uiso   1.00
H616   H     0.90288   0.02782   0.71347   0.00000  Uiso   1.00
H617   H     0.75260   0.47261   0.71687   0.00000  Uiso   1.00
H618   H     0.75765   0.21694   0.52462   0.00000  Uiso   1.00
N619   N     0.83333   0.24999   0.62623   0.00000  Uiso   1.00
N620   N     0.83333   0.25001   0.87377   0.00000  Uiso   1.00
O621   O     0.83334   0.18453   0.78974   0.00000  Uiso   1.00
O622   O     0.83333   0.31546   0.71026   0.00000  Uiso   1.00
O623   O     0.83334   0.18453   0.71026   0.00000  Uiso   1.00
O624   O     0.83333   0.31547   0.78974   0.00000  Uiso   1.00
O625   O     0.75725   0.25000   0.78044   0.00000  Uiso   1.00
O626   O     0.90942   0.25000   0.71956   0.00000  Uiso   1.00
O627   O     0.75725   0.24999   0.70096   0.00000  Uiso   1.00
O628   O     0.90942   0.25000   0.79904   0.00000  Uiso   1.00
Zn629  Zn    0.83333   0.25000   0.80307   0.00000  Uiso   1.00
Zn630  Zn    0.83333   0.24999   0.69693   0.00000  Uiso   1.00
C631   C     0.16787   0.66400   0.75017   0.00000  Uiso   1.00
C632   C     0.14207   0.71546   0.94401   0.00000  Uiso   1.00
C633   C     0.16670   0.74985   0.52668   0.00000  Uiso   1.00
C634   C     0.16666   0.74991   0.97331   0.00000  Uiso   1.00
C635   C     0.06701   0.74981   0.73752   0.00000  Uiso   1.00
C636   C     0.26633   0.75001   0.76246   0.00000  Uiso   1.00
C637   C     0.01197   0.74959   0.73078   0.00000  Uiso   1.00
C638   C     0.32136   0.74990   0.76918   0.00000  Uiso   1.00
C639   C     0.13100   0.54714   0.77079   0.00000  Uiso   1.00
C640   C     0.21244   0.95199   0.76766   0.00000  Uiso   1.00
C641   C     0.13203   0.59328   0.77138   0.00000  Uiso   1.00
C642   C     0.16579   0.83590   0.74985   0.00000  Uiso   1.00
C643   C     0.21109   0.90584   0.76804   0.00000  Uiso   1.00
C644   C     0.17015   0.61615   0.75051   0.00000  Uiso   1.00
C645   C     0.16476   0.88359   0.74963   0.00000  Uiso   1.00
C646   C     0.20881   0.59303   0.72972   0.00000  Uiso   1.00
C647   C     0.11877   0.90702   0.73087   0.00000  Uiso   1.00
C648   C     0.20724   0.54650   0.72943   0.00000  Uiso   1.00
C649   C     0.12064   0.95354   0.73093   0.00000  Uiso   1.00
C650   C     0.16842   0.52389   0.74966   0.00000  Uiso   1.00
C651   C     0.16724   0.97570   0.74919   0.00000  Uiso   1.00
C652   C     0.25306   0.61640   0.70968   0.00000  Uiso   1.00
C653   C     0.12476   0.73116   0.54694   0.00000  Uiso   1.00
C654   C     0.24202   0.61847   0.65533   0.00000  Uiso   1.00
C655   C     0.06755   0.88363   0.71202   0.00000  Uiso   1.00
C656   C     0.03810   0.86999   0.75266   0.00000  Uiso   1.00
C657   C     0.19122   0.78442   0.95072   0.00000  Uiso   1.00
C658   C     0.12562   0.73145   0.59666   0.00000  Uiso   1.00
C659   C     0.19088   0.78376   0.90106   0.00000  Uiso   1.00
C660   C     0.20778   0.76839   0.60780   0.00000  Uiso   1.00
C661   C     0.14240   0.71623   0.89445   0.00000  Uiso   1.00
C662   C     0.20866   0.76853   0.55832   0.00000  Uiso   1.00
H663   H     0.32465   0.74933   0.69437   0.00000  Uiso   1.00
H664   H     0.20999   0.81223   0.97101   0.00000  Uiso   1.00
H665   H     0.09318   0.71691   0.61160   0.00000  Uiso   1.00
H666   H     0.20996   0.81045   0.88431   0.00000  Uiso   1.00
H667   H     0.24023   0.78298   0.63150   0.00000  Uiso   1.00
H668   H     0.12331   0.68959   0.87248   0.00000  Uiso   1.00
H669   H     0.24247   0.78269   0.54518   0.00000  Uiso   1.00
H670   H     0.12328   0.68762   0.95918   0.00000  Uiso   1.00
H671   H     0.20492   0.63683   0.64328   0.00000  Uiso   1.00
H672   H     0.27469   0.63626   0.64173   0.00000  Uiso   1.00
H673   H     0.23884   0.58416   0.64008   0.00000  Uiso   1.00
H674   H     0.00869   0.75019   0.80559   0.00000  Uiso   1.00
H675   H     0.25976   0.65081   0.72409   0.00000  Uiso   1.00
H676   H     0.29044   0.59806   0.72080   0.00000  Uiso   1.00
H677   H     0.00055   0.85336   0.73784   0.00000  Uiso   1.00
H678   H     0.06183   0.84630   0.77723   0.00000  Uiso   1.00
H679   H     0.02906   0.90001   0.77302   0.00000  Uiso   1.00
H680   H     0.04179   0.90616   0.68756   0.00000  Uiso   1.00
H681   H     0.07473   0.85372   0.69073   0.00000  Uiso   1.00
H682   H     0.10128   0.52951   0.78692   0.00000  Uiso   1.00
H683   H     0.24839   0.96925   0.78215   0.00000  Uiso   1.00
H684   H     0.10256   0.61124   0.78740   0.00000  Uiso   1.00
H685   H     0.24619   0.88739   0.78234   0.00000  Uiso   1.00
H686   H     0.23621   0.52782   0.71347   0.00000  Uiso   1.00
H687   H     0.08593   0.97261   0.71687   0.00000  Uiso   1.00
H688   H     0.09098   0.71694   0.52462   0.00000  Uiso   1.00
N689   N     0.16667   0.74999   0.62623   0.00000  Uiso   1.00
N690   N     0.16667   0.75001   0.87377   0.00000  Uiso   1.00
O691   O     0.16667   0.68453   0.78974   0.00000  Uiso   1.00
O692   O     0.16666   0.81546   0.71026   0.00000  Uiso   1.00
O693   O     0.16667   0.68453   0.71026   0.00000  Uiso   1.00
O694   O     0.16666   0.81547   0.78974   0.00000  Uiso   1.00
O695   O     0.09058   0.75000   0.78044   0.00000  Uiso   1.00
O696   O     0.24275   0.75000   0.71956   0.00000  Uiso   1.00
O697   O     0.09058   0.74999   0.70096   0.00000  Uiso   1.00
O698   O     0.24275   0.75000   0.79904   0.00000  Uiso   1.00
Zn699  Zn    0.16667   0.75000   0.80307   0.00000  Uiso   1.00
Zn700  Zn    0.16667   0.74999   0.69693   0.00000  Uiso   1.00
C701   C     0.50120   0.66400   0.75017   0.00000  Uiso   1.00
C702   C     0.47541   0.71546   0.94401   0.00000  Uiso   1.00
C703   C     0.50003   0.74985   0.52668   0.00000  Uiso   1.00
C704   C     0.50000   0.74991   0.97331   0.00000  Uiso   1.00
C705   C     0.40034   0.74981   0.73752   0.00000  Uiso   1.00
C706   C     0.59966   0.75001   0.76246   0.00000  Uiso   1.00
C707   C     0.34530   0.74959   0.73078   0.00000  Uiso   1.00
C708   C     0.65469   0.74990   0.76918   0.00000  Uiso   1.00
C709   C     0.46434   0.54714   0.77079   0.00000  Uiso   1.00
C710   C     0.54577   0.95199   0.76766   0.00000  Uiso   1.00
C711   C     0.46536   0.59328   0.77138   0.00000  Uiso   1.00
C712   C     0.49913   0.83590   0.74985   0.00000  Uiso   1.00
C713   C     0.54442   0.90584   0.76804   0.00000  Uiso   1.00
C714   C     0.50349   0.61615   0.75051   0.00000  Uiso   1.00
C715   C     0.49809   0.88359   0.74963   0.00000  Uiso   1.00
C716   C     0.54214   0.59303   0.72972   0.00000  Uiso   1.00
C717   C     0.45210   0.90702   0.73087   0.00000  Uiso   1.00
C718   C     0.54058   0.54650   0.72943   0.00000  Uiso   1.00
C719   C     0.45397   0.95354   0.73093   0.00000  Uiso   1.00
C720   C     0.50175   0.52389   0.74966   0.00000  Uiso   1.00
C721   C     0.50057   0.97570   0.74919   0.00000  Uiso   1.00
C722   C     0.58639   0.61640   0.70968   0.00000  Uiso   1.00
C723   C     0.45810   0.73116   0.54694   0.00000  Uiso   1.00
C724   C     0.57535   0.61847   0.65533   0.00000  Uiso   1.00
C725   C     0.40088   0.88363   0.71202   0.00000  Uiso   1.00
C726   C     0.37143   0.86999   0.75266   0.00000  Uiso   1.00
C727   C     0.52455   0.78442   0.95072   0.00000  Uiso   1.00
C728   C     0.45896   0.73145   0.59666   0.00000  Uiso   1.00
C729   C     0.52422   0.78376   0.90106   0.00000  Uiso   1.00
C730   C     0.54111   0.76839   0.60780   0.00000  Uiso   1.00
C731   C     0.47573   0.71623   0.89445   0.00000  Uiso   1.00
C732   C     0.54200   0.76853   0.55832   0.00000  Uiso   1.00
H733   H     0.65798   0.74933   0.69437   0.00000  Uiso   1.00
H734   H     0.54333   0.81223   0.97101   0.00000  Uiso   1.00
H735   H     0.42652   0.71691   0.61160   0.00000  Uiso   1.00
H736   H     0.54329   0.81045   0.88431   0.00000  Uiso   1.00
H737   H     0.57356   0.78298   0.63150   0.00000  Uiso   1.00
H738   H     0.45664   0.68959   0.87248   0.00000  Uiso   1.00
H739   H     0.57580   0.78269   0.54518   0.00000  Uiso   1.00
H740   H     0.45661   0.68762   0.95918   0.00000  Uiso   1.00
H741   H     0.53825   0.63683   0.64328   0.00000  Uiso   1.00
H742   H     0.60802   0.63626   0.64173   0.00000  Uiso   1.00
H743   H     0.57217   0.58416   0.64008   0.00000  Uiso   1.00
H744   H     0.34203   0.75019   0.80559   0.00000  Uiso   1.00
H745   H     0.59309   0.65081   0.72409   0.00000  Uiso   1.00
H746   H     0.62378   0.59806   0.72080   0.00000  Uiso   1.00
H747   H     0.33388   0.85336   0.73784   0.00000  Uiso   1.00
H748   H     0.39516   0.84630   0.77723   0.00000  Uiso   1.00
H749   H     0.36239   0.90001   0.77302   0.00000  Uiso   1.00
H750   H     0.37512   0.90616   0.68756   0.00000  Uiso   1.00
H751   H     0.40806   0.85372   0.69073   0.00000  Uiso   1.00
H752   H     0.43462   0.52951   0.78692   0.00000  Uiso   1.00
H753   H     0.58172   0.96925   0.78215   0.00000  Uiso   1.00
H754   H     0.43590   0.61124   0.78740   0.00000  Uiso   1.00
H755   H     0.57952   0.88739   0.78234   0.00000  Uiso   1.00
H756   H     0.56955   0.52782   0.71347   0.00000  Uiso   1.00
H757   H     0.41926   0.97261   0.71687   0.00000  Uiso   1.00
H758   H     0.42431   0.71694   0.52462   0.00000  Uiso   1.00
N759   N     0.50000   0.74999   0.62623   0.00000  Uiso   1.00
N760   N     0.50000   0.75001   0.87377   0.00000  Uiso   1.00
O761   O     0.50000   0.68453   0.78974   0.00000  Uiso   1.00
O762   O     0.50000   0.81546   0.71026   0.00000  Uiso   1.00
O763   O     0.50000   0.68453   0.71026   0.00000  Uiso   1.00
O764   O     0.50000   0.81547   0.78974   0.00000  Uiso   1.00
O765   O     0.42392   0.75000   0.78044   0.00000  Uiso   1.00
O766   O     0.57608   0.75000   0.71956   0.00000  Uiso   1.00
O767   O     0.42392   0.74999   0.70096   0.00000  Uiso   1.00
O768   O     0.57608   0.75000   0.79904   0.00000  Uiso   1.00
Zn769  Zn    0.50000   0.75000   0.80307   0.00000  Uiso   1.00
Zn770  Zn    0.50000   0.74999   0.69693   0.00000  Uiso   1.00
C771   C     0.83454   0.66400   0.75017   0.00000  Uiso   1.00
C772   C     0.80874   0.71546   0.94401   0.00000  Uiso   1.00
C773   C     0.83337   0.74985   0.52668   0.00000  Uiso   1.00
C774   C     0.83333   0.74991   0.97331   0.00000  Uiso   1.00
C775   C     0.73367   0.74981   0.73752   0.00000  Uiso   1.00
C776   C     0.93299   0.75001   0.76246   0.00000  Uiso   1.00
C777   C     0.67863   0.74959   0.73078   0.00000  Uiso   1.00
C778   C     0.98803   0.74990   0.76918   0.00000  Uiso   1.00
C779   C     0.79767   0.54714   0.77079   0.00000  Uiso   1.00
C780   C     0.87910   0.95199   0.76766   0.00000  Uiso   1.00
C781   C     0.79870   0.59328   0.77138   0.00000  Uiso   1.00
C782   C     0.83246   0.83590   0.74985   0.00000  Uiso   1.00
C783   C     0.87775   0.90584   0.76804   0.00000  Uiso   1.00
C784   C     0.83682   0.61615   0.75051   0.00000  Uiso   1.00
C785   C     0.83142   0.88359   0.74963   0.00000  Uiso   1.00
C786   C     0.87547   0.59303   0.72972   0.00000  Uiso   1.00
C787   C     0.78544   0.90702   0.73087   0.00000  Uiso   1.00
C788   C     0.87391   0.54650   0.72943   0.00000  Uiso   1.00
C789   C     0.78730   0.95354   0.73093   0.00000  Uiso   1.00
C790   C     0.83508   0.52389   0.74966   0.00000  Uiso   1.00
C791   C     0.83390   0.97570   0.74919   0.00000  Uiso   1.00
C792   C     0.91972   0.61640   0.70968   0.00000  Uiso   1.00
C793   C     0.79143   0.73116   0.54694   0.00000  Uiso   1.00
C794   C     0.90869   0.61847   0.65533   0.00000  Uiso   1.00
C795   C     0.73422   0.88363   0.71202   0.00000  Uiso   1.00
C796   C     0.70476   0.86999   0.75266   0.00000  Uiso   1.00
C797   C     0.85788   0.78442   0.95072   0.00000  Uiso   1.00
C798   C     0.79229   0.73145   0.59666   0.00000  Uiso   1.00
C799   C     0.85755   0.78376   0.90106   0.00000  Uiso   1.00
C800   C     0.87444   0.76839   0.60780   0.00000  Uiso   1.00
C801   C     0.80907   0.71623   0.89445   0.00000  Uiso   1.00
C802   C     0.87533   0.76853   0.55832   0.00000  Uiso   1.00
H803   H     0.99131   0.74933   0.69437   0.00000  Uiso   1.00
H804   H     0.87666   0.81223   0.97101   0.00000  Uiso   1.00
H805   H     0.75985   0.71691   0.61160   0.00000  Uiso   1.00
H806   H     0.87662   0.81045   0.88431   0.00000  Uiso   1.00
H807   H     0.90690   0.78298   0.63150   0.00000  Uiso   1.00
H808   H     0.78997   0.68959   0.87248   0.00000  Uiso   1.00
H809   H     0.90913   0.78269   0.54518   0.00000  Uiso   1.00
H810   H     0.78995   0.68762   0.95918   0.00000  Uiso   1.00
H811   H     0.87158   0.63683   0.64328   0.00000  Uiso   1.00
H812   H     0.94136   0.63626   0.64173   0.00000  Uiso   1.00
H813   H     0.90550   0.58416   0.64008   0.00000  Uiso   1.00
H814   H     0.67536   0.75019   0.80559   0.00000  Uiso   1.00
H815   H     0.92642   0.65081   0.72409   0.00000  Uiso   1.00
H816   H     0.95711   0.59806   0.72080   0.00000  Uiso   1.00
H817   H     0.66722   0.85336   0.73784   0.00000  Uiso   1.00
H818   H     0.72849   0.84630   0.77723   0.00000  Uiso   1.00
H819   H     0.69572   0.90001   0.77302   0.00000  Uiso   1.00
H820   H     0.70845   0.90616   0.68756   0.00000  Uiso   1.00
H821   H     0.74139   0.85372   0.69073   0.00000  Uiso   1.00
H822   H     0.76795   0.52951   0.78692   0.00000  Uiso   1.00
H823   H     0.91505   0.96925   0.78215   0.00000  Uiso   1.00
H824   H     0.76923   0.61124   0.78740   0.00000  Uiso   1.00
H825   H     0.91286   0.88739   0.78234   0.00000  Uiso   1.00
H826   H     0.90288   0.52782   0.71347   0.00000  Uiso   1.00
H827   H     0.75260   0.97261   0.71687   0.00000  Uiso   1.00
H828   H     0.75765   0.71694   0.52462   0.00000  Uiso   1.00
N829   N     0.83333   0.74999   0.62623   0.00000  Uiso   1.00
N830   N     0.83333   0.75001   0.87377   0.00000  Uiso   1.00
O831   O     0.83334   0.68453   0.78974   0.00000  Uiso   1.00
O832   O     0.83333   0.81546   0.71026   0.00000  Uiso   1.00
O833   O     0.83334   0.68453   0.71026   0.00000  Uiso   1.00
O834   O     0.83333   0.81547   0.78974   0.00000  Uiso   1.00
O835   O     0.75725   0.75000   0.78044   0.00000  Uiso   1.00
O836   O     0.90942   0.75000   0.71956   0.00000  Uiso   1.00
O837   O     0.75725   0.74999   0.70096   0.00000  Uiso   1.00
O838   O     0.90942   0.75000   0.79904   0.00000  Uiso   1.00
Zn839  Zn    0.83333   0.75000   0.80307   0.00000  Uiso   1.00
Zn840  Zn    0.83333   0.74999   0.69693   0.00000  Uiso   1.00
loop_
_geom_bond_atom_site_label_1
_geom_bond_atom_site_label_2
_geom_bond_distance
_geom_bond_site_symmetry_2
_ccdc_geom_bond_type
C1     O63     1.283   .     A
C1     C14     1.431   .     S
C1     O61     1.284   .     A
C2     C4      1.411   .     A
C2     C31     1.407   .     A
C2     H40     1.082   .     S
C3     C23     1.411   .     A
C3     C32     1.410   .     A
C3     C424    1.514   1_554 S
C4     C27     1.411   .     A
C4     C423    1.514   .     S
C5     O67     1.278   .     A
C5     O65     1.276   .     A
C5     C7      1.401   .     S
C6     O68     1.278   .     A
C6     O66     1.275   .     A
C6     C8      1.401   .     S
C7     C148    1.330   1_455 S
C7     H173    1.088   1_455 S
C8     C77     1.330   .     S
C8     H114    1.088   .     S
C9     C20     1.395   .     A
C9     C11     1.378   .     A
C9     H52     1.084   .     S
C10    C21     1.396   .     A
C10    H53     1.084   .     S
C10    C13     1.379   .     A
C11    H54     1.084   .     S
C11    C14     1.397   .     A
C12    C15     1.425   .     S
C12    O64     1.282   .     A
C12    O62     1.282   .     A
C13    C15     1.395   .     A
C13    H55     1.084   .     S
C14    C16     1.413   .     A
C15    C17     1.410   .     A
C16    C18     1.390   .     A
C16    C22     1.516   .     S
C17    C25     1.515   .     S
C17    C19     1.390   .     A
C18    H56     1.085   .     S
C18    C20     1.397   .     A
C19    C21     1.398   .     A
C19    H57     1.084   .     S
C20    C231    1.440   1_545 S
C21    C230    1.440   .     S
C22    H45     1.110   .     S
C22    C24     1.526   .     S
C22    H46     1.112   .     S
C23    H58     1.082   .     S
C23    C28     1.407   .     A
C24    H42     1.110   .     S
C24    H41     1.110   .     S
C24    H43     1.111   .     S
C25    H51     1.110   .     S
C25    H50     1.112   .     S
C25    C26     1.526   .     S
C26    H48     1.110   .     S
C26    H49     1.111   .     S
C26    H47     1.111   .     S
C27    C29     1.407   .     A
C27    H34     1.082   .     S
C28    N59     1.363   .     A
C28    H35     1.082   .     S
C29    N60     1.363   .     A
C29    H36     1.082   .     S
C30    N59     1.363   .     A
C30    C32     1.407   .     A
C30    H37     1.081   .     S
C31    N60     1.363   .     A
C31    H38     1.082   .     S
C32    H39     1.082   .     S
H33    C77     1.088   .     S
H44    C148    1.088   1_455 S
N59    Zn70    2.005   .     S
N60    Zn69    2.005   .     S
O61    Zn69    1.992   .     S
O62    Zn70    1.992   .     S
O63    Zn70    1.991   .     S
O64    Zn69    1.991   .     S
O65    Zn69    1.967   .     S
O66    Zn70    1.967   .     S
O67    Zn70    1.979   .     S
O68    Zn69    1.979   .     S
C71    O133    1.283   .     A
C71    C84     1.431   .     S
C71    O131    1.284   .     A
C72    C74     1.411   .     A
C72    C101    1.407   .     A
C72    H110    1.082   .     S
C73    C93     1.411   .     A
C73    C102    1.410   .     A
C73    C494    1.514   1_554 S
C74    C97     1.411   .     A
C74    C493    1.514   .     S
C75    O137    1.278   .     A
C75    O135    1.276   .     A
C75    C77     1.401   .     S
C76    O138    1.278   .     A
C76    O136    1.275   .     A
C76    C78     1.401   .     S
C78    C147    1.330   .     S
C78    H184    1.088   .     S
C79    C90     1.395   .     A
C79    C81     1.378   .     A
C79    H122    1.084   .     S
C80    C91     1.396   .     A
C80    H123    1.084   .     S
C80    C83     1.379   .     A
C81    H124    1.084   .     S
C81    C84     1.397   .     A
C82    C85     1.425   .     S
C82    O134    1.282   .     A
C82    O132    1.282   .     A
C83    C85     1.395   .     A
C83    H125    1.084   .     S
C84    C86     1.413   .     A
C85    C87     1.410   .     A
C86    C88     1.390   .     A
C86    C92     1.516   .     S
C87    C95     1.515   .     S
C87    C89     1.390   .     A
C88    H126    1.085   .     S
C88    C90     1.397   .     A
C89    C91     1.398   .     A
C89    H127    1.084   .     S
C90    C301    1.440   1_545 S
C91    C300    1.440   .     S
C92    H115    1.110   .     S
C92    C94     1.526   .     S
C92    H116    1.112   .     S
C93    H128    1.082   .     S
C93    C98     1.407   .     A
C94    H112    1.110   .     S
C94    H111    1.110   .     S
C94    H113    1.111   .     S
C95    H121    1.110   .     S
C95    H120    1.112   .     S
C95    C96     1.526   .     S
C96    H118    1.110   .     S
C96    H119    1.111   .     S
C96    H117    1.111   .     S
C97    C99     1.407   .     A
C97    H104    1.082   .     S
C98    N129    1.363   .     A
C98    H105    1.082   .     S
C99    N130    1.363   .     A
C99    H106    1.082   .     S
C100   N129    1.363   .     A
C100   C102    1.407   .     A
C100   H107    1.081   .     S
C101   N130    1.363   .     A
C101   H108    1.082   .     S
C102   H109    1.082   .     S
H103   C147    1.088   .     S
N129   Zn140   2.005   .     S
N130   Zn139   2.005   .     S
O131   Zn139   1.992   .     S
O132   Zn140   1.992   .     S
O133   Zn140   1.991   .     S
O134   Zn139   1.991   .     S
O135   Zn139   1.967   .     S
O136   Zn140   1.967   .     S
O137   Zn140   1.979   .     S
O138   Zn139   1.979   .     S
C141   O203    1.283   .     A
C141   C154    1.431   .     S
C141   O201    1.284   .     A
C142   C144    1.411   .     A
C142   C171    1.407   .     A
C142   H180    1.082   .     S
C143   C163    1.411   .     A
C143   C172    1.410   .     A
C143   C564    1.514   1_554 S
C144   C167    1.411   .     A
C144   C563    1.514   .     S
C145   O207    1.278   .     A
C145   O205    1.276   .     A
C145   C147    1.401   .     S
C146   O208    1.278   .     A
C146   O206    1.275   .     A
C146   C148    1.401   .     S
C148   C7      1.330   1_655 S
C148   H44     1.088   1_655 S
C149   C160    1.395   .     A
C149   C151    1.378   .     A
C149   H192    1.084   .     S
C150   C161    1.396   .     A
C150   H193    1.084   .     S
C150   C153    1.379   .     A
C151   H194    1.084   .     S
C151   C154    1.397   .     A
C152   C155    1.425   .     S
C152   O204    1.282   .     A
C152   O202    1.282   .     A
C153   C155    1.395   .     A
C153   H195    1.084   .     S
C154   C156    1.413   .     A
C155   C157    1.410   .     A
C156   C158    1.390   .     A
C156   C162    1.516   .     S
C157   C165    1.515   .     S
C157   C159    1.390   .     A
C158   H196    1.085   .     S
C158   C160    1.397   .     A
C159   C161    1.398   .     A
C159   H197    1.084   .     S
C160   C371    1.440   1_545 S
C161   C370    1.440   .     S
C162   H185    1.110   .     S
C162   C164    1.526   .     S
C162   H186    1.112   .     S
C163   H198    1.082   .     S
C163   C168    1.407   .     A
C164   H182    1.110   .     S
C164   H181    1.110   .     S
C164   H183    1.111   .     S
C165   H191    1.110   .     S
C165   H190    1.112   .     S
C165   C166    1.526   .     S
C166   H188    1.110   .     S
C166   H189    1.111   .     S
C166   H187    1.111   .     S
C167   C169    1.407   .     A
C167   H174    1.082   .     S
C168   N199    1.363   .     A
C168   H175    1.082   .     S
C169   N200    1.363   .     A
C169   H176    1.082   .     S
C170   N199    1.363   .     A
C170   C172    1.407   .     A
C170   H177    1.081   .     S
C171   N200    1.363   .     A
C171   H178    1.082   .     S
C172   H179    1.082   .     S
H173   C7      1.088   1_655 S
N199   Zn210   2.005   .     S
N200   Zn209   2.005   .     S
O201   Zn209   1.992   .     S
O202   Zn210   1.992   .     S
O203   Zn210   1.991   .     S
O204   Zn209   1.991   .     S
O205   Zn209   1.967   .     S
O206   Zn210   1.967   .     S
O207   Zn210   1.979   .     S
O208   Zn209   1.979   .     S
C211   O273    1.283   .     A
C211   C224    1.431   .     S
C211   O271    1.284   .     A
C212   C214    1.411   .     A
C212   C241    1.407   .     A
C212   H250    1.082   .     S
C213   C233    1.411   .     A
C213   C242    1.410   .     A
C213   C634    1.514   1_554 S
C214   C237    1.411   .     A
C214   C633    1.514   .     S
C215   O277    1.278   .     A
C215   O275    1.276   .     A
C215   C217    1.401   .     S
C216   O278    1.278   .     A
C216   O276    1.275   .     A
C216   C218    1.401   .     S
C217   C358    1.330   1_455 S
C217   H383    1.088   1_455 S
C218   C287    1.330   .     S
C218   H324    1.088   .     S
C219   C230    1.395   .     A
C219   C221    1.378   .     A
C219   H262    1.084   .     S
C220   C231    1.396   .     A
C220   H263    1.084   .     S
C220   C223    1.379   .     A
C221   H264    1.084   .     S
C221   C224    1.397   .     A
C222   C225    1.425   .     S
C222   O274    1.282   .     A
C222   O272    1.282   .     A
C223   C225    1.395   .     A
C223   H265    1.084   .     S
C224   C226    1.413   .     A
C225   C227    1.410   .     A
C226   C228    1.390   .     A
C226   C232    1.516   .     S
C227   C235    1.515   .     S
C227   C229    1.390   .     A
C228   H266    1.085   .     S
C228   C230    1.397   .     A
C229   C231    1.398   .     A
C229   H267    1.084   .     S
C231   C20     1.440   1_565 S
C232   H255    1.110   .     S
C232   C234    1.526   .     S
C232   H256    1.112   .     S
C233   H268    1.082   .     S
C233   C238    1.407   .     A
C234   H252    1.110   .     S
C234   H251    1.110   .     S
C234   H253    1.111   .     S
C235   H261    1.110   .     S
C235   H260    1.112   .     S
C235   C236    1.526   .     S
C236   H258    1.110   .     S
C236   H259    1.111   .     S
C236   H257    1.111   .     S
C237   C239    1.407   .     A
C237   H244    1.082   .     S
C238   N269    1.363   .     A
C238   H245    1.082   .     S
C239   N270    1.363   .     A
C239   H246    1.082   .     S
C240   N269    1.363   .     A
C240   C242    1.407   .     A
C240   H247    1.081   .     S
C241   N270    1.363   .     A
C241   H248    1.082   .     S
C242   H249    1.082   .     S
H243   C287    1.088   .     S
H254   C358    1.088   1_455 S
N269   Zn280   2.005   .     S
N270   Zn279   2.005   .     S
O271   Zn279   1.992   .     S
O272   Zn280   1.992   .     S
O273   Zn280   1.991   .     S
O274   Zn279   1.991   .     S
O275   Zn279   1.967   .     S
O276   Zn280   1.967   .     S
O277   Zn280   1.979   .     S
O278   Zn279   1.979   .     S
C281   O343    1.283   .     A
C281   C294    1.431   .     S
C281   O341    1.284   .     A
C282   C284    1.411   .     A
C282   C311    1.407   .     A
C282   H320    1.082   .     S
C283   C303    1.411   .     A
C283   C312    1.410   .     A
C283   C704    1.514   1_554 S
C284   C307    1.411   .     A
C284   C703    1.514   .     S
C285   O347    1.278   .     A
C285   O345    1.276   .     A
C285   C287    1.401   .     S
C286   O348    1.278   .     A
C286   O346    1.275   .     A
C286   C288    1.401   .     S
C288   C357    1.330   .     S
C288   H394    1.088   .     S
C289   C300    1.395   .     A
C289   C291    1.378   .     A
C289   H332    1.084   .     S
C290   C301    1.396   .     A
C290   H333    1.084   .     S
C290   C293    1.379   .     A
C291   H334    1.084   .     S
C291   C294    1.397   .     A
C292   C295    1.425   .     S
C292   O344    1.282   .     A
C292   O342    1.282   .     A
C293   C295    1.395   .     A
C293   H335    1.084   .     S
C294   C296    1.413   .     A
C295   C297    1.410   .     A
C296   C298    1.390   .     A
C296   C302    1.516   .     S
C297   C305    1.515   .     S
C297   C299    1.390   .     A
C298   H336    1.085   .     S
C298   C300    1.397   .     A
C299   C301    1.398   .     A
C299   H337    1.084   .     S
C301   C90     1.440   1_565 S
C302   H325    1.110   .     S
C302   C304    1.526   .     S
C302   H326    1.112   .     S
C303   H338    1.082   .     S
C303   C308    1.407   .     A
C304   H322    1.110   .     S
C304   H321    1.110   .     S
C304   H323    1.111   .     S
C305   H331    1.110   .     S
C305   H330    1.112   .     S
C305   C306    1.526   .     S
C306   H328    1.110   .     S
C306   H329    1.111   .     S
C306   H327    1.111   .     S
C307   C309    1.407   .     A
C307   H314    1.082   .     S
C308   N339    1.363   .     A
C308   H315    1.082   .     S
C309   N340    1.363   .     A
C309   H316    1.082   .     S
C310   N339    1.363   .     A
C310   C312    1.407   .     A
C310   H317    1.081   .     S
C311   N340    1.363   .     A
C311   H318    1.082   .     S
C312   H319    1.082   .     S
H313   C357    1.088   .     S
N339   Zn350   2.005   .     S
N340   Zn349   2.005   .     S
O341   Zn349   1.992   .     S
O342   Zn350   1.992   .     S
O343   Zn350   1.991   .     S
O344   Zn349   1.991   .     S
O345   Zn349   1.967   .     S
O346   Zn350   1.967   .     S
O347   Zn350   1.979   .     S
O348   Zn349   1.979   .     S
C351   O413    1.283   .     A
C351   C364    1.431   .     S
C351   O411    1.284   .     A
C352   C354    1.411   .     A
C352   C381    1.407   .     A
C352   H390    1.082   .     S
C353   C373    1.411   .     A
C353   C382    1.410   .     A
C353   C774    1.514   1_554 S
C354   C377    1.411   .     A
C354   C773    1.514   .     S
C355   O417    1.278   .     A
C355   O415    1.276   .     A
C355   C357    1.401   .     S
C356   O418    1.278   .     A
C356   O416    1.275   .     A
C356   C358    1.401   .     S
C358   C217    1.330   1_655 S
C358   H254    1.088   1_655 S
C359   C370    1.395   .     A
C359   C361    1.378   .     A
C359   H402    1.084   .     S
C360   C371    1.396   .     A
C360   H403    1.084   .     S
C360   C363    1.379   .     A
C361   H404    1.084   .     S
C361   C364    1.397   .     A
C362   C365    1.425   .     S
C362   O414    1.282   .     A
C362   O412    1.282   .     A
C363   C365    1.395   .     A
C363   H405    1.084   .     S
C364   C366    1.413   .     A
C365   C367    1.410   .     A
C366   C368    1.390   .     A
C366   C372    1.516   .     S
C367   C375    1.515   .     S
C367   C369    1.390   .     A
C368   H406    1.085   .     S
C368   C370    1.397   .     A
C369   C371    1.398   .     A
C369   H407    1.084   .     S
C371   C160    1.440   1_565 S
C372   H395    1.110   .     S
C372   C374    1.526   .     S
C372   H396    1.112   .     S
C373   H408    1.082   .     S
C373   C378    1.407   .     A
C374   H392    1.110   .     S
C374   H391    1.110   .     S
C374   H393    1.111   .     S
C375   H401    1.110   .     S
C375   H400    1.112   .     S
C375   C376    1.526   .     S
C376   H398    1.110   .     S
C376   H399    1.111   .     S
C376   H397    1.111   .     S
C377   C379    1.407   .     A
C377   H384    1.082   .     S
C378   N409    1.363   .     A
C378   H385    1.082   .     S
C379   N410    1.363   .     A
C379   H386    1.082   .     S
C380   N409    1.363   .     A
C380   C382    1.407   .     A
C380   H387    1.081   .     S
C381   N410    1.363   .     A
C381   H388    1.082   .     S
C382   H389    1.082   .     S
H383   C217    1.088   1_655 S
N409   Zn420   2.005   .     S
N410   Zn419   2.005   .     S
O411   Zn419   1.992   .     S
O412   Zn420   1.992   .     S
O413   Zn420   1.991   .     S
O414   Zn419   1.991   .     S
O415   Zn419   1.967   .     S
O416   Zn420   1.967   .     S
O417   Zn420   1.979   .     S
O418   Zn419   1.979   .     S
C421   O483    1.283   .     A
C421   C434    1.431   .     S
C421   O481    1.284   .     A
C422   C424    1.411   .     A
C422   C451    1.407   .     A
C422   H460    1.082   .     S
C423   C443    1.411   .     A
C423   C452    1.410   .     A
C424   C447    1.411   .     A
C424   C3      1.514   1_556 S
C425   O487    1.278   .     A
C425   O485    1.276   .     A
C425   C427    1.401   .     S
C426   O488    1.278   .     A
C426   O486    1.275   .     A
C426   C428    1.401   .     S
C427   C568    1.330   1_455 S
C427   H593    1.088   1_455 S
C428   C497    1.330   .     S
C428   H534    1.088   .     S
C429   C440    1.395   .     A
C429   C431    1.378   .     A
C429   H472    1.084   .     S
C430   C441    1.396   .     A
C430   H473    1.084   .     S
C430   C433    1.379   .     A
C431   H474    1.084   .     S
C431   C434    1.397   .     A
C432   C435    1.425   .     S
C432   O484    1.282   .     A
C432   O482    1.282   .     A
C433   C435    1.395   .     A
C433   H475    1.084   .     S
C434   C436    1.413   .     A
C435   C437    1.410   .     A
C436   C438    1.390   .     A
C436   C442    1.516   .     S
C437   C445    1.515   .     S
C437   C439    1.390   .     A
C438   H476    1.085   .     S
C438   C440    1.397   .     A
C439   C441    1.398   .     A
C439   H477    1.084   .     S
C440   C651    1.440   1_545 S
C441   C650    1.440   .     S
C442   H465    1.110   .     S
C442   C444    1.526   .     S
C442   H466    1.112   .     S
C443   H478    1.082   .     S
C443   C448    1.407   .     A
C444   H462    1.110   .     S
C444   H461    1.110   .     S
C444   H463    1.111   .     S
C445   H471    1.110   .     S
C445   H470    1.112   .     S
C445   C446    1.526   .     S
C446   H468    1.110   .     S
C446   H469    1.111   .     S
C446   H467    1.111   .     S
C447   C449    1.407   .     A
C447   H454    1.082   .     S
C448   N479    1.363   .     A
C448   H455    1.082   .     S
C449   N480    1.363   .     A
C449   H456    1.082   .     S
C450   N479    1.363   .     A
C450   C452    1.407   .     A
C450   H457    1.081   .     S
C451   N480    1.363   .     A
C451   H458    1.082   .     S
C452   H459    1.082   .     S
H453   C497    1.088   .     S
H464   C568    1.088   1_455 S
N479   Zn490   2.005   .     S
N480   Zn489   2.005   .     S
O481   Zn489   1.992   .     S
O482   Zn490   1.992   .     S
O483   Zn490   1.991   .     S
O484   Zn489   1.991   .     S
O485   Zn489   1.967   .     S
O486   Zn490   1.967   .     S
O487   Zn490   1.979   .     S
O488   Zn489   1.979   .     S
C491   O553    1.283   .     A
C491   C504    1.431   .     S
C491   O551    1.284   .     A
C492   C494    1.411   .     A
C492   C521    1.407   .     A
C492   H530    1.082   .     S
C493   C513    1.411   .     A
C493   C522    1.410   .     A
C494   C517    1.411   .     A
C494   C73     1.514   1_556 S
C495   O557    1.278   .     A
C495   O555    1.276   .     A
C495   C497    1.401   .     S
C496   O558    1.278   .     A
C496   O556    1.275   .     A
C496   C498    1.401   .     S
C498   C567    1.330   .     S
C498   H604    1.088   .     S
C499   C510    1.395   .     A
C499   C501    1.378   .     A
C499   H542    1.084   .     S
C500   C511    1.396   .     A
C500   H543    1.084   .     S
C500   C503    1.379   .     A
C501   H544    1.084   .     S
C501   C504    1.397   .     A
C502   C505    1.425   .     S
C502   O554    1.282   .     A
C502   O552    1.282   .     A
C503   C505    1.395   .     A
C503   H545    1.084   .     S
C504   C506    1.413   .     A
C505   C507    1.410   .     A
C506   C508    1.390   .     A
C506   C512    1.516   .     S
C507   C515    1.515   .     S
C507   C509    1.390   .     A
C508   H546    1.085   .     S
C508   C510    1.397   .     A
C509   C511    1.398   .     A
C509   H547    1.084   .     S
C510   C721    1.440   1_545 S
C511   C720    1.440   .     S
C512   H535    1.110   .     S
C512   C514    1.526   .     S
C512   H536    1.112   .     S
C513   H548    1.082   .     S
C513   C518    1.407   .     A
C514   H532    1.110   .     S
C514   H531    1.110   .     S
C514   H533    1.111   .     S
C515   H541    1.110   .     S
C515   H540    1.112   .     S
C515   C516    1.526   .     S
C516   H538    1.110   .     S
C516   H539    1.111   .     S
C516   H537    1.111   .     S
C517   C519    1.407   .     A
C517   H524    1.082   .     S
C518   N549    1.363   .     A
C518   H525    1.082   .     S
C519   N550    1.363   .     A
C519   H526    1.082   .     S
C520   N549    1.363   .     A
C520   C522    1.407   .     A
C520   H527    1.081   .     S
C521   N550    1.363   .     A
C521   H528    1.082   .     S
C522   H529    1.082   .     S
H523   C567    1.088   .     S
N549   Zn560   2.005   .     S
N550   Zn559   2.005   .     S
O551   Zn559   1.992   .     S
O552   Zn560   1.992   .     S
O553   Zn560   1.991   .     S
O554   Zn559   1.991   .     S
O555   Zn559   1.967   .     S
O556   Zn560   1.967   .     S
O557   Zn560   1.979   .     S
O558   Zn559   1.979   .     S
C561   O623    1.283   .     A
C561   C574    1.431   .     S
C561   O621    1.284   .     A
C562   C564    1.411   .     A
C562   C591    1.407   .     A
C562   H600    1.082   .     S
C563   C583    1.411   .     A
C563   C592    1.410   .     A
C564   C587    1.411   .     A
C564   C143    1.514   1_556 S
C565   O627    1.278   .     A
C565   O625    1.276   .     A
C565   C567    1.401   .     S
C566   O628    1.278   .     A
C566   O626    1.275   .     A
C566   C568    1.401   .     S
C568   C427    1.330   1_655 S
C568   H464    1.088   1_655 S
C569   C580    1.395   .     A
C569   C571    1.378   .     A
C569   H612    1.084   .     S
C570   C581    1.396   .     A
C570   H613    1.084   .     S
C570   C573    1.379   .     A
C571   H614    1.084   .     S
C571   C574    1.397   .     A
C572   C575    1.425   .     S
C572   O624    1.282   .     A
C572   O622    1.282   .     A
C573   C575    1.395   .     A
C573   H615    1.084   .     S
C574   C576    1.413   .     A
C575   C577    1.410   .     A
C576   C578    1.390   .     A
C576   C582    1.516   .     S
C577   C585    1.515   .     S
C577   C579    1.390   .     A
C578   H616    1.085   .     S
C578   C580    1.397   .     A
C579   C581    1.398   .     A
C579   H617    1.084   .     S
C580   C791    1.440   1_545 S
C581   C790    1.440   .     S
C582   H605    1.110   .     S
C582   C584    1.526   .     S
C582   H606    1.112   .     S
C583   H618    1.082   .     S
C583   C588    1.407   .     A
C584   H602    1.110   .     S
C584   H601    1.110   .     S
C584   H603    1.111   .     S
C585   H611    1.110   .     S
C585   H610    1.112   .     S
C585   C586    1.526   .     S
C586   H608    1.110   .     S
C586   H609    1.111   .     S
C586   H607    1.111   .     S
C587   C589    1.407   .     A
C587   H594    1.082   .     S
C588   N619    1.363   .     A
C588   H595    1.082   .     S
C589   N620    1.363   .     A
C589   H596    1.082   .     S
C590   N619    1.363   .     A
C590   C592    1.407   .     A
C590   H597    1.081   .     S
C591   N620    1.363   .     A
C591   H598    1.082   .     S
C592   H599    1.082   .     S
H593   C427    1.088   1_655 S
N619   Zn630   2.005   .     S
N620   Zn629   2.005   .     S
O621   Zn629   1.992   .     S
O622   Zn630   1.992   .     S
O623   Zn630   1.991   .     S
O624   Zn629   1.991   .     S
O625   Zn629   1.967   .     S
O626   Zn630   1.967   .     S
O627   Zn630   1.979   .     S
O628   Zn629   1.979   .     S
C631   O693    1.283   .     A
C631   C644    1.431   .     S
C631   O691    1.284   .     A
C632   C634    1.411   .     A
C632   C661    1.407   .     A
C632   H670    1.082   .     S
C633   C653    1.411   .     A
C633   C662    1.410   .     A
C634   C657    1.411   .     A
C634   C213    1.514   1_556 S
C635   O697    1.278   .     A
C635   O695    1.276   .     A
C635   C637    1.401   .     S
C636   O698    1.278   .     A
C636   O696    1.275   .     A
C636   C638    1.401   .     S
C637   C778    1.330   1_455 S
C637   H803    1.088   1_455 S
C638   C707    1.330   .     S
C638   H744    1.088   .     S
C639   C650    1.395   .     A
C639   C641    1.378   .     A
C639   H682    1.084   .     S
C640   C651    1.396   .     A
C640   H683    1.084   .     S
C640   C643    1.379   .     A
C641   H684    1.084   .     S
C641   C644    1.397   .     A
C642   C645    1.425   .     S
C642   O694    1.282   .     A
C642   O692    1.282   .     A
C643   C645    1.395   .     A
C643   H685    1.084   .     S
C644   C646    1.413   .     A
C645   C647    1.410   .     A
C646   C648    1.390   .     A
C646   C652    1.516   .     S
C647   C655    1.515   .     S
C647   C649    1.390   .     A
C648   H686    1.085   .     S
C648   C650    1.397   .     A
C649   C651    1.398   .     A
C649   H687    1.084   .     S
C651   C440    1.440   1_565 S
C652   H675    1.110   .     S
C652   C654    1.526   .     S
C652   H676    1.112   .     S
C653   H688    1.082   .     S
C653   C658    1.407   .     A
C654   H672    1.110   .     S
C654   H671    1.110   .     S
C654   H673    1.111   .     S
C655   H681    1.110   .     S
C655   H680    1.112   .     S
C655   C656    1.526   .     S
C656   H678    1.110   .     S
C656   H679    1.111   .     S
C656   H677    1.111   .     S
C657   C659    1.407   .     A
C657   H664    1.082   .     S
C658   N689    1.363   .     A
C658   H665    1.082   .     S
C659   N690    1.363   .     A
C659   H666    1.082   .     S
C660   N689    1.363   .     A
C660   C662    1.407   .     A
C660   H667    1.081   .     S
C661   N690    1.363   .     A
C661   H668    1.082   .     S
C662   H669    1.082   .     S
H663   C707    1.088   .     S
H674   C778    1.088   1_455 S
N689   Zn700   2.005   .     S
N690   Zn699   2.005   .     S
O691   Zn699   1.992   .     S
O692   Zn700   1.992   .     S
O693   Zn700   1.991   .     S
O694   Zn699   1.991   .     S
O695   Zn699   1.967   .     S
O696   Zn700   1.967   .     S
O697   Zn700   1.979   .     S
O698   Zn699   1.979   .     S
C701   O763    1.283   .     A
C701   C714    1.431   .     S
C701   O761    1.284   .     A
C702   C704    1.411   .     A
C702   C731    1.407   .     A
C702   H740    1.082   .     S
C703   C723    1.411   .     A
C703   C732    1.410   .     A
C704   C727    1.411   .     A
C704   C283    1.514   1_556 S
C705   O767    1.278   .     A
C705   O765    1.276   .     A
C705   C707    1.401   .     S
C706   O768    1.278   .     A
C706   O766    1.275   .     A
C706   C708    1.401   .     S
C708   C777    1.330   .     S
C708   H814    1.088   .     S
C709   C720    1.395   .     A
C709   C711    1.378   .     A
C709   H752    1.084   .     S
C710   C721    1.396   .     A
C710   H753    1.084   .     S
C710   C713    1.379   .     A
C711   H754    1.084   .     S
C711   C714    1.397   .     A
C712   C715    1.425   .     S
C712   O764    1.282   .     A
C712   O762    1.282   .     A
C713   C715    1.395   .     A
C713   H755    1.084   .     S
C714   C716    1.413   .     A
C715   C717    1.410   .     A
C716   C718    1.390   .     A
C716   C722    1.516   .     S
C717   C725    1.515   .     S
C717   C719    1.390   .     A
C718   H756    1.085   .     S
C718   C720    1.397   .     A
C719   C721    1.398   .     A
C719   H757    1.084   .     S
C721   C510    1.440   1_565 S
C722   H745    1.110   .     S
C722   C724    1.526   .     S
C722   H746    1.112   .     S
C723   H758    1.082   .     S
C723   C728    1.407   .     A
C724   H742    1.110   .     S
C724   H741    1.110   .     S
C724   H743    1.111   .     S
C725   H751    1.110   .     S
C725   H750    1.112   .     S
C725   C726    1.526   .     S
C726   H748    1.110   .     S
C726   H749    1.111   .     S
C726   H747    1.111   .     S
C727   C729    1.407   .     A
C727   H734    1.082   .     S
C728   N759    1.363   .     A
C728   H735    1.082   .     S
C729   N760    1.363   .     A
C729   H736    1.082   .     S
C730   N759    1.363   .     A
C730   C732    1.407   .     A
C730   H737    1.081   .     S
C731   N760    1.363   .     A
C731   H738    1.082   .     S
C732   H739    1.082   .     S
H733   C777    1.088   .     S
N759   Zn770   2.005   .     S
N760   Zn769   2.005   .     S
O761   Zn769   1.992   .     S
O762   Zn770   1.992   .     S
O763   Zn770   1.991   .     S
O764   Zn769   1.991   .     S
O765   Zn769   1.967   .     S
O766   Zn770   1.967   .     S
O767   Zn770   1.979   .     S
O768   Zn769   1.979   .     S
C771   O833    1.283   .     A
C771   C784    1.431   .     S
C771   O831    1.284   .     A
C772   C774    1.411   .     A
C772   C801    1.407   .     A
C772   H810    1.082   .     S
C773   C793    1.411   .     A
C773   C802    1.410   .     A
C774   C797    1.411   .     A
C774   C353    1.514   1_556 S
C775   O837    1.278   .     A
C775   O835    1.276   .     A
C775   C777    1.401   .     S
C776   O838    1.278   .     A
C776   O836    1.275   .     A
C776   C778    1.401   .     S
C778   C637    1.330   1_655 S
C778   H674    1.088   1_655 S
C779   C790    1.395   .     A
C779   C781    1.378   .     A
C779   H822    1.084   .     S
C780   C791    1.396   .     A
C780   H823    1.084   .     S
C780   C783    1.379   .     A
C781   H824    1.084   .     S
C781   C784    1.397   .     A
C782   C785    1.425   .     S
C782   O834    1.282   .     A
C782   O832    1.282   .     A
C783   C785    1.395   .     A
C783   H825    1.084   .     S
C784   C786    1.413   .     A
C785   C787    1.410   .     A
C786   C788    1.390   .     A
C786   C792    1.516   .     S
C787   C795    1.515   .     S
C787   C789    1.390   .     A
C788   H826    1.085   .     S
C788   C790    1.397   .     A
C789   C791    1.398   .     A
C789   H827    1.084   .     S
C791   C580    1.440   1_565 S
C792   H815    1.110   .     S
C792   C794    1.526   .     S
C792   H816    1.112   .     S
C793   H828    1.082   .     S
C793   C798    1.407   .     A
C794   H812    1.110   .     S
C794   H811    1.110   .     S
C794   H813    1.111   .     S
C795   H821    1.110   .     S
C795   H820    1.112   .     S
C795   C796    1.526   .     S
C796   H818    1.110   .     S
C796   H819    1.111   .     S
C796   H817    1.111   .     S
C797   C799    1.407   .     A
C797   H804    1.082   .     S
C798   N829    1.363   .     A
C798   H805    1.082   .     S
C799   N830    1.363   .     A
C799   H806    1.082   .     S
C800   N829    1.363   .     A
C800   C802    1.407   .     A
C800   H807    1.081   .     S
C801   N830    1.363   .     A
C801   H808    1.082   .     S
C802   H809    1.082   .     S
H803   C637    1.088   1_655 S
N829   Zn840   2.005   .     S
N830   Zn839   2.005   .     S
O831   Zn839   1.992   .     S
O832   Zn840   1.992   .     S
O833   Zn840   1.991   .     S
O834   Zn839   1.991   .     S
O835   Zn839   1.967   .     S
O836   Zn840   1.967   .     S
O837   Zn840   1.979   .     S
O838   Zn839   1.979   .     S
