data_str_m3_o2_o5_pcu_sym.38
_audit_creation_date              2020-01-03
_audit_creation_method            'Materials Studio'
_symmetry_space_group_name_H-M    'P1'
_symmetry_Int_Tables_number       1
_symmetry_cell_setting            triclinic
loop_
_symmetry_equiv_pos_as_xyz
  x,y,z
_cell_length_a                    30.0175
_cell_length_b                    28.5490
_cell_length_c                    26.7218
_cell_angle_alpha                 90.0000
_cell_angle_beta                  90.8359
_cell_angle_gamma                 90.0000
loop_
_atom_site_label
_atom_site_type_symbol
_atom_site_fract_x
_atom_site_fract_y
_atom_site_fract_z
_atom_site_U_iso_or_equiv
_atom_site_adp_type
_atom_site_occupancy
C1     C     0.16397   0.24999   0.16661   0.00000  Uiso   1.00
C2     C     0.22579   0.44721   0.13057   0.00000  Uiso   1.00
C3     C     0.24994   0.25000   0.07293   0.00000  Uiso   1.00
C4     C     0.25006   0.25000   0.26041   0.00000  Uiso   1.00
C5     C     0.25000   0.02674   0.16667   0.00000  Uiso   1.00
C6     C     0.25000   0.47330   0.16667   0.00000  Uiso   1.00
C7     C     0.24998   0.25000   0.02181   0.00000  Uiso   1.00
C8     C     0.25002   0.25000   0.31153   0.00000  Uiso   1.00
C9     C     0.04680   0.28924   0.14933   0.00000  Uiso   1.00
C10    C     0.45264   0.21032   0.14956   0.00000  Uiso   1.00
C11    C     0.45320   0.28924   0.18400   0.00000  Uiso   1.00
C12    C     0.33603   0.24999   0.16673   0.00000  Uiso   1.00
C13    C     0.04736   0.21032   0.18377   0.00000  Uiso   1.00
C14    C     0.09279   0.28945   0.14967   0.00000  Uiso   1.00
C15    C     0.40665   0.21028   0.14989   0.00000  Uiso   1.00
C16    C     0.40721   0.28945   0.18366   0.00000  Uiso   1.00
C17    C     0.09335   0.21028   0.18344   0.00000  Uiso   1.00
C18    C     0.11606   0.24992   0.16657   0.00000  Uiso   1.00
C19    C     0.38394   0.24992   0.16676   0.00000  Uiso   1.00
C20    C     0.02406   0.24976   0.16659   0.00000  Uiso   1.00
C21    C     0.47593   0.24976   0.16674   0.00000  Uiso   1.00
C22    C     0.18803   0.12686   0.10688   0.00000  Uiso   1.00
C23    C     0.21949   0.10214   0.13824   0.00000  Uiso   1.00
C24    C     0.30186   0.37329   0.23764   0.00000  Uiso   1.00
C25    C     0.31197   0.12686   0.22646   0.00000  Uiso   1.00
C26    C     0.19814   0.37329   0.09569   0.00000  Uiso   1.00
C27    C     0.27466   0.39791   0.20152   0.00000  Uiso   1.00
C28    C     0.28051   0.10214   0.19509   0.00000  Uiso   1.00
C29    C     0.22534   0.39791   0.13181   0.00000  Uiso   1.00
C30    C     0.21837   0.05283   0.13870   0.00000  Uiso   1.00
C31    C     0.27421   0.44721   0.20277   0.00000  Uiso   1.00
C32    C     0.28163   0.05283   0.19464   0.00000  Uiso   1.00
H33    H     0.02901   0.31963   0.13527   0.00000  Uiso   1.00
H34    H     0.29275   0.46436   0.23246   0.00000  Uiso   1.00
H35    H     0.30765   0.03569   0.21611   0.00000  Uiso   1.00
H36    H     0.20725   0.46436   0.10088   0.00000  Uiso   1.00
H37    H     0.46998   0.17989   0.13547   0.00000  Uiso   1.00
H38    H     0.47099   0.31963   0.19806   0.00000  Uiso   1.00
H39    H     0.03002   0.17989   0.19787   0.00000  Uiso   1.00
H40    H     0.11005   0.32017   0.13619   0.00000  Uiso   1.00
H41    H     0.38892   0.17963   0.13634   0.00000  Uiso   1.00
H42    H     0.38995   0.32017   0.19714   0.00000  Uiso   1.00
H43    H     0.11108   0.17963   0.19699   0.00000  Uiso   1.00
H44    H     0.19235   0.03569   0.11723   0.00000  Uiso   1.00
N45    N     0.25000   0.12623   0.16667   0.00000  Uiso   1.00
N46    N     0.25000   0.37376   0.16667   0.00000  Uiso   1.00
N47    N     0.16267   0.14647   0.08144   0.00000  Uiso   1.00
N48    N     0.32389   0.35381   0.26683   0.00000  Uiso   1.00
N49    N     0.33733   0.14647   0.25189   0.00000  Uiso   1.00
N50    N     0.17611   0.35381   0.06650   0.00000  Uiso   1.00
O51    O     0.18453   0.28974   0.16667   0.00000  Uiso   1.00
O52    O     0.31547   0.21026   0.16666   0.00000  Uiso   1.00
O53    O     0.31547   0.28974   0.16666   0.00000  Uiso   1.00
O54    O     0.18453   0.21026   0.16667   0.00000  Uiso   1.00
O55    O     0.25000   0.28973   0.09511   0.00000  Uiso   1.00
O56    O     0.25000   0.21027   0.23822   0.00000  Uiso   1.00
O57    O     0.25000   0.28973   0.23822   0.00000  Uiso   1.00
O58    O     0.25000   0.21027   0.09511   0.00000  Uiso   1.00
Zn59   Zn    0.25000   0.30307   0.16667   0.00000  Uiso   1.00
Zn60   Zn    0.25000   0.19693   0.16667   0.00000  Uiso   1.00
C61    C     0.66397   0.24999   0.16661   0.00000  Uiso   1.00
C62    C     0.72579   0.44721   0.13057   0.00000  Uiso   1.00
C63    C     0.74994   0.25000   0.07293   0.00000  Uiso   1.00
C64    C     0.75006   0.25000   0.26041   0.00000  Uiso   1.00
C65    C     0.75000   0.02674   0.16667   0.00000  Uiso   1.00
C66    C     0.75000   0.47330   0.16667   0.00000  Uiso   1.00
C67    C     0.74998   0.25000   0.02181   0.00000  Uiso   1.00
C68    C     0.75002   0.25000   0.31153   0.00000  Uiso   1.00
C69    C     0.54680   0.28924   0.14933   0.00000  Uiso   1.00
C70    C     0.95264   0.21032   0.14956   0.00000  Uiso   1.00
C71    C     0.95320   0.28924   0.18400   0.00000  Uiso   1.00
C72    C     0.83603   0.24999   0.16673   0.00000  Uiso   1.00
C73    C     0.54736   0.21032   0.18377   0.00000  Uiso   1.00
C74    C     0.59279   0.28945   0.14967   0.00000  Uiso   1.00
C75    C     0.90665   0.21028   0.14989   0.00000  Uiso   1.00
C76    C     0.90721   0.28945   0.18366   0.00000  Uiso   1.00
C77    C     0.59335   0.21028   0.18344   0.00000  Uiso   1.00
C78    C     0.61606   0.24992   0.16657   0.00000  Uiso   1.00
C79    C     0.88394   0.24992   0.16676   0.00000  Uiso   1.00
C80    C     0.52406   0.24976   0.16659   0.00000  Uiso   1.00
C81    C     0.97593   0.24976   0.16674   0.00000  Uiso   1.00
C82    C     0.68803   0.12686   0.10688   0.00000  Uiso   1.00
C83    C     0.71949   0.10214   0.13824   0.00000  Uiso   1.00
C84    C     0.80186   0.37329   0.23764   0.00000  Uiso   1.00
C85    C     0.81197   0.12686   0.22646   0.00000  Uiso   1.00
C86    C     0.69814   0.37329   0.09569   0.00000  Uiso   1.00
C87    C     0.77466   0.39791   0.20152   0.00000  Uiso   1.00
C88    C     0.78051   0.10214   0.19509   0.00000  Uiso   1.00
C89    C     0.72534   0.39791   0.13181   0.00000  Uiso   1.00
C90    C     0.71837   0.05283   0.13870   0.00000  Uiso   1.00
C91    C     0.77421   0.44721   0.20277   0.00000  Uiso   1.00
C92    C     0.78163   0.05283   0.19464   0.00000  Uiso   1.00
H93    H     0.52901   0.31963   0.13527   0.00000  Uiso   1.00
H94    H     0.79275   0.46436   0.23246   0.00000  Uiso   1.00
H95    H     0.80765   0.03569   0.21611   0.00000  Uiso   1.00
H96    H     0.70725   0.46436   0.10088   0.00000  Uiso   1.00
H97    H     0.96998   0.17989   0.13547   0.00000  Uiso   1.00
H98    H     0.97099   0.31963   0.19806   0.00000  Uiso   1.00
H99    H     0.53002   0.17989   0.19787   0.00000  Uiso   1.00
H100   H     0.61005   0.32017   0.13619   0.00000  Uiso   1.00
H101   H     0.88892   0.17963   0.13634   0.00000  Uiso   1.00
H102   H     0.88995   0.32017   0.19714   0.00000  Uiso   1.00
H103   H     0.61108   0.17963   0.19699   0.00000  Uiso   1.00
H104   H     0.69235   0.03569   0.11723   0.00000  Uiso   1.00
N105   N     0.75000   0.12623   0.16667   0.00000  Uiso   1.00
N106   N     0.75000   0.37376   0.16667   0.00000  Uiso   1.00
N107   N     0.66267   0.14647   0.08144   0.00000  Uiso   1.00
N108   N     0.82389   0.35381   0.26683   0.00000  Uiso   1.00
N109   N     0.83733   0.14647   0.25189   0.00000  Uiso   1.00
N110   N     0.67611   0.35381   0.06650   0.00000  Uiso   1.00
O111   O     0.68453   0.28974   0.16667   0.00000  Uiso   1.00
O112   O     0.81547   0.21026   0.16666   0.00000  Uiso   1.00
O113   O     0.81547   0.28974   0.16666   0.00000  Uiso   1.00
O114   O     0.68453   0.21026   0.16667   0.00000  Uiso   1.00
O115   O     0.75000   0.28973   0.09511   0.00000  Uiso   1.00
O116   O     0.75000   0.21027   0.23822   0.00000  Uiso   1.00
O117   O     0.75000   0.28973   0.23822   0.00000  Uiso   1.00
O118   O     0.75000   0.21027   0.09511   0.00000  Uiso   1.00
Zn119  Zn    0.75000   0.30307   0.16667   0.00000  Uiso   1.00
Zn120  Zn    0.75000   0.19693   0.16667   0.00000  Uiso   1.00
C121   C     0.16397   0.74999   0.16661   0.00000  Uiso   1.00
C122   C     0.22579   0.94721   0.13057   0.00000  Uiso   1.00
C123   C     0.24994   0.75000   0.07293   0.00000  Uiso   1.00
C124   C     0.25006   0.75000   0.26041   0.00000  Uiso   1.00
C125   C     0.25000   0.52674   0.16667   0.00000  Uiso   1.00
C126   C     0.25000   0.97330   0.16667   0.00000  Uiso   1.00
C127   C     0.24998   0.75000   0.02181   0.00000  Uiso   1.00
C128   C     0.25002   0.75000   0.31153   0.00000  Uiso   1.00
C129   C     0.04680   0.78924   0.14933   0.00000  Uiso   1.00
C130   C     0.45264   0.71032   0.14956   0.00000  Uiso   1.00
C131   C     0.45320   0.78924   0.18400   0.00000  Uiso   1.00
C132   C     0.33603   0.74999   0.16673   0.00000  Uiso   1.00
C133   C     0.04736   0.71032   0.18377   0.00000  Uiso   1.00
C134   C     0.09279   0.78945   0.14967   0.00000  Uiso   1.00
C135   C     0.40665   0.71028   0.14989   0.00000  Uiso   1.00
C136   C     0.40721   0.78945   0.18366   0.00000  Uiso   1.00
C137   C     0.09335   0.71028   0.18344   0.00000  Uiso   1.00
C138   C     0.11606   0.74992   0.16657   0.00000  Uiso   1.00
C139   C     0.38394   0.74992   0.16676   0.00000  Uiso   1.00
C140   C     0.02406   0.74976   0.16659   0.00000  Uiso   1.00
C141   C     0.47593   0.74976   0.16674   0.00000  Uiso   1.00
C142   C     0.18803   0.62686   0.10688   0.00000  Uiso   1.00
C143   C     0.21949   0.60214   0.13824   0.00000  Uiso   1.00
C144   C     0.30186   0.87329   0.23764   0.00000  Uiso   1.00
C145   C     0.31197   0.62686   0.22646   0.00000  Uiso   1.00
C146   C     0.19814   0.87329   0.09569   0.00000  Uiso   1.00
C147   C     0.27466   0.89791   0.20152   0.00000  Uiso   1.00
C148   C     0.28051   0.60214   0.19509   0.00000  Uiso   1.00
C149   C     0.22534   0.89791   0.13181   0.00000  Uiso   1.00
C150   C     0.21837   0.55283   0.13870   0.00000  Uiso   1.00
C151   C     0.27421   0.94721   0.20277   0.00000  Uiso   1.00
C152   C     0.28163   0.55283   0.19464   0.00000  Uiso   1.00
H153   H     0.02901   0.81963   0.13527   0.00000  Uiso   1.00
H154   H     0.29275   0.96436   0.23246   0.00000  Uiso   1.00
H155   H     0.30765   0.53569   0.21611   0.00000  Uiso   1.00
H156   H     0.20725   0.96436   0.10088   0.00000  Uiso   1.00
H157   H     0.46998   0.67989   0.13547   0.00000  Uiso   1.00
H158   H     0.47099   0.81963   0.19806   0.00000  Uiso   1.00
H159   H     0.03002   0.67989   0.19787   0.00000  Uiso   1.00
H160   H     0.11005   0.82017   0.13619   0.00000  Uiso   1.00
H161   H     0.38892   0.67963   0.13634   0.00000  Uiso   1.00
H162   H     0.38995   0.82017   0.19714   0.00000  Uiso   1.00
H163   H     0.11108   0.67963   0.19699   0.00000  Uiso   1.00
H164   H     0.19235   0.53569   0.11723   0.00000  Uiso   1.00
N165   N     0.25000   0.62623   0.16667   0.00000  Uiso   1.00
N166   N     0.25000   0.87376   0.16667   0.00000  Uiso   1.00
N167   N     0.16267   0.64647   0.08144   0.00000  Uiso   1.00
N168   N     0.32389   0.85381   0.26683   0.00000  Uiso   1.00
N169   N     0.33733   0.64647   0.25189   0.00000  Uiso   1.00
N170   N     0.17611   0.85381   0.06650   0.00000  Uiso   1.00
O171   O     0.18453   0.78974   0.16667   0.00000  Uiso   1.00
O172   O     0.31547   0.71026   0.16666   0.00000  Uiso   1.00
O173   O     0.31547   0.78974   0.16666   0.00000  Uiso   1.00
O174   O     0.18453   0.71026   0.16667   0.00000  Uiso   1.00
O175   O     0.25000   0.78973   0.09511   0.00000  Uiso   1.00
O176   O     0.25000   0.71027   0.23822   0.00000  Uiso   1.00
O177   O     0.25000   0.78973   0.23822   0.00000  Uiso   1.00
O178   O     0.25000   0.71027   0.09511   0.00000  Uiso   1.00
Zn179  Zn    0.25000   0.80307   0.16667   0.00000  Uiso   1.00
Zn180  Zn    0.25000   0.69693   0.16667   0.00000  Uiso   1.00
C181   C     0.66397   0.74999   0.16661   0.00000  Uiso   1.00
C182   C     0.72579   0.94721   0.13057   0.00000  Uiso   1.00
C183   C     0.74994   0.75000   0.07293   0.00000  Uiso   1.00
C184   C     0.75006   0.75000   0.26041   0.00000  Uiso   1.00
C185   C     0.75000   0.52674   0.16667   0.00000  Uiso   1.00
C186   C     0.75000   0.97330   0.16667   0.00000  Uiso   1.00
C187   C     0.74998   0.75000   0.02181   0.00000  Uiso   1.00
C188   C     0.75002   0.75000   0.31153   0.00000  Uiso   1.00
C189   C     0.54680   0.78924   0.14933   0.00000  Uiso   1.00
C190   C     0.95264   0.71032   0.14956   0.00000  Uiso   1.00
C191   C     0.95320   0.78924   0.18400   0.00000  Uiso   1.00
C192   C     0.83603   0.74999   0.16673   0.00000  Uiso   1.00
C193   C     0.54736   0.71032   0.18377   0.00000  Uiso   1.00
C194   C     0.59279   0.78945   0.14967   0.00000  Uiso   1.00
C195   C     0.90665   0.71028   0.14989   0.00000  Uiso   1.00
C196   C     0.90721   0.78945   0.18366   0.00000  Uiso   1.00
C197   C     0.59335   0.71028   0.18344   0.00000  Uiso   1.00
C198   C     0.61606   0.74992   0.16657   0.00000  Uiso   1.00
C199   C     0.88394   0.74992   0.16676   0.00000  Uiso   1.00
C200   C     0.52406   0.74976   0.16659   0.00000  Uiso   1.00
C201   C     0.97593   0.74976   0.16674   0.00000  Uiso   1.00
C202   C     0.68803   0.62686   0.10688   0.00000  Uiso   1.00
C203   C     0.71949   0.60214   0.13824   0.00000  Uiso   1.00
C204   C     0.80186   0.87329   0.23764   0.00000  Uiso   1.00
C205   C     0.81197   0.62686   0.22646   0.00000  Uiso   1.00
C206   C     0.69814   0.87329   0.09569   0.00000  Uiso   1.00
C207   C     0.77466   0.89791   0.20152   0.00000  Uiso   1.00
C208   C     0.78051   0.60214   0.19509   0.00000  Uiso   1.00
C209   C     0.72534   0.89791   0.13181   0.00000  Uiso   1.00
C210   C     0.71837   0.55283   0.13870   0.00000  Uiso   1.00
C211   C     0.77421   0.94721   0.20277   0.00000  Uiso   1.00
C212   C     0.78163   0.55283   0.19464   0.00000  Uiso   1.00
H213   H     0.52901   0.81963   0.13527   0.00000  Uiso   1.00
H214   H     0.79275   0.96436   0.23246   0.00000  Uiso   1.00
H215   H     0.80765   0.53569   0.21611   0.00000  Uiso   1.00
H216   H     0.70725   0.96436   0.10088   0.00000  Uiso   1.00
H217   H     0.96998   0.67989   0.13547   0.00000  Uiso   1.00
H218   H     0.97099   0.81963   0.19806   0.00000  Uiso   1.00
H219   H     0.53002   0.67989   0.19787   0.00000  Uiso   1.00
H220   H     0.61005   0.82017   0.13619   0.00000  Uiso   1.00
H221   H     0.88892   0.67963   0.13634   0.00000  Uiso   1.00
H222   H     0.88995   0.82017   0.19714   0.00000  Uiso   1.00
H223   H     0.61108   0.67963   0.19699   0.00000  Uiso   1.00
H224   H     0.69235   0.53569   0.11723   0.00000  Uiso   1.00
N225   N     0.75000   0.62623   0.16667   0.00000  Uiso   1.00
N226   N     0.75000   0.87376   0.16667   0.00000  Uiso   1.00
N227   N     0.66267   0.64647   0.08144   0.00000  Uiso   1.00
N228   N     0.82389   0.85381   0.26683   0.00000  Uiso   1.00
N229   N     0.83733   0.64647   0.25189   0.00000  Uiso   1.00
N230   N     0.67611   0.85381   0.06650   0.00000  Uiso   1.00
O231   O     0.68453   0.78974   0.16667   0.00000  Uiso   1.00
O232   O     0.81547   0.71026   0.16666   0.00000  Uiso   1.00
O233   O     0.81547   0.78974   0.16666   0.00000  Uiso   1.00
O234   O     0.68453   0.71026   0.16667   0.00000  Uiso   1.00
O235   O     0.75000   0.78973   0.09511   0.00000  Uiso   1.00
O236   O     0.75000   0.71027   0.23822   0.00000  Uiso   1.00
O237   O     0.75000   0.78973   0.23822   0.00000  Uiso   1.00
O238   O     0.75000   0.71027   0.09511   0.00000  Uiso   1.00
Zn239  Zn    0.75000   0.80307   0.16667   0.00000  Uiso   1.00
Zn240  Zn    0.75000   0.69693   0.16667   0.00000  Uiso   1.00
C241   C     0.16397   0.24999   0.49994   0.00000  Uiso   1.00
C242   C     0.22579   0.44721   0.46390   0.00000  Uiso   1.00
C243   C     0.24994   0.25000   0.40626   0.00000  Uiso   1.00
C244   C     0.25006   0.25000   0.59374   0.00000  Uiso   1.00
C245   C     0.25000   0.02674   0.50000   0.00000  Uiso   1.00
C246   C     0.25000   0.47330   0.50000   0.00000  Uiso   1.00
C247   C     0.24998   0.25000   0.35514   0.00000  Uiso   1.00
C248   C     0.25002   0.25000   0.64486   0.00000  Uiso   1.00
C249   C     0.04680   0.28924   0.48267   0.00000  Uiso   1.00
C250   C     0.45264   0.21032   0.48289   0.00000  Uiso   1.00
C251   C     0.45320   0.28924   0.51733   0.00000  Uiso   1.00
C252   C     0.33603   0.24999   0.50006   0.00000  Uiso   1.00
C253   C     0.04736   0.21032   0.51711   0.00000  Uiso   1.00
C254   C     0.09279   0.28945   0.48300   0.00000  Uiso   1.00
C255   C     0.40665   0.21028   0.48323   0.00000  Uiso   1.00
C256   C     0.40721   0.28945   0.51700   0.00000  Uiso   1.00
C257   C     0.09335   0.21028   0.51677   0.00000  Uiso   1.00
C258   C     0.11606   0.24992   0.49990   0.00000  Uiso   1.00
C259   C     0.38394   0.24992   0.50010   0.00000  Uiso   1.00
C260   C     0.02406   0.24976   0.49992   0.00000  Uiso   1.00
C261   C     0.47593   0.24976   0.50008   0.00000  Uiso   1.00
C262   C     0.18803   0.12686   0.44021   0.00000  Uiso   1.00
C263   C     0.21949   0.10214   0.47157   0.00000  Uiso   1.00
C264   C     0.30186   0.37329   0.57097   0.00000  Uiso   1.00
C265   C     0.31197   0.12686   0.55979   0.00000  Uiso   1.00
C266   C     0.19814   0.37329   0.42903   0.00000  Uiso   1.00
C267   C     0.27466   0.39791   0.53486   0.00000  Uiso   1.00
C268   C     0.28051   0.10214   0.52843   0.00000  Uiso   1.00
C269   C     0.22534   0.39791   0.46514   0.00000  Uiso   1.00
C270   C     0.21837   0.05283   0.47203   0.00000  Uiso   1.00
C271   C     0.27421   0.44721   0.53610   0.00000  Uiso   1.00
C272   C     0.28163   0.05283   0.52797   0.00000  Uiso   1.00
H273   H     0.02901   0.31963   0.46860   0.00000  Uiso   1.00
H274   H     0.29275   0.46436   0.56579   0.00000  Uiso   1.00
H275   H     0.30765   0.03569   0.54944   0.00000  Uiso   1.00
H276   H     0.20725   0.46436   0.43421   0.00000  Uiso   1.00
H277   H     0.46998   0.17989   0.46880   0.00000  Uiso   1.00
H278   H     0.47099   0.31963   0.53140   0.00000  Uiso   1.00
H279   H     0.03002   0.17989   0.53120   0.00000  Uiso   1.00
H280   H     0.11005   0.32017   0.46953   0.00000  Uiso   1.00
H281   H     0.38892   0.17963   0.46968   0.00000  Uiso   1.00
H282   H     0.38995   0.32017   0.53047   0.00000  Uiso   1.00
H283   H     0.11108   0.17963   0.53032   0.00000  Uiso   1.00
H284   H     0.19235   0.03569   0.45056   0.00000  Uiso   1.00
N285   N     0.25000   0.12623   0.50000   0.00000  Uiso   1.00
N286   N     0.25000   0.37376   0.50000   0.00000  Uiso   1.00
N287   N     0.16267   0.14647   0.41477   0.00000  Uiso   1.00
N288   N     0.32389   0.35381   0.60017   0.00000  Uiso   1.00
N289   N     0.33733   0.14647   0.58523   0.00000  Uiso   1.00
N290   N     0.17611   0.35381   0.39983   0.00000  Uiso   1.00
O291   O     0.18453   0.28974   0.50000   0.00000  Uiso   1.00
O292   O     0.31547   0.21026   0.50000   0.00000  Uiso   1.00
O293   O     0.31547   0.28974   0.50000   0.00000  Uiso   1.00
O294   O     0.18453   0.21026   0.50000   0.00000  Uiso   1.00
O295   O     0.25000   0.28973   0.42845   0.00000  Uiso   1.00
O296   O     0.25000   0.21027   0.57155   0.00000  Uiso   1.00
O297   O     0.25000   0.28973   0.57155   0.00000  Uiso   1.00
O298   O     0.25000   0.21027   0.42845   0.00000  Uiso   1.00
Zn299  Zn    0.25000   0.30307   0.50000   0.00000  Uiso   1.00
Zn300  Zn    0.25000   0.19693   0.50000   0.00000  Uiso   1.00
C301   C     0.66397   0.24999   0.49994   0.00000  Uiso   1.00
C302   C     0.72579   0.44721   0.46390   0.00000  Uiso   1.00
C303   C     0.74994   0.25000   0.40626   0.00000  Uiso   1.00
C304   C     0.75006   0.25000   0.59374   0.00000  Uiso   1.00
C305   C     0.75000   0.02674   0.50000   0.00000  Uiso   1.00
C306   C     0.75000   0.47330   0.50000   0.00000  Uiso   1.00
C307   C     0.74998   0.25000   0.35514   0.00000  Uiso   1.00
C308   C     0.75002   0.25000   0.64486   0.00000  Uiso   1.00
C309   C     0.54680   0.28924   0.48267   0.00000  Uiso   1.00
C310   C     0.95264   0.21032   0.48289   0.00000  Uiso   1.00
C311   C     0.95320   0.28924   0.51733   0.00000  Uiso   1.00
C312   C     0.83603   0.24999   0.50006   0.00000  Uiso   1.00
C313   C     0.54736   0.21032   0.51711   0.00000  Uiso   1.00
C314   C     0.59279   0.28945   0.48300   0.00000  Uiso   1.00
C315   C     0.90665   0.21028   0.48323   0.00000  Uiso   1.00
C316   C     0.90721   0.28945   0.51700   0.00000  Uiso   1.00
C317   C     0.59335   0.21028   0.51677   0.00000  Uiso   1.00
C318   C     0.61606   0.24992   0.49990   0.00000  Uiso   1.00
C319   C     0.88394   0.24992   0.50010   0.00000  Uiso   1.00
C320   C     0.52406   0.24976   0.49992   0.00000  Uiso   1.00
C321   C     0.97593   0.24976   0.50008   0.00000  Uiso   1.00
C322   C     0.68803   0.12686   0.44021   0.00000  Uiso   1.00
C323   C     0.71949   0.10214   0.47157   0.00000  Uiso   1.00
C324   C     0.80186   0.37329   0.57097   0.00000  Uiso   1.00
C325   C     0.81197   0.12686   0.55979   0.00000  Uiso   1.00
C326   C     0.69814   0.37329   0.42903   0.00000  Uiso   1.00
C327   C     0.77466   0.39791   0.53486   0.00000  Uiso   1.00
C328   C     0.78051   0.10214   0.52843   0.00000  Uiso   1.00
C329   C     0.72534   0.39791   0.46514   0.00000  Uiso   1.00
C330   C     0.71837   0.05283   0.47203   0.00000  Uiso   1.00
C331   C     0.77421   0.44721   0.53610   0.00000  Uiso   1.00
C332   C     0.78163   0.05283   0.52797   0.00000  Uiso   1.00
H333   H     0.52901   0.31963   0.46860   0.00000  Uiso   1.00
H334   H     0.79275   0.46436   0.56579   0.00000  Uiso   1.00
H335   H     0.80765   0.03569   0.54944   0.00000  Uiso   1.00
H336   H     0.70725   0.46436   0.43421   0.00000  Uiso   1.00
H337   H     0.96998   0.17989   0.46880   0.00000  Uiso   1.00
H338   H     0.97099   0.31963   0.53140   0.00000  Uiso   1.00
H339   H     0.53002   0.17989   0.53120   0.00000  Uiso   1.00
H340   H     0.61005   0.32017   0.46953   0.00000  Uiso   1.00
H341   H     0.88892   0.17963   0.46968   0.00000  Uiso   1.00
H342   H     0.88995   0.32017   0.53047   0.00000  Uiso   1.00
H343   H     0.61108   0.17963   0.53032   0.00000  Uiso   1.00
H344   H     0.69235   0.03569   0.45056   0.00000  Uiso   1.00
N345   N     0.75000   0.12623   0.50000   0.00000  Uiso   1.00
N346   N     0.75000   0.37376   0.50000   0.00000  Uiso   1.00
N347   N     0.66267   0.14647   0.41477   0.00000  Uiso   1.00
N348   N     0.82389   0.35381   0.60017   0.00000  Uiso   1.00
N349   N     0.83733   0.14647   0.58523   0.00000  Uiso   1.00
N350   N     0.67611   0.35381   0.39983   0.00000  Uiso   1.00
O351   O     0.68453   0.28974   0.50000   0.00000  Uiso   1.00
O352   O     0.81547   0.21026   0.50000   0.00000  Uiso   1.00
O353   O     0.81547   0.28974   0.50000   0.00000  Uiso   1.00
O354   O     0.68453   0.21026   0.50000   0.00000  Uiso   1.00
O355   O     0.75000   0.28973   0.42845   0.00000  Uiso   1.00
O356   O     0.75000   0.21027   0.57155   0.00000  Uiso   1.00
O357   O     0.75000   0.28973   0.57155   0.00000  Uiso   1.00
O358   O     0.75000   0.21027   0.42845   0.00000  Uiso   1.00
Zn359  Zn    0.75000   0.30307   0.50000   0.00000  Uiso   1.00
Zn360  Zn    0.75000   0.19693   0.50000   0.00000  Uiso   1.00
C361   C     0.16397   0.74999   0.49994   0.00000  Uiso   1.00
C362   C     0.22579   0.94721   0.46390   0.00000  Uiso   1.00
C363   C     0.24994   0.75000   0.40626   0.00000  Uiso   1.00
C364   C     0.25006   0.75000   0.59374   0.00000  Uiso   1.00
C365   C     0.25000   0.52674   0.50000   0.00000  Uiso   1.00
C366   C     0.25000   0.97330   0.50000   0.00000  Uiso   1.00
C367   C     0.24998   0.75000   0.35514   0.00000  Uiso   1.00
C368   C     0.25002   0.75000   0.64486   0.00000  Uiso   1.00
C369   C     0.04680   0.78924   0.48267   0.00000  Uiso   1.00
C370   C     0.45264   0.71032   0.48289   0.00000  Uiso   1.00
C371   C     0.45320   0.78924   0.51733   0.00000  Uiso   1.00
C372   C     0.33603   0.74999   0.50006   0.00000  Uiso   1.00
C373   C     0.04736   0.71032   0.51711   0.00000  Uiso   1.00
C374   C     0.09279   0.78945   0.48300   0.00000  Uiso   1.00
C375   C     0.40665   0.71028   0.48323   0.00000  Uiso   1.00
C376   C     0.40721   0.78945   0.51700   0.00000  Uiso   1.00
C377   C     0.09335   0.71028   0.51677   0.00000  Uiso   1.00
C378   C     0.11606   0.74992   0.49990   0.00000  Uiso   1.00
C379   C     0.38394   0.74992   0.50010   0.00000  Uiso   1.00
C380   C     0.02406   0.74976   0.49992   0.00000  Uiso   1.00
C381   C     0.47593   0.74976   0.50008   0.00000  Uiso   1.00
C382   C     0.18803   0.62686   0.44021   0.00000  Uiso   1.00
C383   C     0.21949   0.60214   0.47157   0.00000  Uiso   1.00
C384   C     0.30186   0.87329   0.57097   0.00000  Uiso   1.00
C385   C     0.31197   0.62686   0.55979   0.00000  Uiso   1.00
C386   C     0.19814   0.87329   0.42903   0.00000  Uiso   1.00
C387   C     0.27466   0.89791   0.53486   0.00000  Uiso   1.00
C388   C     0.28051   0.60214   0.52843   0.00000  Uiso   1.00
C389   C     0.22534   0.89791   0.46514   0.00000  Uiso   1.00
C390   C     0.21837   0.55283   0.47203   0.00000  Uiso   1.00
C391   C     0.27421   0.94721   0.53610   0.00000  Uiso   1.00
C392   C     0.28163   0.55283   0.52797   0.00000  Uiso   1.00
H393   H     0.02901   0.81963   0.46860   0.00000  Uiso   1.00
H394   H     0.29275   0.96436   0.56579   0.00000  Uiso   1.00
H395   H     0.30765   0.53569   0.54944   0.00000  Uiso   1.00
H396   H     0.20725   0.96436   0.43421   0.00000  Uiso   1.00
H397   H     0.46998   0.67989   0.46880   0.00000  Uiso   1.00
H398   H     0.47099   0.81963   0.53140   0.00000  Uiso   1.00
H399   H     0.03002   0.67989   0.53120   0.00000  Uiso   1.00
H400   H     0.11005   0.82017   0.46953   0.00000  Uiso   1.00
H401   H     0.38892   0.67963   0.46968   0.00000  Uiso   1.00
H402   H     0.38995   0.82017   0.53047   0.00000  Uiso   1.00
H403   H     0.11108   0.67963   0.53032   0.00000  Uiso   1.00
H404   H     0.19235   0.53569   0.45056   0.00000  Uiso   1.00
N405   N     0.25000   0.62623   0.50000   0.00000  Uiso   1.00
N406   N     0.25000   0.87376   0.50000   0.00000  Uiso   1.00
N407   N     0.16267   0.64647   0.41477   0.00000  Uiso   1.00
N408   N     0.32389   0.85381   0.60017   0.00000  Uiso   1.00
N409   N     0.33733   0.64647   0.58523   0.00000  Uiso   1.00
N410   N     0.17611   0.85381   0.39983   0.00000  Uiso   1.00
O411   O     0.18453   0.78974   0.50000   0.00000  Uiso   1.00
O412   O     0.31547   0.71026   0.50000   0.00000  Uiso   1.00
O413   O     0.31547   0.78974   0.50000   0.00000  Uiso   1.00
O414   O     0.18453   0.71026   0.50000   0.00000  Uiso   1.00
O415   O     0.25000   0.78973   0.42845   0.00000  Uiso   1.00
O416   O     0.25000   0.71027   0.57155   0.00000  Uiso   1.00
O417   O     0.25000   0.78973   0.57155   0.00000  Uiso   1.00
O418   O     0.25000   0.71027   0.42845   0.00000  Uiso   1.00
Zn419  Zn    0.25000   0.80307   0.50000   0.00000  Uiso   1.00
Zn420  Zn    0.25000   0.69693   0.50000   0.00000  Uiso   1.00
C421   C     0.66397   0.74999   0.49994   0.00000  Uiso   1.00
C422   C     0.72579   0.94721   0.46390   0.00000  Uiso   1.00
C423   C     0.74994   0.75000   0.40626   0.00000  Uiso   1.00
C424   C     0.75006   0.75000   0.59374   0.00000  Uiso   1.00
C425   C     0.75000   0.52674   0.50000   0.00000  Uiso   1.00
C426   C     0.75000   0.97330   0.50000   0.00000  Uiso   1.00
C427   C     0.74998   0.75000   0.35514   0.00000  Uiso   1.00
C428   C     0.75002   0.75000   0.64486   0.00000  Uiso   1.00
C429   C     0.54680   0.78924   0.48267   0.00000  Uiso   1.00
C430   C     0.95264   0.71032   0.48289   0.00000  Uiso   1.00
C431   C     0.95320   0.78924   0.51733   0.00000  Uiso   1.00
C432   C     0.83603   0.74999   0.50006   0.00000  Uiso   1.00
C433   C     0.54736   0.71032   0.51711   0.00000  Uiso   1.00
C434   C     0.59279   0.78945   0.48300   0.00000  Uiso   1.00
C435   C     0.90665   0.71028   0.48323   0.00000  Uiso   1.00
C436   C     0.90721   0.78945   0.51700   0.00000  Uiso   1.00
C437   C     0.59335   0.71028   0.51677   0.00000  Uiso   1.00
C438   C     0.61606   0.74992   0.49990   0.00000  Uiso   1.00
C439   C     0.88394   0.74992   0.50010   0.00000  Uiso   1.00
C440   C     0.52406   0.74976   0.49992   0.00000  Uiso   1.00
C441   C     0.97593   0.74976   0.50008   0.00000  Uiso   1.00
C442   C     0.68803   0.62686   0.44021   0.00000  Uiso   1.00
C443   C     0.71949   0.60214   0.47157   0.00000  Uiso   1.00
C444   C     0.80186   0.87329   0.57097   0.00000  Uiso   1.00
C445   C     0.81197   0.62686   0.55979   0.00000  Uiso   1.00
C446   C     0.69814   0.87329   0.42903   0.00000  Uiso   1.00
C447   C     0.77466   0.89791   0.53486   0.00000  Uiso   1.00
C448   C     0.78051   0.60214   0.52843   0.00000  Uiso   1.00
C449   C     0.72534   0.89791   0.46514   0.00000  Uiso   1.00
C450   C     0.71837   0.55283   0.47203   0.00000  Uiso   1.00
C451   C     0.77421   0.94721   0.53610   0.00000  Uiso   1.00
C452   C     0.78163   0.55283   0.52797   0.00000  Uiso   1.00
H453   H     0.52901   0.81963   0.46860   0.00000  Uiso   1.00
H454   H     0.79275   0.96436   0.56579   0.00000  Uiso   1.00
H455   H     0.80765   0.53569   0.54944   0.00000  Uiso   1.00
H456   H     0.70725   0.96436   0.43421   0.00000  Uiso   1.00
H457   H     0.96998   0.67989   0.46880   0.00000  Uiso   1.00
H458   H     0.97099   0.81963   0.53140   0.00000  Uiso   1.00
H459   H     0.53002   0.67989   0.53120   0.00000  Uiso   1.00
H460   H     0.61005   0.82017   0.46953   0.00000  Uiso   1.00
H461   H     0.88892   0.67963   0.46968   0.00000  Uiso   1.00
H462   H     0.88995   0.82017   0.53047   0.00000  Uiso   1.00
H463   H     0.61108   0.67963   0.53032   0.00000  Uiso   1.00
H464   H     0.69235   0.53569   0.45056   0.00000  Uiso   1.00
N465   N     0.75000   0.62623   0.50000   0.00000  Uiso   1.00
N466   N     0.75000   0.87376   0.50000   0.00000  Uiso   1.00
N467   N     0.66267   0.64647   0.41477   0.00000  Uiso   1.00
N468   N     0.82389   0.85381   0.60017   0.00000  Uiso   1.00
N469   N     0.83733   0.64647   0.58523   0.00000  Uiso   1.00
N470   N     0.67611   0.85381   0.39983   0.00000  Uiso   1.00
O471   O     0.68453   0.78974   0.50000   0.00000  Uiso   1.00
O472   O     0.81547   0.71026   0.50000   0.00000  Uiso   1.00
O473   O     0.81547   0.78974   0.50000   0.00000  Uiso   1.00
O474   O     0.68453   0.71026   0.50000   0.00000  Uiso   1.00
O475   O     0.75000   0.78973   0.42845   0.00000  Uiso   1.00
O476   O     0.75000   0.71027   0.57155   0.00000  Uiso   1.00
O477   O     0.75000   0.78973   0.57155   0.00000  Uiso   1.00
O478   O     0.75000   0.71027   0.42845   0.00000  Uiso   1.00
Zn479  Zn    0.75000   0.80307   0.50000   0.00000  Uiso   1.00
Zn480  Zn    0.75000   0.69693   0.50000   0.00000  Uiso   1.00
C481   C     0.16397   0.24999   0.83327   0.00000  Uiso   1.00
C482   C     0.22579   0.44721   0.79723   0.00000  Uiso   1.00
C483   C     0.24994   0.25000   0.73959   0.00000  Uiso   1.00
C484   C     0.25006   0.25000   0.92707   0.00000  Uiso   1.00
C485   C     0.25000   0.02674   0.83333   0.00000  Uiso   1.00
C486   C     0.25000   0.47330   0.83333   0.00000  Uiso   1.00
C487   C     0.24998   0.25000   0.68847   0.00000  Uiso   1.00
C488   C     0.25002   0.25000   0.97819   0.00000  Uiso   1.00
C489   C     0.04680   0.28924   0.81600   0.00000  Uiso   1.00
C490   C     0.45264   0.21032   0.81623   0.00000  Uiso   1.00
C491   C     0.45320   0.28924   0.85067   0.00000  Uiso   1.00
C492   C     0.33603   0.24999   0.83339   0.00000  Uiso   1.00
C493   C     0.04736   0.21032   0.85044   0.00000  Uiso   1.00
C494   C     0.09279   0.28945   0.81634   0.00000  Uiso   1.00
C495   C     0.40665   0.21028   0.81656   0.00000  Uiso   1.00
C496   C     0.40721   0.28945   0.85033   0.00000  Uiso   1.00
C497   C     0.09335   0.21028   0.85011   0.00000  Uiso   1.00
C498   C     0.11606   0.24992   0.83324   0.00000  Uiso   1.00
C499   C     0.38394   0.24992   0.83343   0.00000  Uiso   1.00
C500   C     0.02406   0.24976   0.83326   0.00000  Uiso   1.00
C501   C     0.47593   0.24976   0.83341   0.00000  Uiso   1.00
C502   C     0.18803   0.12686   0.77354   0.00000  Uiso   1.00
C503   C     0.21949   0.10214   0.80491   0.00000  Uiso   1.00
C504   C     0.30186   0.37329   0.90431   0.00000  Uiso   1.00
C505   C     0.31197   0.12686   0.89313   0.00000  Uiso   1.00
C506   C     0.19814   0.37329   0.76236   0.00000  Uiso   1.00
C507   C     0.27466   0.39791   0.86819   0.00000  Uiso   1.00
C508   C     0.28051   0.10214   0.86176   0.00000  Uiso   1.00
C509   C     0.22534   0.39791   0.79848   0.00000  Uiso   1.00
C510   C     0.21837   0.05283   0.80536   0.00000  Uiso   1.00
C511   C     0.27421   0.44721   0.86943   0.00000  Uiso   1.00
C512   C     0.28163   0.05283   0.86130   0.00000  Uiso   1.00
H513   H     0.02901   0.31963   0.80194   0.00000  Uiso   1.00
H514   H     0.29275   0.46436   0.89912   0.00000  Uiso   1.00
H515   H     0.30765   0.03569   0.88277   0.00000  Uiso   1.00
H516   H     0.20725   0.46436   0.76754   0.00000  Uiso   1.00
H517   H     0.46998   0.17989   0.80213   0.00000  Uiso   1.00
H518   H     0.47099   0.31963   0.86473   0.00000  Uiso   1.00
H519   H     0.03002   0.17989   0.86454   0.00000  Uiso   1.00
H520   H     0.11005   0.32017   0.80286   0.00000  Uiso   1.00
H521   H     0.38892   0.17963   0.80301   0.00000  Uiso   1.00
H522   H     0.38995   0.32017   0.86381   0.00000  Uiso   1.00
H523   H     0.11108   0.17963   0.86366   0.00000  Uiso   1.00
H524   H     0.19235   0.03569   0.78389   0.00000  Uiso   1.00
N525   N     0.25000   0.12623   0.83333   0.00000  Uiso   1.00
N526   N     0.25000   0.37376   0.83333   0.00000  Uiso   1.00
N527   N     0.16267   0.14647   0.74811   0.00000  Uiso   1.00
N528   N     0.32389   0.35381   0.93350   0.00000  Uiso   1.00
N529   N     0.33733   0.14647   0.91856   0.00000  Uiso   1.00
N530   N     0.17611   0.35381   0.73317   0.00000  Uiso   1.00
O531   O     0.18453   0.28974   0.83334   0.00000  Uiso   1.00
O532   O     0.31547   0.21026   0.83333   0.00000  Uiso   1.00
O533   O     0.31547   0.28974   0.83333   0.00000  Uiso   1.00
O534   O     0.18453   0.21026   0.83334   0.00000  Uiso   1.00
O535   O     0.25000   0.28973   0.76178   0.00000  Uiso   1.00
O536   O     0.25000   0.21027   0.90489   0.00000  Uiso   1.00
O537   O     0.25000   0.28973   0.90489   0.00000  Uiso   1.00
O538   O     0.25000   0.21027   0.76178   0.00000  Uiso   1.00
Zn539  Zn    0.25000   0.30307   0.83333   0.00000  Uiso   1.00
Zn540  Zn    0.25000   0.19693   0.83333   0.00000  Uiso   1.00
C541   C     0.66397   0.24999   0.83327   0.00000  Uiso   1.00
C542   C     0.72579   0.44721   0.79723   0.00000  Uiso   1.00
C543   C     0.74994   0.25000   0.73959   0.00000  Uiso   1.00
C544   C     0.75006   0.25000   0.92707   0.00000  Uiso   1.00
C545   C     0.75000   0.02674   0.83333   0.00000  Uiso   1.00
C546   C     0.75000   0.47330   0.83333   0.00000  Uiso   1.00
C547   C     0.74998   0.25000   0.68847   0.00000  Uiso   1.00
C548   C     0.75002   0.25000   0.97819   0.00000  Uiso   1.00
C549   C     0.54680   0.28924   0.81600   0.00000  Uiso   1.00
C550   C     0.95264   0.21032   0.81623   0.00000  Uiso   1.00
C551   C     0.95320   0.28924   0.85067   0.00000  Uiso   1.00
C552   C     0.83603   0.24999   0.83339   0.00000  Uiso   1.00
C553   C     0.54736   0.21032   0.85044   0.00000  Uiso   1.00
C554   C     0.59279   0.28945   0.81634   0.00000  Uiso   1.00
C555   C     0.90665   0.21028   0.81656   0.00000  Uiso   1.00
C556   C     0.90721   0.28945   0.85033   0.00000  Uiso   1.00
C557   C     0.59335   0.21028   0.85011   0.00000  Uiso   1.00
C558   C     0.61606   0.24992   0.83324   0.00000  Uiso   1.00
C559   C     0.88394   0.24992   0.83343   0.00000  Uiso   1.00
C560   C     0.52406   0.24976   0.83326   0.00000  Uiso   1.00
C561   C     0.97593   0.24976   0.83341   0.00000  Uiso   1.00
C562   C     0.68803   0.12686   0.77354   0.00000  Uiso   1.00
C563   C     0.71949   0.10214   0.80491   0.00000  Uiso   1.00
C564   C     0.80186   0.37329   0.90431   0.00000  Uiso   1.00
C565   C     0.81197   0.12686   0.89313   0.00000  Uiso   1.00
C566   C     0.69814   0.37329   0.76236   0.00000  Uiso   1.00
C567   C     0.77466   0.39791   0.86819   0.00000  Uiso   1.00
C568   C     0.78051   0.10214   0.86176   0.00000  Uiso   1.00
C569   C     0.72534   0.39791   0.79848   0.00000  Uiso   1.00
C570   C     0.71837   0.05283   0.80536   0.00000  Uiso   1.00
C571   C     0.77421   0.44721   0.86943   0.00000  Uiso   1.00
C572   C     0.78163   0.05283   0.86130   0.00000  Uiso   1.00
H573   H     0.52901   0.31963   0.80194   0.00000  Uiso   1.00
H574   H     0.79275   0.46436   0.89912   0.00000  Uiso   1.00
H575   H     0.80765   0.03569   0.88277   0.00000  Uiso   1.00
H576   H     0.70725   0.46436   0.76754   0.00000  Uiso   1.00
H577   H     0.96998   0.17989   0.80213   0.00000  Uiso   1.00
H578   H     0.97099   0.31963   0.86473   0.00000  Uiso   1.00
H579   H     0.53002   0.17989   0.86454   0.00000  Uiso   1.00
H580   H     0.61005   0.32017   0.80286   0.00000  Uiso   1.00
H581   H     0.88892   0.17963   0.80301   0.00000  Uiso   1.00
H582   H     0.88995   0.32017   0.86381   0.00000  Uiso   1.00
H583   H     0.61108   0.17963   0.86366   0.00000  Uiso   1.00
H584   H     0.69235   0.03569   0.78389   0.00000  Uiso   1.00
N585   N     0.75000   0.12623   0.83333   0.00000  Uiso   1.00
N586   N     0.75000   0.37376   0.83333   0.00000  Uiso   1.00
N587   N     0.66267   0.14647   0.74811   0.00000  Uiso   1.00
N588   N     0.82389   0.35381   0.93350   0.00000  Uiso   1.00
N589   N     0.83733   0.14647   0.91856   0.00000  Uiso   1.00
N590   N     0.67611   0.35381   0.73317   0.00000  Uiso   1.00
O591   O     0.68453   0.28974   0.83334   0.00000  Uiso   1.00
O592   O     0.81547   0.21026   0.83333   0.00000  Uiso   1.00
O593   O     0.81547   0.28974   0.83333   0.00000  Uiso   1.00
O594   O     0.68453   0.21026   0.83334   0.00000  Uiso   1.00
O595   O     0.75000   0.28973   0.76178   0.00000  Uiso   1.00
O596   O     0.75000   0.21027   0.90489   0.00000  Uiso   1.00
O597   O     0.75000   0.28973   0.90489   0.00000  Uiso   1.00
O598   O     0.75000   0.21027   0.76178   0.00000  Uiso   1.00
Zn599  Zn    0.75000   0.30307   0.83333   0.00000  Uiso   1.00
Zn600  Zn    0.75000   0.19693   0.83333   0.00000  Uiso   1.00
C601   C     0.16397   0.74999   0.83327   0.00000  Uiso   1.00
C602   C     0.22579   0.94721   0.79723   0.00000  Uiso   1.00
C603   C     0.24994   0.75000   0.73959   0.00000  Uiso   1.00
C604   C     0.25006   0.75000   0.92707   0.00000  Uiso   1.00
C605   C     0.25000   0.52674   0.83333   0.00000  Uiso   1.00
C606   C     0.25000   0.97330   0.83333   0.00000  Uiso   1.00
C607   C     0.24998   0.75000   0.68847   0.00000  Uiso   1.00
C608   C     0.25002   0.75000   0.97819   0.00000  Uiso   1.00
C609   C     0.04680   0.78924   0.81600   0.00000  Uiso   1.00
C610   C     0.45264   0.71032   0.81623   0.00000  Uiso   1.00
C611   C     0.45320   0.78924   0.85067   0.00000  Uiso   1.00
C612   C     0.33603   0.74999   0.83339   0.00000  Uiso   1.00
C613   C     0.04736   0.71032   0.85044   0.00000  Uiso   1.00
C614   C     0.09279   0.78945   0.81634   0.00000  Uiso   1.00
C615   C     0.40665   0.71028   0.81656   0.00000  Uiso   1.00
C616   C     0.40721   0.78945   0.85033   0.00000  Uiso   1.00
C617   C     0.09335   0.71028   0.85011   0.00000  Uiso   1.00
C618   C     0.11606   0.74992   0.83324   0.00000  Uiso   1.00
C619   C     0.38394   0.74992   0.83343   0.00000  Uiso   1.00
C620   C     0.02406   0.74976   0.83326   0.00000  Uiso   1.00
C621   C     0.47593   0.74976   0.83341   0.00000  Uiso   1.00
C622   C     0.18803   0.62686   0.77354   0.00000  Uiso   1.00
C623   C     0.21949   0.60214   0.80491   0.00000  Uiso   1.00
C624   C     0.30186   0.87329   0.90431   0.00000  Uiso   1.00
C625   C     0.31197   0.62686   0.89313   0.00000  Uiso   1.00
C626   C     0.19814   0.87329   0.76236   0.00000  Uiso   1.00
C627   C     0.27466   0.89791   0.86819   0.00000  Uiso   1.00
C628   C     0.28051   0.60214   0.86176   0.00000  Uiso   1.00
C629   C     0.22534   0.89791   0.79848   0.00000  Uiso   1.00
C630   C     0.21837   0.55283   0.80536   0.00000  Uiso   1.00
C631   C     0.27421   0.94721   0.86943   0.00000  Uiso   1.00
C632   C     0.28163   0.55283   0.86130   0.00000  Uiso   1.00
H633   H     0.02901   0.81963   0.80194   0.00000  Uiso   1.00
H634   H     0.29275   0.96436   0.89912   0.00000  Uiso   1.00
H635   H     0.30765   0.53569   0.88277   0.00000  Uiso   1.00
H636   H     0.20725   0.96436   0.76754   0.00000  Uiso   1.00
H637   H     0.46998   0.67989   0.80213   0.00000  Uiso   1.00
H638   H     0.47099   0.81963   0.86473   0.00000  Uiso   1.00
H639   H     0.03002   0.67989   0.86454   0.00000  Uiso   1.00
H640   H     0.11005   0.82017   0.80286   0.00000  Uiso   1.00
H641   H     0.38892   0.67963   0.80301   0.00000  Uiso   1.00
H642   H     0.38995   0.82017   0.86381   0.00000  Uiso   1.00
H643   H     0.11108   0.67963   0.86366   0.00000  Uiso   1.00
H644   H     0.19235   0.53569   0.78389   0.00000  Uiso   1.00
N645   N     0.25000   0.62623   0.83333   0.00000  Uiso   1.00
N646   N     0.25000   0.87376   0.83333   0.00000  Uiso   1.00
N647   N     0.16267   0.64647   0.74811   0.00000  Uiso   1.00
N648   N     0.32389   0.85381   0.93350   0.00000  Uiso   1.00
N649   N     0.33733   0.64647   0.91856   0.00000  Uiso   1.00
N650   N     0.17611   0.85381   0.73317   0.00000  Uiso   1.00
O651   O     0.18453   0.78974   0.83334   0.00000  Uiso   1.00
O652   O     0.31547   0.71026   0.83333   0.00000  Uiso   1.00
O653   O     0.31547   0.78974   0.83333   0.00000  Uiso   1.00
O654   O     0.18453   0.71026   0.83334   0.00000  Uiso   1.00
O655   O     0.25000   0.78973   0.76178   0.00000  Uiso   1.00
O656   O     0.25000   0.71027   0.90489   0.00000  Uiso   1.00
O657   O     0.25000   0.78973   0.90489   0.00000  Uiso   1.00
O658   O     0.25000   0.71027   0.76178   0.00000  Uiso   1.00
Zn659  Zn    0.25000   0.80307   0.83333   0.00000  Uiso   1.00
Zn660  Zn    0.25000   0.69693   0.83333   0.00000  Uiso   1.00
C661   C     0.66397   0.74999   0.83327   0.00000  Uiso   1.00
C662   C     0.72579   0.94721   0.79723   0.00000  Uiso   1.00
C663   C     0.74994   0.75000   0.73959   0.00000  Uiso   1.00
C664   C     0.75006   0.75000   0.92707   0.00000  Uiso   1.00
C665   C     0.75000   0.52674   0.83333   0.00000  Uiso   1.00
C666   C     0.75000   0.97330   0.83333   0.00000  Uiso   1.00
C667   C     0.74998   0.75000   0.68847   0.00000  Uiso   1.00
C668   C     0.75002   0.75000   0.97819   0.00000  Uiso   1.00
C669   C     0.54680   0.78924   0.81600   0.00000  Uiso   1.00
C670   C     0.95264   0.71032   0.81623   0.00000  Uiso   1.00
C671   C     0.95320   0.78924   0.85067   0.00000  Uiso   1.00
C672   C     0.83603   0.74999   0.83339   0.00000  Uiso   1.00
C673   C     0.54736   0.71032   0.85044   0.00000  Uiso   1.00
C674   C     0.59279   0.78945   0.81634   0.00000  Uiso   1.00
C675   C     0.90665   0.71028   0.81656   0.00000  Uiso   1.00
C676   C     0.90721   0.78945   0.85033   0.00000  Uiso   1.00
C677   C     0.59335   0.71028   0.85011   0.00000  Uiso   1.00
C678   C     0.61606   0.74992   0.83324   0.00000  Uiso   1.00
C679   C     0.88394   0.74992   0.83343   0.00000  Uiso   1.00
C680   C     0.52406   0.74976   0.83326   0.00000  Uiso   1.00
C681   C     0.97593   0.74976   0.83341   0.00000  Uiso   1.00
C682   C     0.68803   0.62686   0.77354   0.00000  Uiso   1.00
C683   C     0.71949   0.60214   0.80491   0.00000  Uiso   1.00
C684   C     0.80186   0.87329   0.90431   0.00000  Uiso   1.00
C685   C     0.81197   0.62686   0.89313   0.00000  Uiso   1.00
C686   C     0.69814   0.87329   0.76236   0.00000  Uiso   1.00
C687   C     0.77466   0.89791   0.86819   0.00000  Uiso   1.00
C688   C     0.78051   0.60214   0.86176   0.00000  Uiso   1.00
C689   C     0.72534   0.89791   0.79848   0.00000  Uiso   1.00
C690   C     0.71837   0.55283   0.80536   0.00000  Uiso   1.00
C691   C     0.77421   0.94721   0.86943   0.00000  Uiso   1.00
C692   C     0.78163   0.55283   0.86130   0.00000  Uiso   1.00
H693   H     0.52901   0.81963   0.80194   0.00000  Uiso   1.00
H694   H     0.79275   0.96436   0.89912   0.00000  Uiso   1.00
H695   H     0.80765   0.53569   0.88277   0.00000  Uiso   1.00
H696   H     0.70725   0.96436   0.76754   0.00000  Uiso   1.00
H697   H     0.96998   0.67989   0.80213   0.00000  Uiso   1.00
H698   H     0.97099   0.81963   0.86473   0.00000  Uiso   1.00
H699   H     0.53002   0.67989   0.86454   0.00000  Uiso   1.00
H700   H     0.61005   0.82017   0.80286   0.00000  Uiso   1.00
H701   H     0.88892   0.67963   0.80301   0.00000  Uiso   1.00
H702   H     0.88995   0.82017   0.86381   0.00000  Uiso   1.00
H703   H     0.61108   0.67963   0.86366   0.00000  Uiso   1.00
H704   H     0.69235   0.53569   0.78389   0.00000  Uiso   1.00
N705   N     0.75000   0.62623   0.83333   0.00000  Uiso   1.00
N706   N     0.75000   0.87376   0.83333   0.00000  Uiso   1.00
N707   N     0.66267   0.64647   0.74811   0.00000  Uiso   1.00
N708   N     0.82389   0.85381   0.93350   0.00000  Uiso   1.00
N709   N     0.83733   0.64647   0.91856   0.00000  Uiso   1.00
N710   N     0.67611   0.85381   0.73317   0.00000  Uiso   1.00
O711   O     0.68453   0.78974   0.83334   0.00000  Uiso   1.00
O712   O     0.81547   0.71026   0.83333   0.00000  Uiso   1.00
O713   O     0.81547   0.78974   0.83333   0.00000  Uiso   1.00
O714   O     0.68453   0.71026   0.83334   0.00000  Uiso   1.00
O715   O     0.75000   0.78973   0.76178   0.00000  Uiso   1.00
O716   O     0.75000   0.71027   0.90489   0.00000  Uiso   1.00
O717   O     0.75000   0.78973   0.90489   0.00000  Uiso   1.00
O718   O     0.75000   0.71027   0.76178   0.00000  Uiso   1.00
Zn719  Zn    0.75000   0.80307   0.83333   0.00000  Uiso   1.00
Zn720  Zn    0.75000   0.69693   0.83333   0.00000  Uiso   1.00
loop_
_geom_bond_atom_site_label_1
_geom_bond_atom_site_label_2
_geom_bond_distance
_geom_bond_site_symmetry_2
_ccdc_geom_bond_type
C1     O54     1.291   .     A
C1     O51     1.292   .     A
C1     C18     1.438   .     S
C2     C6      1.412   .     A
C2     C29     1.408   .     A
C2     H36     1.080   .     S
C3     O55     1.280   .     A
C3     C7      1.366   .     S
C3     O58     1.280   .     A
C4     O57     1.280   .     A
C4     O56     1.280   .     A
C4     C8      1.366   .     S
C5     C32     1.412   .     A
C5     C30     1.412   .     A
C5     C126    1.526   1_545 S
C6     C31     1.412   .     A
C6     C125    1.526   .     S
C7     C488    1.165   1_554 S
C8     C247    1.165   .     S
C9     H33     1.083   .     S
C9     C20     1.399   .     A
C9     C14     1.380   .     A
C10    C15     1.380   .     A
C10    C21     1.399   .     A
C10    H37     1.083   .     S
C11    H38     1.083   .     S
C11    C16     1.380   .     A
C11    C21     1.399   .     A
C12    O53     1.292   .     A
C12    C19     1.438   .     S
C12    O52     1.291   .     A
C13    C17     1.380   .     A
C13    H39     1.083   .     S
C13    C20     1.399   .     A
C14    C18     1.399   .     A
C14    H40     1.083   .     S
C15    C19     1.399   .     A
C15    H41     1.084   .     S
C16    C19     1.399   .     A
C16    H42     1.083   .     S
C17    H43     1.084   .     S
C17    C18     1.399   .     A
C20    C81     1.445   1_455 S
C21    C80     1.445   .     S
C22    N47     1.158   .     T
C22    C23     1.438   .     S
C23    C30     1.408   .     A
C23    N45     1.367   .     A
C24    C27     1.438   .     S
C24    N48     1.158   .     T
C25    C28     1.438   .     S
C25    N49     1.158   .     T
C26    N50     1.158   .     T
C26    C29     1.438   .     S
C27    N46     1.368   .     A
C27    C31     1.408   .     A
C28    N45     1.367   .     A
C28    C32     1.408   .     A
C29    N46     1.368   .     A
C30    H44     1.080   .     S
C31    H34     1.080   .     S
C32    H35     1.080   .     S
N45    Zn60    2.018   .     S
N46    Zn59    2.018   .     S
O51    Zn59    2.002   .     S
O52    Zn60    2.002   .     S
O53    Zn59    2.002   .     S
O54    Zn60    2.002   .     S
O55    Zn59    1.950   .     S
O56    Zn60    1.950   .     S
O57    Zn59    1.950   .     S
O58    Zn60    1.950   .     S
C61    O114    1.291   .     A
C61    O111    1.292   .     A
C61    C78     1.438   .     S
C62    C66     1.412   .     A
C62    C89     1.408   .     A
C62    H96     1.080   .     S
C63    O115    1.280   .     A
C63    C67     1.366   .     S
C63    O118    1.280   .     A
C64    O117    1.280   .     A
C64    O116    1.280   .     A
C64    C68     1.366   .     S
C65    C92     1.412   .     A
C65    C90     1.412   .     A
C65    C186    1.526   1_545 S
C66    C91     1.412   .     A
C66    C185    1.526   .     S
C67    C548    1.165   1_554 S
C68    C307    1.165   .     S
C69    H93     1.083   .     S
C69    C80     1.399   .     A
C69    C74     1.380   .     A
C70    C75     1.380   .     A
C70    C81     1.399   .     A
C70    H97     1.083   .     S
C71    H98     1.083   .     S
C71    C76     1.380   .     A
C71    C81     1.399   .     A
C72    O113    1.292   .     A
C72    C79     1.438   .     S
C72    O112    1.291   .     A
C73    C77     1.380   .     A
C73    H99     1.083   .     S
C73    C80     1.399   .     A
C74    C78     1.399   .     A
C74    H100    1.083   .     S
C75    C79     1.399   .     A
C75    H101    1.084   .     S
C76    C79     1.399   .     A
C76    H102    1.083   .     S
C77    H103    1.084   .     S
C77    C78     1.399   .     A
C81    C20     1.445   1_655 S
C82    N107    1.158   .     T
C82    C83     1.438   .     S
C83    C90     1.408   .     A
C83    N105    1.367   .     A
C84    C87     1.438   .     S
C84    N108    1.158   .     T
C85    C88     1.438   .     S
C85    N109    1.158   .     T
C86    N110    1.158   .     T
C86    C89     1.438   .     S
C87    N106    1.368   .     A
C87    C91     1.408   .     A
C88    N105    1.367   .     A
C88    C92     1.408   .     A
C89    N106    1.368   .     A
C90    H104    1.080   .     S
C91    H94     1.080   .     S
C92    H95     1.080   .     S
N105   Zn120   2.018   .     S
N106   Zn119   2.018   .     S
O111   Zn119   2.002   .     S
O112   Zn120   2.002   .     S
O113   Zn119   2.002   .     S
O114   Zn120   2.002   .     S
O115   Zn119   1.950   .     S
O116   Zn120   1.950   .     S
O117   Zn119   1.950   .     S
O118   Zn120   1.950   .     S
C121   O174    1.291   .     A
C121   O171    1.292   .     A
C121   C138    1.438   .     S
C122   C126    1.412   .     A
C122   C149    1.408   .     A
C122   H156    1.080   .     S
C123   O175    1.280   .     A
C123   C127    1.366   .     S
C123   O178    1.280   .     A
C124   O177    1.280   .     A
C124   O176    1.280   .     A
C124   C128    1.366   .     S
C125   C152    1.412   .     A
C125   C150    1.412   .     A
C126   C151    1.412   .     A
C126   C5      1.526   1_565 S
C127   C608    1.165   1_554 S
C128   C367    1.165   .     S
C129   H153    1.083   .     S
C129   C140    1.399   .     A
C129   C134    1.380   .     A
C130   C135    1.380   .     A
C130   C141    1.399   .     A
C130   H157    1.083   .     S
C131   H158    1.083   .     S
C131   C136    1.380   .     A
C131   C141    1.399   .     A
C132   O173    1.292   .     A
C132   C139    1.438   .     S
C132   O172    1.291   .     A
C133   C137    1.380   .     A
C133   H159    1.083   .     S
C133   C140    1.399   .     A
C134   C138    1.399   .     A
C134   H160    1.083   .     S
C135   C139    1.399   .     A
C135   H161    1.084   .     S
C136   C139    1.399   .     A
C136   H162    1.083   .     S
C137   H163    1.084   .     S
C137   C138    1.399   .     A
C140   C201    1.445   1_455 S
C141   C200    1.445   .     S
C142   N167    1.158   .     T
C142   C143    1.438   .     S
C143   C150    1.408   .     A
C143   N165    1.367   .     A
C144   C147    1.438   .     S
C144   N168    1.158   .     T
C145   C148    1.438   .     S
C145   N169    1.158   .     T
C146   N170    1.158   .     T
C146   C149    1.438   .     S
C147   N166    1.368   .     A
C147   C151    1.408   .     A
C148   N165    1.367   .     A
C148   C152    1.408   .     A
C149   N166    1.368   .     A
C150   H164    1.080   .     S
C151   H154    1.080   .     S
C152   H155    1.080   .     S
N165   Zn180   2.018   .     S
N166   Zn179   2.018   .     S
O171   Zn179   2.002   .     S
O172   Zn180   2.002   .     S
O173   Zn179   2.002   .     S
O174   Zn180   2.002   .     S
O175   Zn179   1.950   .     S
O176   Zn180   1.950   .     S
O177   Zn179   1.950   .     S
O178   Zn180   1.950   .     S
C181   O234    1.291   .     A
C181   O231    1.292   .     A
C181   C198    1.438   .     S
C182   C186    1.412   .     A
C182   C209    1.408   .     A
C182   H216    1.080   .     S
C183   O235    1.280   .     A
C183   C187    1.366   .     S
C183   O238    1.280   .     A
C184   O237    1.280   .     A
C184   O236    1.280   .     A
C184   C188    1.366   .     S
C185   C212    1.412   .     A
C185   C210    1.412   .     A
C186   C211    1.412   .     A
C186   C65     1.526   1_565 S
C187   C668    1.165   1_554 S
C188   C427    1.165   .     S
C189   H213    1.083   .     S
C189   C200    1.399   .     A
C189   C194    1.380   .     A
C190   C195    1.380   .     A
C190   C201    1.399   .     A
C190   H217    1.083   .     S
C191   H218    1.083   .     S
C191   C196    1.380   .     A
C191   C201    1.399   .     A
C192   O233    1.292   .     A
C192   C199    1.438   .     S
C192   O232    1.291   .     A
C193   C197    1.380   .     A
C193   H219    1.083   .     S
C193   C200    1.399   .     A
C194   C198    1.399   .     A
C194   H220    1.083   .     S
C195   C199    1.399   .     A
C195   H221    1.084   .     S
C196   C199    1.399   .     A
C196   H222    1.083   .     S
C197   H223    1.084   .     S
C197   C198    1.399   .     A
C201   C140    1.445   1_655 S
C202   N227    1.158   .     T
C202   C203    1.438   .     S
C203   C210    1.408   .     A
C203   N225    1.367   .     A
C204   C207    1.438   .     S
C204   N228    1.158   .     T
C205   C208    1.438   .     S
C205   N229    1.158   .     T
C206   N230    1.158   .     T
C206   C209    1.438   .     S
C207   N226    1.368   .     A
C207   C211    1.408   .     A
C208   N225    1.367   .     A
C208   C212    1.408   .     A
C209   N226    1.368   .     A
C210   H224    1.080   .     S
C211   H214    1.080   .     S
C212   H215    1.080   .     S
N225   Zn240   2.018   .     S
N226   Zn239   2.018   .     S
O231   Zn239   2.002   .     S
O232   Zn240   2.002   .     S
O233   Zn239   2.002   .     S
O234   Zn240   2.002   .     S
O235   Zn239   1.950   .     S
O236   Zn240   1.950   .     S
O237   Zn239   1.950   .     S
O238   Zn240   1.950   .     S
C241   O294    1.291   .     A
C241   O291    1.292   .     A
C241   C258    1.438   .     S
C242   C246    1.412   .     A
C242   C269    1.408   .     A
C242   H276    1.080   .     S
C243   O295    1.280   .     A
C243   C247    1.366   .     S
C243   O298    1.280   .     A
C244   O297    1.280   .     A
C244   O296    1.280   .     A
C244   C248    1.366   .     S
C245   C272    1.412   .     A
C245   C270    1.412   .     A
C245   C366    1.526   1_545 S
C246   C271    1.412   .     A
C246   C365    1.526   .     S
C248   C487    1.165   .     S
C249   H273    1.083   .     S
C249   C260    1.399   .     A
C249   C254    1.380   .     A
C250   C255    1.380   .     A
C250   C261    1.399   .     A
C250   H277    1.083   .     S
C251   H278    1.083   .     S
C251   C256    1.380   .     A
C251   C261    1.399   .     A
C252   O293    1.292   .     A
C252   C259    1.438   .     S
C252   O292    1.291   .     A
C253   C257    1.380   .     A
C253   H279    1.083   .     S
C253   C260    1.399   .     A
C254   C258    1.399   .     A
C254   H280    1.083   .     S
C255   C259    1.399   .     A
C255   H281    1.084   .     S
C256   C259    1.399   .     A
C256   H282    1.083   .     S
C257   H283    1.084   .     S
C257   C258    1.399   .     A
C260   C321    1.445   1_455 S
C261   C320    1.445   .     S
C262   N287    1.158   .     T
C262   C263    1.438   .     S
C263   C270    1.408   .     A
C263   N285    1.367   .     A
C264   C267    1.438   .     S
C264   N288    1.158   .     T
C265   C268    1.438   .     S
C265   N289    1.158   .     T
C266   N290    1.158   .     T
C266   C269    1.438   .     S
C267   N286    1.368   .     A
C267   C271    1.408   .     A
C268   N285    1.367   .     A
C268   C272    1.408   .     A
C269   N286    1.368   .     A
C270   H284    1.080   .     S
C271   H274    1.080   .     S
C272   H275    1.080   .     S
N285   Zn300   2.018   .     S
N286   Zn299   2.018   .     S
O291   Zn299   2.002   .     S
O292   Zn300   2.002   .     S
O293   Zn299   2.002   .     S
O294   Zn300   2.002   .     S
O295   Zn299   1.950   .     S
O296   Zn300   1.950   .     S
O297   Zn299   1.950   .     S
O298   Zn300   1.950   .     S
C301   O354    1.291   .     A
C301   O351    1.292   .     A
C301   C318    1.438   .     S
C302   C306    1.412   .     A
C302   C329    1.408   .     A
C302   H336    1.080   .     S
C303   O355    1.280   .     A
C303   C307    1.366   .     S
C303   O358    1.280   .     A
C304   O357    1.280   .     A
C304   O356    1.280   .     A
C304   C308    1.366   .     S
C305   C332    1.412   .     A
C305   C330    1.412   .     A
C305   C426    1.526   1_545 S
C306   C331    1.412   .     A
C306   C425    1.526   .     S
C308   C547    1.165   .     S
C309   H333    1.083   .     S
C309   C320    1.399   .     A
C309   C314    1.380   .     A
C310   C315    1.380   .     A
C310   C321    1.399   .     A
C310   H337    1.083   .     S
C311   H338    1.083   .     S
C311   C316    1.380   .     A
C311   C321    1.399   .     A
C312   O353    1.292   .     A
C312   C319    1.438   .     S
C312   O352    1.291   .     A
C313   C317    1.380   .     A
C313   H339    1.083   .     S
C313   C320    1.399   .     A
C314   C318    1.399   .     A
C314   H340    1.083   .     S
C315   C319    1.399   .     A
C315   H341    1.084   .     S
C316   C319    1.399   .     A
C316   H342    1.083   .     S
C317   H343    1.084   .     S
C317   C318    1.399   .     A
C321   C260    1.445   1_655 S
C322   N347    1.158   .     T
C322   C323    1.438   .     S
C323   C330    1.408   .     A
C323   N345    1.367   .     A
C324   C327    1.438   .     S
C324   N348    1.158   .     T
C325   C328    1.438   .     S
C325   N349    1.158   .     T
C326   N350    1.158   .     T
C326   C329    1.438   .     S
C327   N346    1.368   .     A
C327   C331    1.408   .     A
C328   N345    1.367   .     A
C328   C332    1.408   .     A
C329   N346    1.368   .     A
C330   H344    1.080   .     S
C331   H334    1.080   .     S
C332   H335    1.080   .     S
N345   Zn360   2.018   .     S
N346   Zn359   2.018   .     S
O351   Zn359   2.002   .     S
O352   Zn360   2.002   .     S
O353   Zn359   2.002   .     S
O354   Zn360   2.002   .     S
O355   Zn359   1.950   .     S
O356   Zn360   1.950   .     S
O357   Zn359   1.950   .     S
O358   Zn360   1.950   .     S
C361   O414    1.291   .     A
C361   O411    1.292   .     A
C361   C378    1.438   .     S
C362   C366    1.412   .     A
C362   C389    1.408   .     A
C362   H396    1.080   .     S
C363   O415    1.280   .     A
C363   C367    1.366   .     S
C363   O418    1.280   .     A
C364   O417    1.280   .     A
C364   O416    1.280   .     A
C364   C368    1.366   .     S
C365   C392    1.412   .     A
C365   C390    1.412   .     A
C366   C391    1.412   .     A
C366   C245    1.526   1_565 S
C368   C607    1.165   .     S
C369   H393    1.083   .     S
C369   C380    1.399   .     A
C369   C374    1.380   .     A
C370   C375    1.380   .     A
C370   C381    1.399   .     A
C370   H397    1.083   .     S
C371   H398    1.083   .     S
C371   C376    1.380   .     A
C371   C381    1.399   .     A
C372   O413    1.292   .     A
C372   C379    1.438   .     S
C372   O412    1.291   .     A
C373   C377    1.380   .     A
C373   H399    1.083   .     S
C373   C380    1.399   .     A
C374   C378    1.399   .     A
C374   H400    1.083   .     S
C375   C379    1.399   .     A
C375   H401    1.084   .     S
C376   C379    1.399   .     A
C376   H402    1.083   .     S
C377   H403    1.084   .     S
C377   C378    1.399   .     A
C380   C441    1.445   1_455 S
C381   C440    1.445   .     S
C382   N407    1.158   .     T
C382   C383    1.438   .     S
C383   C390    1.408   .     A
C383   N405    1.367   .     A
C384   C387    1.438   .     S
C384   N408    1.158   .     T
C385   C388    1.438   .     S
C385   N409    1.158   .     T
C386   N410    1.158   .     T
C386   C389    1.438   .     S
C387   N406    1.368   .     A
C387   C391    1.408   .     A
C388   N405    1.367   .     A
C388   C392    1.408   .     A
C389   N406    1.368   .     A
C390   H404    1.080   .     S
C391   H394    1.080   .     S
C392   H395    1.080   .     S
N405   Zn420   2.018   .     S
N406   Zn419   2.018   .     S
O411   Zn419   2.002   .     S
O412   Zn420   2.002   .     S
O413   Zn419   2.002   .     S
O414   Zn420   2.002   .     S
O415   Zn419   1.950   .     S
O416   Zn420   1.950   .     S
O417   Zn419   1.950   .     S
O418   Zn420   1.950   .     S
C421   O474    1.291   .     A
C421   O471    1.292   .     A
C421   C438    1.438   .     S
C422   C426    1.412   .     A
C422   C449    1.408   .     A
C422   H456    1.080   .     S
C423   O475    1.280   .     A
C423   C427    1.366   .     S
C423   O478    1.280   .     A
C424   O477    1.280   .     A
C424   O476    1.280   .     A
C424   C428    1.366   .     S
C425   C452    1.412   .     A
C425   C450    1.412   .     A
C426   C451    1.412   .     A
C426   C305    1.526   1_565 S
C428   C667    1.165   .     S
C429   H453    1.083   .     S
C429   C440    1.399   .     A
C429   C434    1.380   .     A
C430   C435    1.380   .     A
C430   C441    1.399   .     A
C430   H457    1.083   .     S
C431   H458    1.083   .     S
C431   C436    1.380   .     A
C431   C441    1.399   .     A
C432   O473    1.292   .     A
C432   C439    1.438   .     S
C432   O472    1.291   .     A
C433   C437    1.380   .     A
C433   H459    1.083   .     S
C433   C440    1.399   .     A
C434   C438    1.399   .     A
C434   H460    1.083   .     S
C435   C439    1.399   .     A
C435   H461    1.084   .     S
C436   C439    1.399   .     A
C436   H462    1.083   .     S
C437   H463    1.084   .     S
C437   C438    1.399   .     A
C441   C380    1.445   1_655 S
C442   N467    1.158   .     T
C442   C443    1.438   .     S
C443   C450    1.408   .     A
C443   N465    1.367   .     A
C444   C447    1.438   .     S
C444   N468    1.158   .     T
C445   C448    1.438   .     S
C445   N469    1.158   .     T
C446   N470    1.158   .     T
C446   C449    1.438   .     S
C447   N466    1.368   .     A
C447   C451    1.408   .     A
C448   N465    1.367   .     A
C448   C452    1.408   .     A
C449   N466    1.368   .     A
C450   H464    1.080   .     S
C451   H454    1.080   .     S
C452   H455    1.080   .     S
N465   Zn480   2.018   .     S
N466   Zn479   2.018   .     S
O471   Zn479   2.002   .     S
O472   Zn480   2.002   .     S
O473   Zn479   2.002   .     S
O474   Zn480   2.002   .     S
O475   Zn479   1.950   .     S
O476   Zn480   1.950   .     S
O477   Zn479   1.950   .     S
O478   Zn480   1.950   .     S
C481   O534    1.291   .     A
C481   O531    1.292   .     A
C481   C498    1.438   .     S
C482   C486    1.412   .     A
C482   C509    1.408   .     A
C482   H516    1.080   .     S
C483   O535    1.280   .     A
C483   C487    1.366   .     S
C483   O538    1.280   .     A
C484   O537    1.280   .     A
C484   O536    1.280   .     A
C484   C488    1.366   .     S
C485   C512    1.412   .     A
C485   C510    1.412   .     A
C485   C606    1.526   1_545 S
C486   C511    1.412   .     A
C486   C605    1.526   .     S
C488   C7      1.165   1_556 S
C489   H513    1.083   .     S
C489   C500    1.399   .     A
C489   C494    1.380   .     A
C490   C495    1.380   .     A
C490   C501    1.399   .     A
C490   H517    1.083   .     S
C491   H518    1.083   .     S
C491   C496    1.380   .     A
C491   C501    1.399   .     A
C492   O533    1.292   .     A
C492   C499    1.438   .     S
C492   O532    1.291   .     A
C493   C497    1.380   .     A
C493   H519    1.083   .     S
C493   C500    1.399   .     A
C494   C498    1.399   .     A
C494   H520    1.083   .     S
C495   C499    1.399   .     A
C495   H521    1.084   .     S
C496   C499    1.399   .     A
C496   H522    1.083   .     S
C497   H523    1.084   .     S
C497   C498    1.399   .     A
C500   C561    1.445   1_455 S
C501   C560    1.445   .     S
C502   N527    1.158   .     T
C502   C503    1.438   .     S
C503   C510    1.408   .     A
C503   N525    1.367   .     A
C504   C507    1.438   .     S
C504   N528    1.158   .     T
C505   C508    1.438   .     S
C505   N529    1.158   .     T
C506   N530    1.158   .     T
C506   C509    1.438   .     S
C507   N526    1.368   .     A
C507   C511    1.408   .     A
C508   N525    1.367   .     A
C508   C512    1.408   .     A
C509   N526    1.368   .     A
C510   H524    1.080   .     S
C511   H514    1.080   .     S
C512   H515    1.080   .     S
N525   Zn540   2.018   .     S
N526   Zn539   2.018   .     S
O531   Zn539   2.002   .     S
O532   Zn540   2.002   .     S
O533   Zn539   2.002   .     S
O534   Zn540   2.002   .     S
O535   Zn539   1.950   .     S
O536   Zn540   1.950   .     S
O537   Zn539   1.950   .     S
O538   Zn540   1.950   .     S
C541   O594    1.291   .     A
C541   O591    1.292   .     A
C541   C558    1.438   .     S
C542   C546    1.412   .     A
C542   C569    1.408   .     A
C542   H576    1.080   .     S
C543   O595    1.280   .     A
C543   C547    1.366   .     S
C543   O598    1.280   .     A
C544   O597    1.280   .     A
C544   O596    1.280   .     A
C544   C548    1.366   .     S
C545   C572    1.412   .     A
C545   C570    1.412   .     A
C545   C666    1.526   1_545 S
C546   C571    1.412   .     A
C546   C665    1.526   .     S
C548   C67     1.165   1_556 S
C549   H573    1.083   .     S
C549   C560    1.399   .     A
C549   C554    1.380   .     A
C550   C555    1.380   .     A
C550   C561    1.399   .     A
C550   H577    1.083   .     S
C551   H578    1.083   .     S
C551   C556    1.380   .     A
C551   C561    1.399   .     A
C552   O593    1.292   .     A
C552   C559    1.438   .     S
C552   O592    1.291   .     A
C553   C557    1.380   .     A
C553   H579    1.083   .     S
C553   C560    1.399   .     A
C554   C558    1.399   .     A
C554   H580    1.083   .     S
C555   C559    1.399   .     A
C555   H581    1.084   .     S
C556   C559    1.399   .     A
C556   H582    1.083   .     S
C557   H583    1.084   .     S
C557   C558    1.399   .     A
C561   C500    1.445   1_655 S
C562   N587    1.158   .     T
C562   C563    1.438   .     S
C563   C570    1.408   .     A
C563   N585    1.367   .     A
C564   C567    1.438   .     S
C564   N588    1.158   .     T
C565   C568    1.438   .     S
C565   N589    1.158   .     T
C566   N590    1.158   .     T
C566   C569    1.438   .     S
C567   N586    1.368   .     A
C567   C571    1.408   .     A
C568   N585    1.367   .     A
C568   C572    1.408   .     A
C569   N586    1.368   .     A
C570   H584    1.080   .     S
C571   H574    1.080   .     S
C572   H575    1.080   .     S
N585   Zn600   2.018   .     S
N586   Zn599   2.018   .     S
O591   Zn599   2.002   .     S
O592   Zn600   2.002   .     S
O593   Zn599   2.002   .     S
O594   Zn600   2.002   .     S
O595   Zn599   1.950   .     S
O596   Zn600   1.950   .     S
O597   Zn599   1.950   .     S
O598   Zn600   1.950   .     S
C601   O654    1.291   .     A
C601   O651    1.292   .     A
C601   C618    1.438   .     S
C602   C606    1.412   .     A
C602   C629    1.408   .     A
C602   H636    1.080   .     S
C603   O655    1.280   .     A
C603   C607    1.366   .     S
C603   O658    1.280   .     A
C604   O657    1.280   .     A
C604   O656    1.280   .     A
C604   C608    1.366   .     S
C605   C632    1.412   .     A
C605   C630    1.412   .     A
C606   C631    1.412   .     A
C606   C485    1.526   1_565 S
C608   C127    1.165   1_556 S
C609   H633    1.083   .     S
C609   C620    1.399   .     A
C609   C614    1.380   .     A
C610   C615    1.380   .     A
C610   C621    1.399   .     A
C610   H637    1.083   .     S
C611   H638    1.083   .     S
C611   C616    1.380   .     A
C611   C621    1.399   .     A
C612   O653    1.292   .     A
C612   C619    1.438   .     S
C612   O652    1.291   .     A
C613   C617    1.380   .     A
C613   H639    1.083   .     S
C613   C620    1.399   .     A
C614   C618    1.399   .     A
C614   H640    1.083   .     S
C615   C619    1.399   .     A
C615   H641    1.084   .     S
C616   C619    1.399   .     A
C616   H642    1.083   .     S
C617   H643    1.084   .     S
C617   C618    1.399   .     A
C620   C681    1.445   1_455 S
C621   C680    1.445   .     S
C622   N647    1.158   .     T
C622   C623    1.438   .     S
C623   C630    1.408   .     A
C623   N645    1.367   .     A
C624   C627    1.438   .     S
C624   N648    1.158   .     T
C625   C628    1.438   .     S
C625   N649    1.158   .     T
C626   N650    1.158   .     T
C626   C629    1.438   .     S
C627   N646    1.368   .     A
C627   C631    1.408   .     A
C628   N645    1.367   .     A
C628   C632    1.408   .     A
C629   N646    1.368   .     A
C630   H644    1.080   .     S
C631   H634    1.080   .     S
C632   H635    1.080   .     S
N645   Zn660   2.018   .     S
N646   Zn659   2.018   .     S
O651   Zn659   2.002   .     S
O652   Zn660   2.002   .     S
O653   Zn659   2.002   .     S
O654   Zn660   2.002   .     S
O655   Zn659   1.950   .     S
O656   Zn660   1.950   .     S
O657   Zn659   1.950   .     S
O658   Zn660   1.950   .     S
C661   O714    1.291   .     A
C661   O711    1.292   .     A
C661   C678    1.438   .     S
C662   C666    1.412   .     A
C662   C689    1.408   .     A
C662   H696    1.080   .     S
C663   O715    1.280   .     A
C663   C667    1.366   .     S
C663   O718    1.280   .     A
C664   O717    1.280   .     A
C664   O716    1.280   .     A
C664   C668    1.366   .     S
C665   C692    1.412   .     A
C665   C690    1.412   .     A
C666   C691    1.412   .     A
C666   C545    1.526   1_565 S
C668   C187    1.165   1_556 S
C669   H693    1.083   .     S
C669   C680    1.399   .     A
C669   C674    1.380   .     A
C670   C675    1.380   .     A
C670   C681    1.399   .     A
C670   H697    1.083   .     S
C671   H698    1.083   .     S
C671   C676    1.380   .     A
C671   C681    1.399   .     A
C672   O713    1.292   .     A
C672   C679    1.438   .     S
C672   O712    1.291   .     A
C673   C677    1.380   .     A
C673   H699    1.083   .     S
C673   C680    1.399   .     A
C674   C678    1.399   .     A
C674   H700    1.083   .     S
C675   C679    1.399   .     A
C675   H701    1.084   .     S
C676   C679    1.399   .     A
C676   H702    1.083   .     S
C677   H703    1.084   .     S
C677   C678    1.399   .     A
C681   C620    1.445   1_655 S
C682   N707    1.158   .     T
C682   C683    1.438   .     S
C683   C690    1.408   .     A
C683   N705    1.367   .     A
C684   C687    1.438   .     S
C684   N708    1.158   .     T
C685   C688    1.438   .     S
C685   N709    1.158   .     T
C686   N710    1.158   .     T
C686   C689    1.438   .     S
C687   N706    1.368   .     A
C687   C691    1.408   .     A
C688   N705    1.367   .     A
C688   C692    1.408   .     A
C689   N706    1.368   .     A
C690   H704    1.080   .     S
C691   H694    1.080   .     S
C692   H695    1.080   .     S
N705   Zn720   2.018   .     S
N706   Zn719   2.018   .     S
O711   Zn719   2.002   .     S
O712   Zn720   2.002   .     S
O713   Zn719   2.002   .     S
O714   Zn720   2.002   .     S
O715   Zn719   1.950   .     S
O716   Zn720   1.950   .     S
O717   Zn719   1.950   .     S
O718   Zn720   1.950   .     S
