data_str_m3_o10_o17_pcu_sym.126
_audit_creation_date              2020-01-03
_audit_creation_method            'Materials Studio'
_symmetry_space_group_name_H-M    'P1'
_symmetry_Int_Tables_number       1
_symmetry_cell_setting            triclinic
loop_
_symmetry_equiv_pos_as_xyz
  x,y,z
_cell_length_a                    23.2602
_cell_length_b                    26.4708
_cell_length_c                    29.7788
_cell_angle_alpha                 90.1729
_cell_angle_beta                  85.5244
_cell_angle_gamma                 93.6058
loop_
_atom_site_label
_atom_site_type_symbol
_atom_site_fract_x
_atom_site_fract_y
_atom_site_fract_z
_atom_site_U_iso_or_equiv
_atom_site_adp_type
_atom_site_occupancy
Br1    Br    0.06654   0.28126   0.46133   0.00000  Uiso   1.00
Br2    Br    0.06341   0.02969   0.05670   0.00000  Uiso   1.00
C3     C     0.18193   0.26495   0.24774   0.00000  Uiso   1.00
C4     C     0.16452   0.21042   0.40806   0.00000  Uiso   1.00
C5     C     0.16440   0.16632   0.11570   0.00000  Uiso   1.00
C6     C     0.16604   0.16423   0.38493   0.00000  Uiso   1.00
C7     C     0.17073   0.21196   0.09148   0.00000  Uiso   1.00
C8     C     0.15308   0.11761   0.40754   0.00000  Uiso   1.00
C9     C     0.15665   0.21118   0.04682   0.00000  Uiso   1.00
C10    C     0.14562   0.11739   0.45501   0.00000  Uiso   1.00
C11    C     0.14862   0.16442   0.02499   0.00000  Uiso   1.00
C12    C     0.14898   0.16359   0.47802   0.00000  Uiso   1.00
C13    C     0.14195   0.11889   0.04941   0.00000  Uiso   1.00
C14    C     0.15138   0.06837   0.24987   0.00000  Uiso   1.00
C15    C     0.15101   0.20943   0.45456   0.00000  Uiso   1.00
C16    C     0.14636   0.25539   0.02369   0.00000  Uiso   1.00
C17    C     0.12920   0.07346   0.48038   0.00000  Uiso   1.00
C18    C     0.17418   0.07239   0.11689   0.00000  Uiso   1.00
C19    C     0.24051   0.07122   0.10904   0.00000  Uiso   1.00
C20    C     0.26739   0.04873   0.14894   0.00000  Uiso   1.00
C21    C     0.17938   0.26008   0.38323   0.00000  Uiso   1.00
C22    C     0.24440   0.26853   0.37076   0.00000  Uiso   1.00
C23    C     0.25828   0.31848   0.34539   0.00000  Uiso   1.00
C24    C     0.20412   0.25789   0.10963   0.00000  Uiso   1.00
C25    C     0.13501   0.25219   0.47866   0.00000  Uiso   1.00
C26    C     0.26354   0.26751   0.08312   0.00000  Uiso   1.00
C27    C     0.30159   0.22254   0.08437   0.00000  Uiso   1.00
C28    C     0.14430   0.06947   0.38078   0.00000  Uiso   1.00
C29    C     0.07981   0.05763   0.37513   0.00000  Uiso   1.00
C30    C     0.06960   0.01032   0.34669   0.00000  Uiso   1.00
C31    C     0.12207   0.07522   0.02722   0.00000  Uiso   1.00
C32    C     0.18988   0.31923   0.24560   0.00000  Uiso   1.00
C33    C     0.14360   0.01411   0.24707   0.00000  Uiso   1.00
C34    C     0.16694   0.16580   0.33657   0.00000  Uiso   1.00
C35    C     0.16629   0.16748   0.16354   0.00000  Uiso   1.00
C36    C     0.15387   0.11928   0.09485   0.00000  Uiso   1.00
H37    H     0.14084   0.29039   0.04137   0.00000  Uiso   1.00
H38    H     0.25123   0.04880   0.07824   0.00000  Uiso   1.00
H39    H     0.26131   0.10980   0.10316   0.00000  Uiso   1.00
H40    H     0.15978   0.07138   0.15331   0.00000  Uiso   1.00
H41    H     0.15502   0.03721   0.10332   0.00000  Uiso   1.00
H42    H     0.22001   0.33178   0.33023   0.00000  Uiso   1.00
H43    H     0.27393   0.01503   0.36855   0.00000  Uiso   1.00
H44    H     0.29158   0.31309   0.31742   0.00000  Uiso   1.00
H45    H     0.26810   0.26892   0.40180   0.00000  Uiso   1.00
H46    H     0.26000   0.23721   0.34929   0.00000  Uiso   1.00
H47    H     0.15533   0.26075   0.35261   0.00000  Uiso   1.00
H48    H     0.11751   0.03881   0.46426   0.00000  Uiso   1.00
H49    H     0.16625   0.29226   0.40404   0.00000  Uiso   1.00
H50    H     0.30521   0.21043   0.11967   0.00000  Uiso   1.00
H51    H     0.28348   0.19036   0.06481   0.00000  Uiso   1.00
H52    H     0.01223   0.23363   0.06890   0.00000  Uiso   1.00
H53    H     0.25811   0.27731   0.04752   0.00000  Uiso   1.00
H54    H     0.28706   0.30023   0.09789   0.00000  Uiso   1.00
H55    H     0.17863   0.29144   0.10791   0.00000  Uiso   1.00
H56    H     0.21162   0.25403   0.14572   0.00000  Uiso   1.00
H57    H     0.11055   0.32813   0.33365   0.00000  Uiso   1.00
H58    H     0.04402   0.31368   0.36681   0.00000  Uiso   1.00
H59    H     0.23380   0.00269   0.24462   0.00000  Uiso   1.00
H60    H     0.04605   0.02003   0.31728   0.00000  Uiso   1.00
H61    H     0.05526   0.05251   0.40847   0.00000  Uiso   1.00
H62    H     0.06222   0.09026   0.35856   0.00000  Uiso   1.00
H63    H     0.16823   0.07230   0.34710   0.00000  Uiso   1.00
H64    H     0.16356   0.03844   0.39751   0.00000  Uiso   1.00
H65    H     0.09978   0.33056   0.24740   0.00000  Uiso   1.00
H66    H     0.00517   0.12823   0.21667   0.00000  Uiso   1.00
H67    H     0.32829   0.20522   0.28329   0.00000  Uiso   1.00
H68    H     0.26558   0.07535   0.17755   0.00000  Uiso   1.00
H69    H     0.24439   0.01227   0.15947   0.00000  Uiso   1.00
H70    H     0.31355   0.04255   0.13978   0.00000  Uiso   1.00
N71    N     0.31678   0.15265   0.23783   0.00000  Uiso   1.00
N72    N     0.01656   0.18068   0.26217   0.00000  Uiso   1.00
O73    O     0.12975   0.24619   0.25299   0.00000  Uiso   1.00
O74    O     0.20358   0.08714   0.24702   0.00000  Uiso   1.00
O75    O     0.22613   0.23721   0.24519   0.00000  Uiso   1.00
O76    O     0.10720   0.09613   0.25482   0.00000  Uiso   1.00
O77    O     0.11847   0.17117   0.31998   0.00000  Uiso   1.00
O78    O     0.21486   0.16216   0.18003   0.00000  Uiso   1.00
O79    O     0.21485   0.16219   0.31218   0.00000  Uiso   1.00
O80    O     0.11848   0.17115   0.18783   0.00000  Uiso   1.00
Zn81   Zn    0.10231   0.17266   0.25521   0.00000  Uiso   1.00
Zn82   Zn    0.23102   0.16067   0.24479   0.00000  Uiso   1.00
Br83   Br    0.39987   0.28126   0.46133   0.00000  Uiso   1.00
Br84   Br    0.39674   0.02969   0.05670   0.00000  Uiso   1.00
C85    C     0.51527   0.26495   0.24774   0.00000  Uiso   1.00
C86    C     0.49785   0.21042   0.40806   0.00000  Uiso   1.00
C87    C     0.49773   0.16632   0.11570   0.00000  Uiso   1.00
C88    C     0.49938   0.16423   0.38493   0.00000  Uiso   1.00
C89    C     0.50406   0.21196   0.09148   0.00000  Uiso   1.00
C90    C     0.48642   0.11761   0.40754   0.00000  Uiso   1.00
C91    C     0.48998   0.21118   0.04682   0.00000  Uiso   1.00
C92    C     0.47895   0.11739   0.45501   0.00000  Uiso   1.00
C93    C     0.48196   0.16442   0.02499   0.00000  Uiso   1.00
C94    C     0.48231   0.16359   0.47802   0.00000  Uiso   1.00
C95    C     0.47529   0.11889   0.04941   0.00000  Uiso   1.00
C96    C     0.48471   0.06837   0.24987   0.00000  Uiso   1.00
C97    C     0.48434   0.20943   0.45456   0.00000  Uiso   1.00
C98    C     0.47969   0.25539   0.02369   0.00000  Uiso   1.00
C99    C     0.46254   0.07346   0.48038   0.00000  Uiso   1.00
C100   C     0.50752   0.07239   0.11689   0.00000  Uiso   1.00
C101   C     0.57384   0.07122   0.10904   0.00000  Uiso   1.00
C102   C     0.60072   0.04873   0.14894   0.00000  Uiso   1.00
C103   C     0.51271   0.26008   0.38323   0.00000  Uiso   1.00
C104   C     0.57773   0.26853   0.37076   0.00000  Uiso   1.00
C105   C     0.59161   0.31848   0.34539   0.00000  Uiso   1.00
C106   C     0.53746   0.25789   0.10963   0.00000  Uiso   1.00
C107   C     0.46834   0.25219   0.47866   0.00000  Uiso   1.00
C108   C     0.59687   0.26751   0.08312   0.00000  Uiso   1.00
C109   C     0.63492   0.22254   0.08437   0.00000  Uiso   1.00
C110   C     0.47764   0.06947   0.38078   0.00000  Uiso   1.00
C111   C     0.41315   0.05763   0.37513   0.00000  Uiso   1.00
C112   C     0.40293   0.01032   0.34669   0.00000  Uiso   1.00
C113   C     0.45540   0.07522   0.02722   0.00000  Uiso   1.00
C114   C     0.52321   0.31923   0.24560   0.00000  Uiso   1.00
C115   C     0.47694   0.01411   0.24707   0.00000  Uiso   1.00
C116   C     0.50028   0.16580   0.33657   0.00000  Uiso   1.00
C117   C     0.49962   0.16748   0.16354   0.00000  Uiso   1.00
C118   C     0.48721   0.11928   0.09485   0.00000  Uiso   1.00
H119   H     0.47417   0.29039   0.04137   0.00000  Uiso   1.00
H120   H     0.58457   0.04880   0.07824   0.00000  Uiso   1.00
H121   H     0.59465   0.10980   0.10316   0.00000  Uiso   1.00
H122   H     0.49311   0.07138   0.15331   0.00000  Uiso   1.00
H123   H     0.48835   0.03721   0.10332   0.00000  Uiso   1.00
H124   H     0.55334   0.33178   0.33023   0.00000  Uiso   1.00
H125   H     0.60726   0.01503   0.36855   0.00000  Uiso   1.00
H126   H     0.62492   0.31309   0.31742   0.00000  Uiso   1.00
H127   H     0.60144   0.26892   0.40180   0.00000  Uiso   1.00
H128   H     0.59333   0.23721   0.34929   0.00000  Uiso   1.00
H129   H     0.48867   0.26075   0.35261   0.00000  Uiso   1.00
H130   H     0.45084   0.03881   0.46426   0.00000  Uiso   1.00
H131   H     0.49958   0.29226   0.40404   0.00000  Uiso   1.00
H132   H     0.63854   0.21043   0.11967   0.00000  Uiso   1.00
H133   H     0.61681   0.19036   0.06481   0.00000  Uiso   1.00
H134   H     0.34556   0.23363   0.06890   0.00000  Uiso   1.00
H135   H     0.59144   0.27731   0.04752   0.00000  Uiso   1.00
H136   H     0.62039   0.30023   0.09789   0.00000  Uiso   1.00
H137   H     0.51196   0.29144   0.10791   0.00000  Uiso   1.00
H138   H     0.54495   0.25403   0.14572   0.00000  Uiso   1.00
H139   H     0.44388   0.32813   0.33365   0.00000  Uiso   1.00
H140   H     0.37735   0.31368   0.36681   0.00000  Uiso   1.00
H141   H     0.56713   0.00269   0.24462   0.00000  Uiso   1.00
H142   H     0.37938   0.02003   0.31728   0.00000  Uiso   1.00
H143   H     0.38860   0.05251   0.40847   0.00000  Uiso   1.00
H144   H     0.39555   0.09026   0.35856   0.00000  Uiso   1.00
H145   H     0.50156   0.07230   0.34710   0.00000  Uiso   1.00
H146   H     0.49689   0.03844   0.39751   0.00000  Uiso   1.00
H147   H     0.43311   0.33056   0.24740   0.00000  Uiso   1.00
H148   H     0.33850   0.12823   0.21667   0.00000  Uiso   1.00
H149   H     0.66162   0.20522   0.28329   0.00000  Uiso   1.00
H150   H     0.59892   0.07535   0.17755   0.00000  Uiso   1.00
H151   H     0.57772   0.01227   0.15947   0.00000  Uiso   1.00
H152   H     0.64688   0.04255   0.13978   0.00000  Uiso   1.00
N153   N     0.65011   0.15265   0.23783   0.00000  Uiso   1.00
N154   N     0.34989   0.18068   0.26217   0.00000  Uiso   1.00
O155   O     0.46308   0.24619   0.25299   0.00000  Uiso   1.00
O156   O     0.53692   0.08714   0.24702   0.00000  Uiso   1.00
O157   O     0.55946   0.23721   0.24519   0.00000  Uiso   1.00
O158   O     0.44054   0.09613   0.25482   0.00000  Uiso   1.00
O159   O     0.45181   0.17117   0.31998   0.00000  Uiso   1.00
O160   O     0.54819   0.16216   0.18003   0.00000  Uiso   1.00
O161   O     0.54819   0.16219   0.31218   0.00000  Uiso   1.00
O162   O     0.45181   0.17115   0.18783   0.00000  Uiso   1.00
Zn163  Zn    0.43565   0.17266   0.25521   0.00000  Uiso   1.00
Zn164  Zn    0.56435   0.16067   0.24479   0.00000  Uiso   1.00
Br165  Br    0.73321   0.28126   0.46133   0.00000  Uiso   1.00
Br166  Br    0.73007   0.02969   0.05670   0.00000  Uiso   1.00
C167   C     0.84860   0.26495   0.24774   0.00000  Uiso   1.00
C168   C     0.83118   0.21042   0.40806   0.00000  Uiso   1.00
C169   C     0.83106   0.16632   0.11570   0.00000  Uiso   1.00
C170   C     0.83271   0.16423   0.38493   0.00000  Uiso   1.00
C171   C     0.83740   0.21196   0.09148   0.00000  Uiso   1.00
C172   C     0.81975   0.11761   0.40754   0.00000  Uiso   1.00
C173   C     0.82332   0.21118   0.04682   0.00000  Uiso   1.00
C174   C     0.81229   0.11739   0.45501   0.00000  Uiso   1.00
C175   C     0.81529   0.16442   0.02499   0.00000  Uiso   1.00
C176   C     0.81564   0.16359   0.47802   0.00000  Uiso   1.00
C177   C     0.80862   0.11889   0.04941   0.00000  Uiso   1.00
C178   C     0.81804   0.06837   0.24987   0.00000  Uiso   1.00
C179   C     0.81768   0.20943   0.45456   0.00000  Uiso   1.00
C180   C     0.81303   0.25539   0.02369   0.00000  Uiso   1.00
C181   C     0.79587   0.07346   0.48038   0.00000  Uiso   1.00
C182   C     0.84085   0.07239   0.11689   0.00000  Uiso   1.00
C183   C     0.90717   0.07122   0.10904   0.00000  Uiso   1.00
C184   C     0.93405   0.04873   0.14894   0.00000  Uiso   1.00
C185   C     0.84605   0.26008   0.38323   0.00000  Uiso   1.00
C186   C     0.91106   0.26853   0.37076   0.00000  Uiso   1.00
C187   C     0.92494   0.31848   0.34539   0.00000  Uiso   1.00
C188   C     0.87079   0.25789   0.10963   0.00000  Uiso   1.00
C189   C     0.80167   0.25219   0.47866   0.00000  Uiso   1.00
C190   C     0.93021   0.26751   0.08312   0.00000  Uiso   1.00
C191   C     0.96826   0.22254   0.08437   0.00000  Uiso   1.00
C192   C     0.81097   0.06947   0.38078   0.00000  Uiso   1.00
C193   C     0.74648   0.05763   0.37513   0.00000  Uiso   1.00
C194   C     0.73627   0.01032   0.34669   0.00000  Uiso   1.00
C195   C     0.78873   0.07522   0.02722   0.00000  Uiso   1.00
C196   C     0.85655   0.31923   0.24560   0.00000  Uiso   1.00
C197   C     0.81027   0.01411   0.24707   0.00000  Uiso   1.00
C198   C     0.83361   0.16580   0.33657   0.00000  Uiso   1.00
C199   C     0.83296   0.16748   0.16354   0.00000  Uiso   1.00
C200   C     0.82054   0.11928   0.09485   0.00000  Uiso   1.00
H201   H     0.80751   0.29039   0.04137   0.00000  Uiso   1.00
H202   H     0.91790   0.04880   0.07824   0.00000  Uiso   1.00
H203   H     0.92798   0.10980   0.10316   0.00000  Uiso   1.00
H204   H     0.82645   0.07138   0.15331   0.00000  Uiso   1.00
H205   H     0.82168   0.03721   0.10332   0.00000  Uiso   1.00
H206   H     0.88668   0.33178   0.33023   0.00000  Uiso   1.00
H207   H     0.94060   0.01503   0.36855   0.00000  Uiso   1.00
H208   H     0.95825   0.31309   0.31742   0.00000  Uiso   1.00
H209   H     0.93477   0.26892   0.40180   0.00000  Uiso   1.00
H210   H     0.92667   0.23721   0.34929   0.00000  Uiso   1.00
H211   H     0.82200   0.26075   0.35261   0.00000  Uiso   1.00
H212   H     0.78417   0.03881   0.46426   0.00000  Uiso   1.00
H213   H     0.83292   0.29226   0.40404   0.00000  Uiso   1.00
H214   H     0.97188   0.21043   0.11967   0.00000  Uiso   1.00
H215   H     0.95014   0.19036   0.06481   0.00000  Uiso   1.00
H216   H     0.67890   0.23363   0.06890   0.00000  Uiso   1.00
H217   H     0.92477   0.27731   0.04752   0.00000  Uiso   1.00
H218   H     0.95373   0.30023   0.09789   0.00000  Uiso   1.00
H219   H     0.84530   0.29144   0.10791   0.00000  Uiso   1.00
H220   H     0.87829   0.25403   0.14572   0.00000  Uiso   1.00
H221   H     0.77721   0.32813   0.33365   0.00000  Uiso   1.00
H222   H     0.71069   0.31368   0.36681   0.00000  Uiso   1.00
H223   H     0.90046   0.00269   0.24462   0.00000  Uiso   1.00
H224   H     0.71272   0.02003   0.31728   0.00000  Uiso   1.00
H225   H     0.72193   0.05251   0.40847   0.00000  Uiso   1.00
H226   H     0.72888   0.09026   0.35856   0.00000  Uiso   1.00
H227   H     0.83489   0.07230   0.34710   0.00000  Uiso   1.00
H228   H     0.83022   0.03844   0.39751   0.00000  Uiso   1.00
H229   H     0.76645   0.33056   0.24740   0.00000  Uiso   1.00
H230   H     0.67184   0.12823   0.21667   0.00000  Uiso   1.00
H231   H     0.99495   0.20522   0.28329   0.00000  Uiso   1.00
H232   H     0.93225   0.07535   0.17755   0.00000  Uiso   1.00
H233   H     0.91106   0.01227   0.15947   0.00000  Uiso   1.00
H234   H     0.98021   0.04255   0.13978   0.00000  Uiso   1.00
N235   N     0.98344   0.15265   0.23783   0.00000  Uiso   1.00
N236   N     0.68322   0.18068   0.26217   0.00000  Uiso   1.00
O237   O     0.79642   0.24619   0.25299   0.00000  Uiso   1.00
O238   O     0.87025   0.08714   0.24702   0.00000  Uiso   1.00
O239   O     0.89280   0.23721   0.24519   0.00000  Uiso   1.00
O240   O     0.77387   0.09613   0.25482   0.00000  Uiso   1.00
O241   O     0.78514   0.17117   0.31998   0.00000  Uiso   1.00
O242   O     0.88153   0.16216   0.18003   0.00000  Uiso   1.00
O243   O     0.88152   0.16219   0.31218   0.00000  Uiso   1.00
O244   O     0.78515   0.17115   0.18783   0.00000  Uiso   1.00
Zn245  Zn    0.76898   0.17266   0.25521   0.00000  Uiso   1.00
Zn246  Zn    0.89769   0.16067   0.24479   0.00000  Uiso   1.00
Br247  Br    0.06654   0.61460   0.46133   0.00000  Uiso   1.00
Br248  Br    0.06341   0.36302   0.05670   0.00000  Uiso   1.00
C249   C     0.18193   0.59829   0.24774   0.00000  Uiso   1.00
C250   C     0.16452   0.54375   0.40806   0.00000  Uiso   1.00
C251   C     0.16440   0.49966   0.11570   0.00000  Uiso   1.00
C252   C     0.16604   0.49757   0.38493   0.00000  Uiso   1.00
C253   C     0.17073   0.54530   0.09148   0.00000  Uiso   1.00
C254   C     0.15308   0.45094   0.40754   0.00000  Uiso   1.00
C255   C     0.15665   0.54452   0.04682   0.00000  Uiso   1.00
C256   C     0.14562   0.45072   0.45501   0.00000  Uiso   1.00
C257   C     0.14862   0.49775   0.02499   0.00000  Uiso   1.00
C258   C     0.14898   0.49693   0.47802   0.00000  Uiso   1.00
C259   C     0.14195   0.45222   0.04941   0.00000  Uiso   1.00
C260   C     0.15138   0.40171   0.24987   0.00000  Uiso   1.00
C261   C     0.15101   0.54277   0.45456   0.00000  Uiso   1.00
C262   C     0.14636   0.58872   0.02369   0.00000  Uiso   1.00
C263   C     0.12920   0.40680   0.48038   0.00000  Uiso   1.00
C264   C     0.17418   0.40572   0.11689   0.00000  Uiso   1.00
C265   C     0.24051   0.40455   0.10904   0.00000  Uiso   1.00
C266   C     0.26739   0.38207   0.14894   0.00000  Uiso   1.00
C267   C     0.17938   0.59341   0.38323   0.00000  Uiso   1.00
C268   C     0.24440   0.60186   0.37076   0.00000  Uiso   1.00
C269   C     0.25828   0.65182   0.34539   0.00000  Uiso   1.00
C270   C     0.20412   0.59122   0.10963   0.00000  Uiso   1.00
C271   C     0.13501   0.58552   0.47866   0.00000  Uiso   1.00
C272   C     0.26354   0.60084   0.08312   0.00000  Uiso   1.00
C273   C     0.30159   0.55587   0.08437   0.00000  Uiso   1.00
C274   C     0.14430   0.40280   0.38078   0.00000  Uiso   1.00
C275   C     0.07981   0.39097   0.37513   0.00000  Uiso   1.00
C276   C     0.06960   0.34365   0.34669   0.00000  Uiso   1.00
C277   C     0.12207   0.40855   0.02722   0.00000  Uiso   1.00
C278   C     0.18988   0.65256   0.24560   0.00000  Uiso   1.00
C279   C     0.14360   0.34744   0.24707   0.00000  Uiso   1.00
C280   C     0.16694   0.49913   0.33657   0.00000  Uiso   1.00
C281   C     0.16629   0.50082   0.16354   0.00000  Uiso   1.00
C282   C     0.15387   0.45261   0.09485   0.00000  Uiso   1.00
H283   H     0.14084   0.62373   0.04137   0.00000  Uiso   1.00
H284   H     0.25123   0.38213   0.07824   0.00000  Uiso   1.00
H285   H     0.26131   0.44313   0.10316   0.00000  Uiso   1.00
H286   H     0.15978   0.40471   0.15331   0.00000  Uiso   1.00
H287   H     0.15502   0.37054   0.10332   0.00000  Uiso   1.00
H288   H     0.22001   0.66512   0.33023   0.00000  Uiso   1.00
H289   H     0.27393   0.34837   0.36855   0.00000  Uiso   1.00
H290   H     0.29158   0.64643   0.31742   0.00000  Uiso   1.00
H291   H     0.26810   0.60226   0.40180   0.00000  Uiso   1.00
H292   H     0.26000   0.57054   0.34929   0.00000  Uiso   1.00
H293   H     0.15533   0.59408   0.35261   0.00000  Uiso   1.00
H294   H     0.11751   0.37214   0.46426   0.00000  Uiso   1.00
H295   H     0.16625   0.62559   0.40404   0.00000  Uiso   1.00
H296   H     0.30521   0.54377   0.11967   0.00000  Uiso   1.00
H297   H     0.28348   0.52370   0.06481   0.00000  Uiso   1.00
H298   H     0.01223   0.56696   0.06890   0.00000  Uiso   1.00
H299   H     0.25811   0.61064   0.04752   0.00000  Uiso   1.00
H300   H     0.28706   0.63356   0.09789   0.00000  Uiso   1.00
H301   H     0.17863   0.62477   0.10791   0.00000  Uiso   1.00
H302   H     0.21162   0.58737   0.14572   0.00000  Uiso   1.00
H303   H     0.11055   0.66146   0.33365   0.00000  Uiso   1.00
H304   H     0.04402   0.64701   0.36681   0.00000  Uiso   1.00
H305   H     0.23380   0.33603   0.24462   0.00000  Uiso   1.00
H306   H     0.04605   0.35336   0.31728   0.00000  Uiso   1.00
H307   H     0.05526   0.38585   0.40847   0.00000  Uiso   1.00
H308   H     0.06222   0.42359   0.35856   0.00000  Uiso   1.00
H309   H     0.16823   0.40563   0.34710   0.00000  Uiso   1.00
H310   H     0.16356   0.37177   0.39751   0.00000  Uiso   1.00
H311   H     0.09978   0.66389   0.24740   0.00000  Uiso   1.00
H312   H     0.00517   0.46157   0.21667   0.00000  Uiso   1.00
H313   H     0.32829   0.53856   0.28329   0.00000  Uiso   1.00
H314   H     0.26558   0.40868   0.17755   0.00000  Uiso   1.00
H315   H     0.24439   0.34561   0.15947   0.00000  Uiso   1.00
H316   H     0.31355   0.37588   0.13978   0.00000  Uiso   1.00
N317   N     0.31678   0.48598   0.23783   0.00000  Uiso   1.00
N318   N     0.01656   0.51402   0.26217   0.00000  Uiso   1.00
O319   O     0.12975   0.57952   0.25299   0.00000  Uiso   1.00
O320   O     0.20358   0.42048   0.24702   0.00000  Uiso   1.00
O321   O     0.22613   0.57054   0.24519   0.00000  Uiso   1.00
O322   O     0.10720   0.42946   0.25482   0.00000  Uiso   1.00
O323   O     0.11847   0.50450   0.31998   0.00000  Uiso   1.00
O324   O     0.21486   0.49550   0.18003   0.00000  Uiso   1.00
O325   O     0.21485   0.49552   0.31218   0.00000  Uiso   1.00
O326   O     0.11848   0.50448   0.18783   0.00000  Uiso   1.00
Zn327  Zn    0.10231   0.50600   0.25521   0.00000  Uiso   1.00
Zn328  Zn    0.23102   0.49400   0.24479   0.00000  Uiso   1.00
Br329  Br    0.39987   0.61460   0.46133   0.00000  Uiso   1.00
Br330  Br    0.39674   0.36302   0.05670   0.00000  Uiso   1.00
C331   C     0.51527   0.59829   0.24774   0.00000  Uiso   1.00
C332   C     0.49785   0.54375   0.40806   0.00000  Uiso   1.00
C333   C     0.49773   0.49966   0.11570   0.00000  Uiso   1.00
C334   C     0.49938   0.49757   0.38493   0.00000  Uiso   1.00
C335   C     0.50406   0.54530   0.09148   0.00000  Uiso   1.00
C336   C     0.48642   0.45094   0.40754   0.00000  Uiso   1.00
C337   C     0.48998   0.54452   0.04682   0.00000  Uiso   1.00
C338   C     0.47895   0.45072   0.45501   0.00000  Uiso   1.00
C339   C     0.48196   0.49775   0.02499   0.00000  Uiso   1.00
C340   C     0.48231   0.49693   0.47802   0.00000  Uiso   1.00
C341   C     0.47529   0.45222   0.04941   0.00000  Uiso   1.00
C342   C     0.48471   0.40171   0.24987   0.00000  Uiso   1.00
C343   C     0.48434   0.54277   0.45456   0.00000  Uiso   1.00
C344   C     0.47969   0.58872   0.02369   0.00000  Uiso   1.00
C345   C     0.46254   0.40680   0.48038   0.00000  Uiso   1.00
C346   C     0.50752   0.40572   0.11689   0.00000  Uiso   1.00
C347   C     0.57384   0.40455   0.10904   0.00000  Uiso   1.00
C348   C     0.60072   0.38207   0.14894   0.00000  Uiso   1.00
C349   C     0.51271   0.59341   0.38323   0.00000  Uiso   1.00
C350   C     0.57773   0.60186   0.37076   0.00000  Uiso   1.00
C351   C     0.59161   0.65182   0.34539   0.00000  Uiso   1.00
C352   C     0.53746   0.59122   0.10963   0.00000  Uiso   1.00
C353   C     0.46834   0.58552   0.47866   0.00000  Uiso   1.00
C354   C     0.59687   0.60084   0.08312   0.00000  Uiso   1.00
C355   C     0.63492   0.55587   0.08437   0.00000  Uiso   1.00
C356   C     0.47764   0.40280   0.38078   0.00000  Uiso   1.00
C357   C     0.41315   0.39097   0.37513   0.00000  Uiso   1.00
C358   C     0.40293   0.34365   0.34669   0.00000  Uiso   1.00
C359   C     0.45540   0.40855   0.02722   0.00000  Uiso   1.00
C360   C     0.52321   0.65256   0.24560   0.00000  Uiso   1.00
C361   C     0.47694   0.34744   0.24707   0.00000  Uiso   1.00
C362   C     0.50028   0.49913   0.33657   0.00000  Uiso   1.00
C363   C     0.49962   0.50082   0.16354   0.00000  Uiso   1.00
C364   C     0.48721   0.45261   0.09485   0.00000  Uiso   1.00
H365   H     0.47417   0.62373   0.04137   0.00000  Uiso   1.00
H366   H     0.58457   0.38213   0.07824   0.00000  Uiso   1.00
H367   H     0.59465   0.44313   0.10316   0.00000  Uiso   1.00
H368   H     0.49311   0.40471   0.15331   0.00000  Uiso   1.00
H369   H     0.48835   0.37054   0.10332   0.00000  Uiso   1.00
H370   H     0.55334   0.66512   0.33023   0.00000  Uiso   1.00
H371   H     0.60726   0.34837   0.36855   0.00000  Uiso   1.00
H372   H     0.62492   0.64643   0.31742   0.00000  Uiso   1.00
H373   H     0.60144   0.60226   0.40180   0.00000  Uiso   1.00
H374   H     0.59333   0.57054   0.34929   0.00000  Uiso   1.00
H375   H     0.48867   0.59408   0.35261   0.00000  Uiso   1.00
H376   H     0.45084   0.37214   0.46426   0.00000  Uiso   1.00
H377   H     0.49958   0.62559   0.40404   0.00000  Uiso   1.00
H378   H     0.63854   0.54377   0.11967   0.00000  Uiso   1.00
H379   H     0.61681   0.52370   0.06481   0.00000  Uiso   1.00
H380   H     0.34556   0.56696   0.06890   0.00000  Uiso   1.00
H381   H     0.59144   0.61064   0.04752   0.00000  Uiso   1.00
H382   H     0.62039   0.63356   0.09789   0.00000  Uiso   1.00
H383   H     0.51196   0.62477   0.10791   0.00000  Uiso   1.00
H384   H     0.54495   0.58737   0.14572   0.00000  Uiso   1.00
H385   H     0.44388   0.66146   0.33365   0.00000  Uiso   1.00
H386   H     0.37735   0.64701   0.36681   0.00000  Uiso   1.00
H387   H     0.56713   0.33603   0.24462   0.00000  Uiso   1.00
H388   H     0.37938   0.35336   0.31728   0.00000  Uiso   1.00
H389   H     0.38860   0.38585   0.40847   0.00000  Uiso   1.00
H390   H     0.39555   0.42359   0.35856   0.00000  Uiso   1.00
H391   H     0.50156   0.40563   0.34710   0.00000  Uiso   1.00
H392   H     0.49689   0.37177   0.39751   0.00000  Uiso   1.00
H393   H     0.43311   0.66389   0.24740   0.00000  Uiso   1.00
H394   H     0.33850   0.46157   0.21667   0.00000  Uiso   1.00
H395   H     0.66162   0.53856   0.28329   0.00000  Uiso   1.00
H396   H     0.59892   0.40868   0.17755   0.00000  Uiso   1.00
H397   H     0.57772   0.34561   0.15947   0.00000  Uiso   1.00
H398   H     0.64688   0.37588   0.13978   0.00000  Uiso   1.00
N399   N     0.65011   0.48598   0.23783   0.00000  Uiso   1.00
N400   N     0.34989   0.51402   0.26217   0.00000  Uiso   1.00
O401   O     0.46308   0.57952   0.25299   0.00000  Uiso   1.00
O402   O     0.53692   0.42048   0.24702   0.00000  Uiso   1.00
O403   O     0.55946   0.57054   0.24519   0.00000  Uiso   1.00
O404   O     0.44054   0.42946   0.25482   0.00000  Uiso   1.00
O405   O     0.45181   0.50450   0.31998   0.00000  Uiso   1.00
O406   O     0.54819   0.49550   0.18003   0.00000  Uiso   1.00
O407   O     0.54819   0.49552   0.31218   0.00000  Uiso   1.00
O408   O     0.45181   0.50448   0.18783   0.00000  Uiso   1.00
Zn409  Zn    0.43565   0.50600   0.25521   0.00000  Uiso   1.00
Zn410  Zn    0.56435   0.49400   0.24479   0.00000  Uiso   1.00
Br411  Br    0.73321   0.61460   0.46133   0.00000  Uiso   1.00
Br412  Br    0.73007   0.36302   0.05670   0.00000  Uiso   1.00
C413   C     0.84860   0.59829   0.24774   0.00000  Uiso   1.00
C414   C     0.83118   0.54375   0.40806   0.00000  Uiso   1.00
C415   C     0.83106   0.49966   0.11570   0.00000  Uiso   1.00
C416   C     0.83271   0.49757   0.38493   0.00000  Uiso   1.00
C417   C     0.83740   0.54530   0.09148   0.00000  Uiso   1.00
C418   C     0.81975   0.45094   0.40754   0.00000  Uiso   1.00
C419   C     0.82332   0.54452   0.04682   0.00000  Uiso   1.00
C420   C     0.81229   0.45072   0.45501   0.00000  Uiso   1.00
C421   C     0.81529   0.49775   0.02499   0.00000  Uiso   1.00
C422   C     0.81564   0.49693   0.47802   0.00000  Uiso   1.00
C423   C     0.80862   0.45222   0.04941   0.00000  Uiso   1.00
C424   C     0.81804   0.40171   0.24987   0.00000  Uiso   1.00
C425   C     0.81768   0.54277   0.45456   0.00000  Uiso   1.00
C426   C     0.81303   0.58872   0.02369   0.00000  Uiso   1.00
C427   C     0.79587   0.40680   0.48038   0.00000  Uiso   1.00
C428   C     0.84085   0.40572   0.11689   0.00000  Uiso   1.00
C429   C     0.90717   0.40455   0.10904   0.00000  Uiso   1.00
C430   C     0.93405   0.38207   0.14894   0.00000  Uiso   1.00
C431   C     0.84605   0.59341   0.38323   0.00000  Uiso   1.00
C432   C     0.91106   0.60186   0.37076   0.00000  Uiso   1.00
C433   C     0.92494   0.65182   0.34539   0.00000  Uiso   1.00
C434   C     0.87079   0.59122   0.10963   0.00000  Uiso   1.00
C435   C     0.80167   0.58552   0.47866   0.00000  Uiso   1.00
C436   C     0.93021   0.60084   0.08312   0.00000  Uiso   1.00
C437   C     0.96826   0.55587   0.08437   0.00000  Uiso   1.00
C438   C     0.81097   0.40280   0.38078   0.00000  Uiso   1.00
C439   C     0.74648   0.39097   0.37513   0.00000  Uiso   1.00
C440   C     0.73627   0.34365   0.34669   0.00000  Uiso   1.00
C441   C     0.78873   0.40855   0.02722   0.00000  Uiso   1.00
C442   C     0.85655   0.65256   0.24560   0.00000  Uiso   1.00
C443   C     0.81027   0.34744   0.24707   0.00000  Uiso   1.00
C444   C     0.83361   0.49913   0.33657   0.00000  Uiso   1.00
C445   C     0.83296   0.50082   0.16354   0.00000  Uiso   1.00
C446   C     0.82054   0.45261   0.09485   0.00000  Uiso   1.00
H447   H     0.80751   0.62373   0.04137   0.00000  Uiso   1.00
H448   H     0.91790   0.38213   0.07824   0.00000  Uiso   1.00
H449   H     0.92798   0.44313   0.10316   0.00000  Uiso   1.00
H450   H     0.82645   0.40471   0.15331   0.00000  Uiso   1.00
H451   H     0.82168   0.37054   0.10332   0.00000  Uiso   1.00
H452   H     0.88668   0.66512   0.33023   0.00000  Uiso   1.00
H453   H     0.94060   0.34837   0.36855   0.00000  Uiso   1.00
H454   H     0.95825   0.64643   0.31742   0.00000  Uiso   1.00
H455   H     0.93477   0.60226   0.40180   0.00000  Uiso   1.00
H456   H     0.92667   0.57054   0.34929   0.00000  Uiso   1.00
H457   H     0.82200   0.59408   0.35261   0.00000  Uiso   1.00
H458   H     0.78417   0.37214   0.46426   0.00000  Uiso   1.00
H459   H     0.83292   0.62559   0.40404   0.00000  Uiso   1.00
H460   H     0.97188   0.54377   0.11967   0.00000  Uiso   1.00
H461   H     0.95014   0.52370   0.06481   0.00000  Uiso   1.00
H462   H     0.67890   0.56696   0.06890   0.00000  Uiso   1.00
H463   H     0.92477   0.61064   0.04752   0.00000  Uiso   1.00
H464   H     0.95373   0.63356   0.09789   0.00000  Uiso   1.00
H465   H     0.84530   0.62477   0.10791   0.00000  Uiso   1.00
H466   H     0.87829   0.58737   0.14572   0.00000  Uiso   1.00
H467   H     0.77721   0.66146   0.33365   0.00000  Uiso   1.00
H468   H     0.71069   0.64701   0.36681   0.00000  Uiso   1.00
H469   H     0.90046   0.33603   0.24462   0.00000  Uiso   1.00
H470   H     0.71272   0.35336   0.31728   0.00000  Uiso   1.00
H471   H     0.72193   0.38585   0.40847   0.00000  Uiso   1.00
H472   H     0.72888   0.42359   0.35856   0.00000  Uiso   1.00
H473   H     0.83489   0.40563   0.34710   0.00000  Uiso   1.00
H474   H     0.83022   0.37177   0.39751   0.00000  Uiso   1.00
H475   H     0.76645   0.66389   0.24740   0.00000  Uiso   1.00
H476   H     0.67184   0.46157   0.21667   0.00000  Uiso   1.00
H477   H     0.99495   0.53856   0.28329   0.00000  Uiso   1.00
H478   H     0.93225   0.40868   0.17755   0.00000  Uiso   1.00
H479   H     0.91106   0.34561   0.15947   0.00000  Uiso   1.00
H480   H     0.98021   0.37588   0.13978   0.00000  Uiso   1.00
N481   N     0.98344   0.48598   0.23783   0.00000  Uiso   1.00
N482   N     0.68322   0.51402   0.26217   0.00000  Uiso   1.00
O483   O     0.79642   0.57952   0.25299   0.00000  Uiso   1.00
O484   O     0.87025   0.42048   0.24702   0.00000  Uiso   1.00
O485   O     0.89280   0.57054   0.24519   0.00000  Uiso   1.00
O486   O     0.77387   0.42946   0.25482   0.00000  Uiso   1.00
O487   O     0.78514   0.50450   0.31998   0.00000  Uiso   1.00
O488   O     0.88153   0.49550   0.18003   0.00000  Uiso   1.00
O489   O     0.88152   0.49552   0.31218   0.00000  Uiso   1.00
O490   O     0.78515   0.50448   0.18783   0.00000  Uiso   1.00
Zn491  Zn    0.76898   0.50600   0.25521   0.00000  Uiso   1.00
Zn492  Zn    0.89769   0.49400   0.24479   0.00000  Uiso   1.00
Br493  Br    0.06654   0.94793   0.46133   0.00000  Uiso   1.00
Br494  Br    0.06341   0.69635   0.05670   0.00000  Uiso   1.00
C495   C     0.18193   0.93162   0.24774   0.00000  Uiso   1.00
C496   C     0.16452   0.87709   0.40806   0.00000  Uiso   1.00
C497   C     0.16440   0.83299   0.11570   0.00000  Uiso   1.00
C498   C     0.16604   0.83090   0.38493   0.00000  Uiso   1.00
C499   C     0.17073   0.87863   0.09148   0.00000  Uiso   1.00
C500   C     0.15308   0.78428   0.40754   0.00000  Uiso   1.00
C501   C     0.15665   0.87785   0.04682   0.00000  Uiso   1.00
C502   C     0.14562   0.78406   0.45501   0.00000  Uiso   1.00
C503   C     0.14862   0.83108   0.02499   0.00000  Uiso   1.00
C504   C     0.14898   0.83026   0.47802   0.00000  Uiso   1.00
C505   C     0.14195   0.78555   0.04941   0.00000  Uiso   1.00
C506   C     0.15138   0.73504   0.24987   0.00000  Uiso   1.00
C507   C     0.15101   0.87610   0.45456   0.00000  Uiso   1.00
C508   C     0.14636   0.92205   0.02369   0.00000  Uiso   1.00
C509   C     0.12920   0.74013   0.48038   0.00000  Uiso   1.00
C510   C     0.17418   0.73906   0.11689   0.00000  Uiso   1.00
C511   C     0.24051   0.73788   0.10904   0.00000  Uiso   1.00
C512   C     0.26739   0.71540   0.14894   0.00000  Uiso   1.00
C513   C     0.17938   0.92675   0.38323   0.00000  Uiso   1.00
C514   C     0.24440   0.93520   0.37076   0.00000  Uiso   1.00
C515   C     0.25828   0.98515   0.34539   0.00000  Uiso   1.00
C516   C     0.20412   0.92456   0.10963   0.00000  Uiso   1.00
C517   C     0.13501   0.91886   0.47866   0.00000  Uiso   1.00
C518   C     0.26354   0.93417   0.08312   0.00000  Uiso   1.00
C519   C     0.30159   0.88920   0.08437   0.00000  Uiso   1.00
C520   C     0.14430   0.73614   0.38078   0.00000  Uiso   1.00
C521   C     0.07981   0.72430   0.37513   0.00000  Uiso   1.00
C522   C     0.06960   0.67698   0.34669   0.00000  Uiso   1.00
C523   C     0.12207   0.74188   0.02722   0.00000  Uiso   1.00
C524   C     0.18988   0.98589   0.24560   0.00000  Uiso   1.00
C525   C     0.14360   0.68078   0.24707   0.00000  Uiso   1.00
C526   C     0.16694   0.83246   0.33657   0.00000  Uiso   1.00
C527   C     0.16629   0.83415   0.16354   0.00000  Uiso   1.00
C528   C     0.15387   0.78594   0.09485   0.00000  Uiso   1.00
H529   H     0.14084   0.95706   0.04137   0.00000  Uiso   1.00
H530   H     0.25123   0.71547   0.07824   0.00000  Uiso   1.00
H531   H     0.26131   0.77646   0.10316   0.00000  Uiso   1.00
H532   H     0.15978   0.73805   0.15331   0.00000  Uiso   1.00
H533   H     0.15502   0.70388   0.10332   0.00000  Uiso   1.00
H534   H     0.22001   0.99845   0.33023   0.00000  Uiso   1.00
H535   H     0.27393   0.68170   0.36855   0.00000  Uiso   1.00
H536   H     0.29158   0.97976   0.31742   0.00000  Uiso   1.00
H537   H     0.26810   0.93559   0.40180   0.00000  Uiso   1.00
H538   H     0.26000   0.90388   0.34929   0.00000  Uiso   1.00
H539   H     0.15533   0.92742   0.35261   0.00000  Uiso   1.00
H540   H     0.11751   0.70548   0.46426   0.00000  Uiso   1.00
H541   H     0.16625   0.95892   0.40404   0.00000  Uiso   1.00
H542   H     0.30521   0.87710   0.11967   0.00000  Uiso   1.00
H543   H     0.28348   0.85703   0.06481   0.00000  Uiso   1.00
H544   H     0.01223   0.90030   0.06890   0.00000  Uiso   1.00
H545   H     0.25811   0.94397   0.04752   0.00000  Uiso   1.00
H546   H     0.28706   0.96689   0.09789   0.00000  Uiso   1.00
H547   H     0.17863   0.95811   0.10791   0.00000  Uiso   1.00
H548   H     0.21162   0.92070   0.14572   0.00000  Uiso   1.00
H549   H     0.11055   0.99479   0.33365   0.00000  Uiso   1.00
H550   H     0.04402   0.98035   0.36681   0.00000  Uiso   1.00
H551   H     0.23380   0.66936   0.24462   0.00000  Uiso   1.00
H552   H     0.04605   0.68670   0.31728   0.00000  Uiso   1.00
H553   H     0.05526   0.71918   0.40847   0.00000  Uiso   1.00
H554   H     0.06222   0.75692   0.35856   0.00000  Uiso   1.00
H555   H     0.16823   0.73896   0.34710   0.00000  Uiso   1.00
H556   H     0.16356   0.70510   0.39751   0.00000  Uiso   1.00
H557   H     0.09978   0.99723   0.24740   0.00000  Uiso   1.00
H558   H     0.00517   0.79490   0.21667   0.00000  Uiso   1.00
H559   H     0.32829   0.87189   0.28329   0.00000  Uiso   1.00
H560   H     0.26558   0.74202   0.17755   0.00000  Uiso   1.00
H561   H     0.24439   0.67894   0.15947   0.00000  Uiso   1.00
H562   H     0.31355   0.70922   0.13978   0.00000  Uiso   1.00
N563   N     0.31678   0.81932   0.23783   0.00000  Uiso   1.00
N564   N     0.01656   0.84735   0.26217   0.00000  Uiso   1.00
O565   O     0.12975   0.91286   0.25299   0.00000  Uiso   1.00
O566   O     0.20358   0.75381   0.24702   0.00000  Uiso   1.00
O567   O     0.22613   0.90387   0.24519   0.00000  Uiso   1.00
O568   O     0.10720   0.76279   0.25482   0.00000  Uiso   1.00
O569   O     0.11847   0.83784   0.31998   0.00000  Uiso   1.00
O570   O     0.21486   0.82883   0.18003   0.00000  Uiso   1.00
O571   O     0.21485   0.82885   0.31218   0.00000  Uiso   1.00
O572   O     0.11848   0.83781   0.18783   0.00000  Uiso   1.00
Zn573  Zn    0.10231   0.83933   0.25521   0.00000  Uiso   1.00
Zn574  Zn    0.23102   0.82734   0.24479   0.00000  Uiso   1.00
Br575  Br    0.39987   0.94793   0.46133   0.00000  Uiso   1.00
Br576  Br    0.39674   0.69635   0.05670   0.00000  Uiso   1.00
C577   C     0.51527   0.93162   0.24774   0.00000  Uiso   1.00
C578   C     0.49785   0.87709   0.40806   0.00000  Uiso   1.00
C579   C     0.49773   0.83299   0.11570   0.00000  Uiso   1.00
C580   C     0.49938   0.83090   0.38493   0.00000  Uiso   1.00
C581   C     0.50406   0.87863   0.09148   0.00000  Uiso   1.00
C582   C     0.48642   0.78428   0.40754   0.00000  Uiso   1.00
C583   C     0.48998   0.87785   0.04682   0.00000  Uiso   1.00
C584   C     0.47895   0.78406   0.45501   0.00000  Uiso   1.00
C585   C     0.48196   0.83108   0.02499   0.00000  Uiso   1.00
C586   C     0.48231   0.83026   0.47802   0.00000  Uiso   1.00
C587   C     0.47529   0.78555   0.04941   0.00000  Uiso   1.00
C588   C     0.48471   0.73504   0.24987   0.00000  Uiso   1.00
C589   C     0.48434   0.87610   0.45456   0.00000  Uiso   1.00
C590   C     0.47969   0.92205   0.02369   0.00000  Uiso   1.00
C591   C     0.46254   0.74013   0.48038   0.00000  Uiso   1.00
C592   C     0.50752   0.73906   0.11689   0.00000  Uiso   1.00
C593   C     0.57384   0.73788   0.10904   0.00000  Uiso   1.00
C594   C     0.60072   0.71540   0.14894   0.00000  Uiso   1.00
C595   C     0.51271   0.92675   0.38323   0.00000  Uiso   1.00
C596   C     0.57773   0.93520   0.37076   0.00000  Uiso   1.00
C597   C     0.59161   0.98515   0.34539   0.00000  Uiso   1.00
C598   C     0.53746   0.92456   0.10963   0.00000  Uiso   1.00
C599   C     0.46834   0.91886   0.47866   0.00000  Uiso   1.00
C600   C     0.59687   0.93417   0.08312   0.00000  Uiso   1.00
C601   C     0.63492   0.88920   0.08437   0.00000  Uiso   1.00
C602   C     0.47764   0.73614   0.38078   0.00000  Uiso   1.00
C603   C     0.41315   0.72430   0.37513   0.00000  Uiso   1.00
C604   C     0.40293   0.67698   0.34669   0.00000  Uiso   1.00
C605   C     0.45540   0.74188   0.02722   0.00000  Uiso   1.00
C606   C     0.52321   0.98589   0.24560   0.00000  Uiso   1.00
C607   C     0.47694   0.68078   0.24707   0.00000  Uiso   1.00
C608   C     0.50028   0.83246   0.33657   0.00000  Uiso   1.00
C609   C     0.49962   0.83415   0.16354   0.00000  Uiso   1.00
C610   C     0.48721   0.78594   0.09485   0.00000  Uiso   1.00
H611   H     0.47417   0.95706   0.04137   0.00000  Uiso   1.00
H612   H     0.58457   0.71547   0.07824   0.00000  Uiso   1.00
H613   H     0.59465   0.77646   0.10316   0.00000  Uiso   1.00
H614   H     0.49311   0.73805   0.15331   0.00000  Uiso   1.00
H615   H     0.48835   0.70388   0.10332   0.00000  Uiso   1.00
H616   H     0.55334   0.99845   0.33023   0.00000  Uiso   1.00
H617   H     0.60726   0.68170   0.36855   0.00000  Uiso   1.00
H618   H     0.62492   0.97976   0.31742   0.00000  Uiso   1.00
H619   H     0.60144   0.93559   0.40180   0.00000  Uiso   1.00
H620   H     0.59333   0.90388   0.34929   0.00000  Uiso   1.00
H621   H     0.48867   0.92742   0.35261   0.00000  Uiso   1.00
H622   H     0.45084   0.70548   0.46426   0.00000  Uiso   1.00
H623   H     0.49958   0.95892   0.40404   0.00000  Uiso   1.00
H624   H     0.63854   0.87710   0.11967   0.00000  Uiso   1.00
H625   H     0.61681   0.85703   0.06481   0.00000  Uiso   1.00
H626   H     0.34556   0.90030   0.06890   0.00000  Uiso   1.00
H627   H     0.59144   0.94397   0.04752   0.00000  Uiso   1.00
H628   H     0.62039   0.96689   0.09789   0.00000  Uiso   1.00
H629   H     0.51196   0.95811   0.10791   0.00000  Uiso   1.00
H630   H     0.54495   0.92070   0.14572   0.00000  Uiso   1.00
H631   H     0.44388   0.99479   0.33365   0.00000  Uiso   1.00
H632   H     0.37735   0.98035   0.36681   0.00000  Uiso   1.00
H633   H     0.56713   0.66936   0.24462   0.00000  Uiso   1.00
H634   H     0.37938   0.68670   0.31728   0.00000  Uiso   1.00
H635   H     0.38860   0.71918   0.40847   0.00000  Uiso   1.00
H636   H     0.39555   0.75692   0.35856   0.00000  Uiso   1.00
H637   H     0.50156   0.73896   0.34710   0.00000  Uiso   1.00
H638   H     0.49689   0.70510   0.39751   0.00000  Uiso   1.00
H639   H     0.43311   0.99723   0.24740   0.00000  Uiso   1.00
H640   H     0.33850   0.79490   0.21667   0.00000  Uiso   1.00
H641   H     0.66162   0.87189   0.28329   0.00000  Uiso   1.00
H642   H     0.59892   0.74202   0.17755   0.00000  Uiso   1.00
H643   H     0.57772   0.67894   0.15947   0.00000  Uiso   1.00
H644   H     0.64688   0.70922   0.13978   0.00000  Uiso   1.00
N645   N     0.65011   0.81932   0.23783   0.00000  Uiso   1.00
N646   N     0.34989   0.84735   0.26217   0.00000  Uiso   1.00
O647   O     0.46308   0.91286   0.25299   0.00000  Uiso   1.00
O648   O     0.53692   0.75381   0.24702   0.00000  Uiso   1.00
O649   O     0.55946   0.90387   0.24519   0.00000  Uiso   1.00
O650   O     0.44054   0.76279   0.25482   0.00000  Uiso   1.00
O651   O     0.45181   0.83784   0.31998   0.00000  Uiso   1.00
O652   O     0.54819   0.82883   0.18003   0.00000  Uiso   1.00
O653   O     0.54819   0.82885   0.31218   0.00000  Uiso   1.00
O654   O     0.45181   0.83781   0.18783   0.00000  Uiso   1.00
Zn655  Zn    0.43565   0.83933   0.25521   0.00000  Uiso   1.00
Zn656  Zn    0.56435   0.82734   0.24479   0.00000  Uiso   1.00
Br657  Br    0.73321   0.94793   0.46133   0.00000  Uiso   1.00
Br658  Br    0.73007   0.69635   0.05670   0.00000  Uiso   1.00
C659   C     0.84860   0.93162   0.24774   0.00000  Uiso   1.00
C660   C     0.83118   0.87709   0.40806   0.00000  Uiso   1.00
C661   C     0.83106   0.83299   0.11570   0.00000  Uiso   1.00
C662   C     0.83271   0.83090   0.38493   0.00000  Uiso   1.00
C663   C     0.83740   0.87863   0.09148   0.00000  Uiso   1.00
C664   C     0.81975   0.78428   0.40754   0.00000  Uiso   1.00
C665   C     0.82332   0.87785   0.04682   0.00000  Uiso   1.00
C666   C     0.81229   0.78406   0.45501   0.00000  Uiso   1.00
C667   C     0.81529   0.83108   0.02499   0.00000  Uiso   1.00
C668   C     0.81564   0.83026   0.47802   0.00000  Uiso   1.00
C669   C     0.80862   0.78555   0.04941   0.00000  Uiso   1.00
C670   C     0.81804   0.73504   0.24987   0.00000  Uiso   1.00
C671   C     0.81768   0.87610   0.45456   0.00000  Uiso   1.00
C672   C     0.81303   0.92205   0.02369   0.00000  Uiso   1.00
C673   C     0.79587   0.74013   0.48038   0.00000  Uiso   1.00
C674   C     0.84085   0.73906   0.11689   0.00000  Uiso   1.00
C675   C     0.90717   0.73788   0.10904   0.00000  Uiso   1.00
C676   C     0.93405   0.71540   0.14894   0.00000  Uiso   1.00
C677   C     0.84605   0.92675   0.38323   0.00000  Uiso   1.00
C678   C     0.91106   0.93520   0.37076   0.00000  Uiso   1.00
C679   C     0.92494   0.98515   0.34539   0.00000  Uiso   1.00
C680   C     0.87079   0.92456   0.10963   0.00000  Uiso   1.00
C681   C     0.80167   0.91886   0.47866   0.00000  Uiso   1.00
C682   C     0.93021   0.93417   0.08312   0.00000  Uiso   1.00
C683   C     0.96826   0.88920   0.08437   0.00000  Uiso   1.00
C684   C     0.81097   0.73614   0.38078   0.00000  Uiso   1.00
C685   C     0.74648   0.72430   0.37513   0.00000  Uiso   1.00
C686   C     0.73627   0.67698   0.34669   0.00000  Uiso   1.00
C687   C     0.78873   0.74188   0.02722   0.00000  Uiso   1.00
C688   C     0.85655   0.98589   0.24560   0.00000  Uiso   1.00
C689   C     0.81027   0.68078   0.24707   0.00000  Uiso   1.00
C690   C     0.83361   0.83246   0.33657   0.00000  Uiso   1.00
C691   C     0.83296   0.83415   0.16354   0.00000  Uiso   1.00
C692   C     0.82054   0.78594   0.09485   0.00000  Uiso   1.00
H693   H     0.80751   0.95706   0.04137   0.00000  Uiso   1.00
H694   H     0.91790   0.71547   0.07824   0.00000  Uiso   1.00
H695   H     0.92798   0.77646   0.10316   0.00000  Uiso   1.00
H696   H     0.82645   0.73805   0.15331   0.00000  Uiso   1.00
H697   H     0.82168   0.70388   0.10332   0.00000  Uiso   1.00
H698   H     0.88668   0.99845   0.33023   0.00000  Uiso   1.00
H699   H     0.94060   0.68170   0.36855   0.00000  Uiso   1.00
H700   H     0.95825   0.97976   0.31742   0.00000  Uiso   1.00
H701   H     0.93477   0.93559   0.40180   0.00000  Uiso   1.00
H702   H     0.92667   0.90388   0.34929   0.00000  Uiso   1.00
H703   H     0.82200   0.92742   0.35261   0.00000  Uiso   1.00
H704   H     0.78417   0.70548   0.46426   0.00000  Uiso   1.00
H705   H     0.83292   0.95892   0.40404   0.00000  Uiso   1.00
H706   H     0.97188   0.87710   0.11967   0.00000  Uiso   1.00
H707   H     0.95014   0.85703   0.06481   0.00000  Uiso   1.00
H708   H     0.67890   0.90030   0.06890   0.00000  Uiso   1.00
H709   H     0.92477   0.94397   0.04752   0.00000  Uiso   1.00
H710   H     0.95373   0.96689   0.09789   0.00000  Uiso   1.00
H711   H     0.84530   0.95811   0.10791   0.00000  Uiso   1.00
H712   H     0.87829   0.92070   0.14572   0.00000  Uiso   1.00
H713   H     0.77721   0.99479   0.33365   0.00000  Uiso   1.00
H714   H     0.71069   0.98035   0.36681   0.00000  Uiso   1.00
H715   H     0.90046   0.66936   0.24462   0.00000  Uiso   1.00
H716   H     0.71272   0.68670   0.31728   0.00000  Uiso   1.00
H717   H     0.72193   0.71918   0.40847   0.00000  Uiso   1.00
H718   H     0.72888   0.75692   0.35856   0.00000  Uiso   1.00
H719   H     0.83489   0.73896   0.34710   0.00000  Uiso   1.00
H720   H     0.83022   0.70510   0.39751   0.00000  Uiso   1.00
H721   H     0.76645   0.99723   0.24740   0.00000  Uiso   1.00
H722   H     0.67184   0.79490   0.21667   0.00000  Uiso   1.00
H723   H     0.99495   0.87189   0.28329   0.00000  Uiso   1.00
H724   H     0.93225   0.74202   0.17755   0.00000  Uiso   1.00
H725   H     0.91106   0.67894   0.15947   0.00000  Uiso   1.00
H726   H     0.98021   0.70922   0.13978   0.00000  Uiso   1.00
N727   N     0.98344   0.81932   0.23783   0.00000  Uiso   1.00
N728   N     0.68322   0.84735   0.26217   0.00000  Uiso   1.00
O729   O     0.79642   0.91286   0.25299   0.00000  Uiso   1.00
O730   O     0.87025   0.75381   0.24702   0.00000  Uiso   1.00
O731   O     0.89280   0.90387   0.24519   0.00000  Uiso   1.00
O732   O     0.77387   0.76279   0.25482   0.00000  Uiso   1.00
O733   O     0.78514   0.83784   0.31998   0.00000  Uiso   1.00
O734   O     0.88153   0.82883   0.18003   0.00000  Uiso   1.00
O735   O     0.88152   0.82885   0.31218   0.00000  Uiso   1.00
O736   O     0.78515   0.83781   0.18783   0.00000  Uiso   1.00
Zn737  Zn    0.76898   0.83933   0.25521   0.00000  Uiso   1.00
Zn738  Zn    0.89769   0.82734   0.24479   0.00000  Uiso   1.00
Br739  Br    0.06654   0.28126   0.96133   0.00000  Uiso   1.00
Br740  Br    0.06341   0.02969   0.55670   0.00000  Uiso   1.00
C741   C     0.18193   0.26495   0.74774   0.00000  Uiso   1.00
C742   C     0.16452   0.21042   0.90806   0.00000  Uiso   1.00
C743   C     0.16440   0.16632   0.61570   0.00000  Uiso   1.00
C744   C     0.16604   0.16423   0.88493   0.00000  Uiso   1.00
C745   C     0.17073   0.21196   0.59148   0.00000  Uiso   1.00
C746   C     0.15308   0.11761   0.90754   0.00000  Uiso   1.00
C747   C     0.15665   0.21118   0.54682   0.00000  Uiso   1.00
C748   C     0.14562   0.11739   0.95501   0.00000  Uiso   1.00
C749   C     0.14862   0.16442   0.52499   0.00000  Uiso   1.00
C750   C     0.14898   0.16359   0.97802   0.00000  Uiso   1.00
C751   C     0.14195   0.11889   0.54941   0.00000  Uiso   1.00
C752   C     0.15138   0.06837   0.74987   0.00000  Uiso   1.00
C753   C     0.15101   0.20943   0.95456   0.00000  Uiso   1.00
C754   C     0.14636   0.25539   0.52369   0.00000  Uiso   1.00
C755   C     0.12920   0.07346   0.98038   0.00000  Uiso   1.00
C756   C     0.17418   0.07239   0.61689   0.00000  Uiso   1.00
C757   C     0.24051   0.07122   0.60904   0.00000  Uiso   1.00
C758   C     0.26739   0.04873   0.64894   0.00000  Uiso   1.00
C759   C     0.17938   0.26008   0.88323   0.00000  Uiso   1.00
C760   C     0.24440   0.26853   0.87076   0.00000  Uiso   1.00
C761   C     0.25828   0.31848   0.84539   0.00000  Uiso   1.00
C762   C     0.20412   0.25789   0.60963   0.00000  Uiso   1.00
C763   C     0.13501   0.25219   0.97866   0.00000  Uiso   1.00
C764   C     0.26354   0.26751   0.58312   0.00000  Uiso   1.00
C765   C     0.30159   0.22254   0.58437   0.00000  Uiso   1.00
C766   C     0.14430   0.06947   0.88078   0.00000  Uiso   1.00
C767   C     0.07981   0.05763   0.87513   0.00000  Uiso   1.00
C768   C     0.06960   0.01032   0.84669   0.00000  Uiso   1.00
C769   C     0.12207   0.07522   0.52722   0.00000  Uiso   1.00
C770   C     0.18988   0.31923   0.74560   0.00000  Uiso   1.00
C771   C     0.14360   0.01411   0.74707   0.00000  Uiso   1.00
C772   C     0.16694   0.16580   0.83657   0.00000  Uiso   1.00
C773   C     0.16629   0.16748   0.66354   0.00000  Uiso   1.00
C774   C     0.15387   0.11928   0.59485   0.00000  Uiso   1.00
H775   H     0.14084   0.29039   0.54137   0.00000  Uiso   1.00
H776   H     0.25123   0.04880   0.57824   0.00000  Uiso   1.00
H777   H     0.26131   0.10980   0.60316   0.00000  Uiso   1.00
H778   H     0.15978   0.07138   0.65331   0.00000  Uiso   1.00
H779   H     0.15502   0.03721   0.60332   0.00000  Uiso   1.00
H780   H     0.22001   0.33178   0.83023   0.00000  Uiso   1.00
H781   H     0.27393   0.01503   0.86855   0.00000  Uiso   1.00
H782   H     0.29158   0.31309   0.81742   0.00000  Uiso   1.00
H783   H     0.26810   0.26892   0.90180   0.00000  Uiso   1.00
H784   H     0.26000   0.23721   0.84929   0.00000  Uiso   1.00
H785   H     0.15533   0.26075   0.85261   0.00000  Uiso   1.00
H786   H     0.11751   0.03881   0.96426   0.00000  Uiso   1.00
H787   H     0.16625   0.29226   0.90404   0.00000  Uiso   1.00
H788   H     0.30521   0.21043   0.61967   0.00000  Uiso   1.00
H789   H     0.28348   0.19036   0.56481   0.00000  Uiso   1.00
H790   H     0.01223   0.23363   0.56890   0.00000  Uiso   1.00
H791   H     0.25811   0.27731   0.54752   0.00000  Uiso   1.00
H792   H     0.28706   0.30023   0.59789   0.00000  Uiso   1.00
H793   H     0.17863   0.29144   0.60791   0.00000  Uiso   1.00
H794   H     0.21162   0.25403   0.64572   0.00000  Uiso   1.00
H795   H     0.11055   0.32813   0.83365   0.00000  Uiso   1.00
H796   H     0.04402   0.31368   0.86681   0.00000  Uiso   1.00
H797   H     0.23380   0.00269   0.74462   0.00000  Uiso   1.00
H798   H     0.04605   0.02003   0.81728   0.00000  Uiso   1.00
H799   H     0.05526   0.05251   0.90847   0.00000  Uiso   1.00
H800   H     0.06222   0.09026   0.85856   0.00000  Uiso   1.00
H801   H     0.16823   0.07230   0.84710   0.00000  Uiso   1.00
H802   H     0.16356   0.03844   0.89751   0.00000  Uiso   1.00
H803   H     0.09978   0.33056   0.74740   0.00000  Uiso   1.00
H804   H     0.00517   0.12823   0.71667   0.00000  Uiso   1.00
H805   H     0.32829   0.20522   0.78329   0.00000  Uiso   1.00
H806   H     0.26558   0.07535   0.67755   0.00000  Uiso   1.00
H807   H     0.24439   0.01227   0.65947   0.00000  Uiso   1.00
H808   H     0.31355   0.04255   0.63978   0.00000  Uiso   1.00
N809   N     0.31678   0.15265   0.73783   0.00000  Uiso   1.00
N810   N     0.01656   0.18068   0.76217   0.00000  Uiso   1.00
O811   O     0.12975   0.24619   0.75299   0.00000  Uiso   1.00
O812   O     0.20358   0.08714   0.74702   0.00000  Uiso   1.00
O813   O     0.22613   0.23721   0.74519   0.00000  Uiso   1.00
O814   O     0.10720   0.09613   0.75482   0.00000  Uiso   1.00
O815   O     0.11847   0.17117   0.81998   0.00000  Uiso   1.00
O816   O     0.21486   0.16216   0.68003   0.00000  Uiso   1.00
O817   O     0.21485   0.16219   0.81218   0.00000  Uiso   1.00
O818   O     0.11848   0.17115   0.68783   0.00000  Uiso   1.00
Zn819  Zn    0.10231   0.17266   0.75521   0.00000  Uiso   1.00
Zn820  Zn    0.23102   0.16067   0.74479   0.00000  Uiso   1.00
Br821  Br    0.39987   0.28126   0.96133   0.00000  Uiso   1.00
Br822  Br    0.39674   0.02969   0.55670   0.00000  Uiso   1.00
C823   C     0.51527   0.26495   0.74774   0.00000  Uiso   1.00
C824   C     0.49785   0.21042   0.90806   0.00000  Uiso   1.00
C825   C     0.49773   0.16632   0.61570   0.00000  Uiso   1.00
C826   C     0.49938   0.16423   0.88493   0.00000  Uiso   1.00
C827   C     0.50406   0.21196   0.59148   0.00000  Uiso   1.00
C828   C     0.48642   0.11761   0.90754   0.00000  Uiso   1.00
C829   C     0.48998   0.21118   0.54682   0.00000  Uiso   1.00
C830   C     0.47895   0.11739   0.95501   0.00000  Uiso   1.00
C831   C     0.48196   0.16442   0.52499   0.00000  Uiso   1.00
C832   C     0.48231   0.16359   0.97802   0.00000  Uiso   1.00
C833   C     0.47529   0.11889   0.54941   0.00000  Uiso   1.00
C834   C     0.48471   0.06837   0.74987   0.00000  Uiso   1.00
C835   C     0.48434   0.20943   0.95456   0.00000  Uiso   1.00
C836   C     0.47969   0.25539   0.52369   0.00000  Uiso   1.00
C837   C     0.46254   0.07346   0.98038   0.00000  Uiso   1.00
C838   C     0.50752   0.07239   0.61689   0.00000  Uiso   1.00
C839   C     0.57384   0.07122   0.60904   0.00000  Uiso   1.00
C840   C     0.60072   0.04873   0.64894   0.00000  Uiso   1.00
C841   C     0.51271   0.26008   0.88323   0.00000  Uiso   1.00
C842   C     0.57773   0.26853   0.87076   0.00000  Uiso   1.00
C843   C     0.59161   0.31848   0.84539   0.00000  Uiso   1.00
C844   C     0.53746   0.25789   0.60963   0.00000  Uiso   1.00
C845   C     0.46834   0.25219   0.97866   0.00000  Uiso   1.00
C846   C     0.59687   0.26751   0.58312   0.00000  Uiso   1.00
C847   C     0.63492   0.22254   0.58437   0.00000  Uiso   1.00
C848   C     0.47764   0.06947   0.88078   0.00000  Uiso   1.00
C849   C     0.41315   0.05763   0.87513   0.00000  Uiso   1.00
C850   C     0.40293   0.01032   0.84669   0.00000  Uiso   1.00
C851   C     0.45540   0.07522   0.52722   0.00000  Uiso   1.00
C852   C     0.52321   0.31923   0.74560   0.00000  Uiso   1.00
C853   C     0.47694   0.01411   0.74707   0.00000  Uiso   1.00
C854   C     0.50028   0.16580   0.83657   0.00000  Uiso   1.00
C855   C     0.49962   0.16748   0.66354   0.00000  Uiso   1.00
C856   C     0.48721   0.11928   0.59485   0.00000  Uiso   1.00
H857   H     0.47417   0.29039   0.54137   0.00000  Uiso   1.00
H858   H     0.58457   0.04880   0.57824   0.00000  Uiso   1.00
H859   H     0.59465   0.10980   0.60316   0.00000  Uiso   1.00
H860   H     0.49311   0.07138   0.65331   0.00000  Uiso   1.00
H861   H     0.48835   0.03721   0.60332   0.00000  Uiso   1.00
H862   H     0.55334   0.33178   0.83023   0.00000  Uiso   1.00
H863   H     0.60726   0.01503   0.86855   0.00000  Uiso   1.00
H864   H     0.62492   0.31309   0.81742   0.00000  Uiso   1.00
H865   H     0.60144   0.26892   0.90180   0.00000  Uiso   1.00
H866   H     0.59333   0.23721   0.84929   0.00000  Uiso   1.00
H867   H     0.48867   0.26075   0.85261   0.00000  Uiso   1.00
H868   H     0.45084   0.03881   0.96426   0.00000  Uiso   1.00
H869   H     0.49958   0.29226   0.90404   0.00000  Uiso   1.00
H870   H     0.63854   0.21043   0.61967   0.00000  Uiso   1.00
H871   H     0.61681   0.19036   0.56481   0.00000  Uiso   1.00
H872   H     0.34556   0.23363   0.56890   0.00000  Uiso   1.00
H873   H     0.59144   0.27731   0.54752   0.00000  Uiso   1.00
H874   H     0.62039   0.30023   0.59789   0.00000  Uiso   1.00
H875   H     0.51196   0.29144   0.60791   0.00000  Uiso   1.00
H876   H     0.54495   0.25403   0.64572   0.00000  Uiso   1.00
H877   H     0.44388   0.32813   0.83365   0.00000  Uiso   1.00
H878   H     0.37735   0.31368   0.86681   0.00000  Uiso   1.00
H879   H     0.56713   0.00269   0.74462   0.00000  Uiso   1.00
H880   H     0.37938   0.02003   0.81728   0.00000  Uiso   1.00
H881   H     0.38860   0.05251   0.90847   0.00000  Uiso   1.00
H882   H     0.39555   0.09026   0.85856   0.00000  Uiso   1.00
H883   H     0.50156   0.07230   0.84710   0.00000  Uiso   1.00
H884   H     0.49689   0.03844   0.89751   0.00000  Uiso   1.00
H885   H     0.43311   0.33056   0.74740   0.00000  Uiso   1.00
H886   H     0.33850   0.12823   0.71667   0.00000  Uiso   1.00
H887   H     0.66162   0.20522   0.78329   0.00000  Uiso   1.00
H888   H     0.59892   0.07535   0.67755   0.00000  Uiso   1.00
H889   H     0.57772   0.01227   0.65947   0.00000  Uiso   1.00
H890   H     0.64688   0.04255   0.63978   0.00000  Uiso   1.00
N891   N     0.65011   0.15265   0.73783   0.00000  Uiso   1.00
N892   N     0.34989   0.18068   0.76217   0.00000  Uiso   1.00
O893   O     0.46308   0.24619   0.75299   0.00000  Uiso   1.00
O894   O     0.53692   0.08714   0.74702   0.00000  Uiso   1.00
O895   O     0.55946   0.23721   0.74519   0.00000  Uiso   1.00
O896   O     0.44054   0.09613   0.75482   0.00000  Uiso   1.00
O897   O     0.45181   0.17117   0.81998   0.00000  Uiso   1.00
O898   O     0.54819   0.16216   0.68003   0.00000  Uiso   1.00
O899   O     0.54819   0.16219   0.81218   0.00000  Uiso   1.00
O900   O     0.45181   0.17115   0.68783   0.00000  Uiso   1.00
Zn901  Zn    0.43565   0.17266   0.75521   0.00000  Uiso   1.00
Zn902  Zn    0.56435   0.16067   0.74479   0.00000  Uiso   1.00
Br903  Br    0.73321   0.28126   0.96133   0.00000  Uiso   1.00
Br904  Br    0.73007   0.02969   0.55670   0.00000  Uiso   1.00
C905   C     0.84860   0.26495   0.74774   0.00000  Uiso   1.00
C906   C     0.83118   0.21042   0.90806   0.00000  Uiso   1.00
C907   C     0.83106   0.16632   0.61570   0.00000  Uiso   1.00
C908   C     0.83271   0.16423   0.88493   0.00000  Uiso   1.00
C909   C     0.83740   0.21196   0.59148   0.00000  Uiso   1.00
C910   C     0.81975   0.11761   0.90754   0.00000  Uiso   1.00
C911   C     0.82332   0.21118   0.54682   0.00000  Uiso   1.00
C912   C     0.81229   0.11739   0.95501   0.00000  Uiso   1.00
C913   C     0.81529   0.16442   0.52499   0.00000  Uiso   1.00
C914   C     0.81564   0.16359   0.97802   0.00000  Uiso   1.00
C915   C     0.80862   0.11889   0.54941   0.00000  Uiso   1.00
C916   C     0.81804   0.06837   0.74987   0.00000  Uiso   1.00
C917   C     0.81768   0.20943   0.95456   0.00000  Uiso   1.00
C918   C     0.81303   0.25539   0.52369   0.00000  Uiso   1.00
C919   C     0.79587   0.07346   0.98038   0.00000  Uiso   1.00
C920   C     0.84085   0.07239   0.61689   0.00000  Uiso   1.00
C921   C     0.90717   0.07122   0.60904   0.00000  Uiso   1.00
C922   C     0.93405   0.04873   0.64894   0.00000  Uiso   1.00
C923   C     0.84605   0.26008   0.88323   0.00000  Uiso   1.00
C924   C     0.91106   0.26853   0.87076   0.00000  Uiso   1.00
C925   C     0.92494   0.31848   0.84539   0.00000  Uiso   1.00
C926   C     0.87079   0.25789   0.60963   0.00000  Uiso   1.00
C927   C     0.80167   0.25219   0.97866   0.00000  Uiso   1.00
C928   C     0.93021   0.26751   0.58312   0.00000  Uiso   1.00
C929   C     0.96826   0.22254   0.58437   0.00000  Uiso   1.00
C930   C     0.81097   0.06947   0.88078   0.00000  Uiso   1.00
C931   C     0.74648   0.05763   0.87513   0.00000  Uiso   1.00
C932   C     0.73627   0.01032   0.84669   0.00000  Uiso   1.00
C933   C     0.78873   0.07522   0.52722   0.00000  Uiso   1.00
C934   C     0.85655   0.31923   0.74560   0.00000  Uiso   1.00
C935   C     0.81027   0.01411   0.74707   0.00000  Uiso   1.00
C936   C     0.83361   0.16580   0.83657   0.00000  Uiso   1.00
C937   C     0.83296   0.16748   0.66354   0.00000  Uiso   1.00
C938   C     0.82054   0.11928   0.59485   0.00000  Uiso   1.00
H939   H     0.80751   0.29039   0.54137   0.00000  Uiso   1.00
H940   H     0.91790   0.04880   0.57824   0.00000  Uiso   1.00
H941   H     0.92798   0.10980   0.60316   0.00000  Uiso   1.00
H942   H     0.82645   0.07138   0.65331   0.00000  Uiso   1.00
H943   H     0.82168   0.03721   0.60332   0.00000  Uiso   1.00
H944   H     0.88668   0.33178   0.83023   0.00000  Uiso   1.00
H945   H     0.94060   0.01503   0.86855   0.00000  Uiso   1.00
H946   H     0.95825   0.31309   0.81742   0.00000  Uiso   1.00
H947   H     0.93477   0.26892   0.90180   0.00000  Uiso   1.00
H948   H     0.92667   0.23721   0.84929   0.00000  Uiso   1.00
H949   H     0.82200   0.26075   0.85261   0.00000  Uiso   1.00
H950   H     0.78417   0.03881   0.96426   0.00000  Uiso   1.00
H951   H     0.83292   0.29226   0.90404   0.00000  Uiso   1.00
H952   H     0.97188   0.21043   0.61967   0.00000  Uiso   1.00
H953   H     0.95014   0.19036   0.56481   0.00000  Uiso   1.00
H954   H     0.67890   0.23363   0.56890   0.00000  Uiso   1.00
H955   H     0.92477   0.27731   0.54752   0.00000  Uiso   1.00
H956   H     0.95373   0.30023   0.59789   0.00000  Uiso   1.00
H957   H     0.84530   0.29144   0.60791   0.00000  Uiso   1.00
H958   H     0.87829   0.25403   0.64572   0.00000  Uiso   1.00
H959   H     0.77721   0.32813   0.83365   0.00000  Uiso   1.00
H960   H     0.71069   0.31368   0.86681   0.00000  Uiso   1.00
H961   H     0.90046   0.00269   0.74462   0.00000  Uiso   1.00
H962   H     0.71272   0.02003   0.81728   0.00000  Uiso   1.00
H963   H     0.72193   0.05251   0.90847   0.00000  Uiso   1.00
H964   H     0.72888   0.09026   0.85856   0.00000  Uiso   1.00
H965   H     0.83489   0.07230   0.84710   0.00000  Uiso   1.00
H966   H     0.83022   0.03844   0.89751   0.00000  Uiso   1.00
H967   H     0.76645   0.33056   0.74740   0.00000  Uiso   1.00
H968   H     0.67184   0.12823   0.71667   0.00000  Uiso   1.00
H969   H     0.99495   0.20522   0.78329   0.00000  Uiso   1.00
H970   H     0.93225   0.07535   0.67755   0.00000  Uiso   1.00
H971   H     0.91106   0.01227   0.65947   0.00000  Uiso   1.00
H972   H     0.98021   0.04255   0.63978   0.00000  Uiso   1.00
N973   N     0.98344   0.15265   0.73783   0.00000  Uiso   1.00
N974   N     0.68322   0.18068   0.76217   0.00000  Uiso   1.00
O975   O     0.79642   0.24619   0.75299   0.00000  Uiso   1.00
O976   O     0.87025   0.08714   0.74702   0.00000  Uiso   1.00
O977   O     0.89280   0.23721   0.74519   0.00000  Uiso   1.00
O978   O     0.77387   0.09613   0.75482   0.00000  Uiso   1.00
O979   O     0.78514   0.17117   0.81998   0.00000  Uiso   1.00
O980   O     0.88153   0.16216   0.68003   0.00000  Uiso   1.00
O981   O     0.88152   0.16219   0.81218   0.00000  Uiso   1.00
O982   O     0.78515   0.17115   0.68783   0.00000  Uiso   1.00
Zn983  Zn    0.76898   0.17266   0.75521   0.00000  Uiso   1.00
Zn984  Zn    0.89769   0.16067   0.74479   0.00000  Uiso   1.00
Br985  Br    0.06654   0.61460   0.96133   0.00000  Uiso   1.00
Br986  Br    0.06341   0.36302   0.55670   0.00000  Uiso   1.00
C987   C     0.18193   0.59829   0.74774   0.00000  Uiso   1.00
C988   C     0.16452   0.54375   0.90806   0.00000  Uiso   1.00
C989   C     0.16440   0.49966   0.61570   0.00000  Uiso   1.00
C990   C     0.16604   0.49757   0.88493   0.00000  Uiso   1.00
C991   C     0.17073   0.54530   0.59148   0.00000  Uiso   1.00
C992   C     0.15308   0.45094   0.90754   0.00000  Uiso   1.00
C993   C     0.15665   0.54452   0.54682   0.00000  Uiso   1.00
C994   C     0.14562   0.45072   0.95501   0.00000  Uiso   1.00
C995   C     0.14862   0.49775   0.52499   0.00000  Uiso   1.00
C996   C     0.14898   0.49693   0.97802   0.00000  Uiso   1.00
C997   C     0.14195   0.45222   0.54941   0.00000  Uiso   1.00
C998   C     0.15138   0.40171   0.74987   0.00000  Uiso   1.00
C999   C     0.15101   0.54277   0.95456   0.00000  Uiso   1.00
C1000  C     0.14636   0.58872   0.52369   0.00000  Uiso   1.00
C1001  C     0.12920   0.40680   0.98038   0.00000  Uiso   1.00
C1002  C     0.17418   0.40572   0.61689   0.00000  Uiso   1.00
C1003  C     0.24051   0.40455   0.60904   0.00000  Uiso   1.00
C1004  C     0.26739   0.38207   0.64894   0.00000  Uiso   1.00
C1005  C     0.17938   0.59341   0.88323   0.00000  Uiso   1.00
C1006  C     0.24440   0.60186   0.87076   0.00000  Uiso   1.00
C1007  C     0.25828   0.65182   0.84539   0.00000  Uiso   1.00
C1008  C     0.20412   0.59122   0.60963   0.00000  Uiso   1.00
C1009  C     0.13501   0.58552   0.97866   0.00000  Uiso   1.00
C1010  C     0.26354   0.60084   0.58312   0.00000  Uiso   1.00
C1011  C     0.30159   0.55587   0.58437   0.00000  Uiso   1.00
C1012  C     0.14430   0.40280   0.88078   0.00000  Uiso   1.00
C1013  C     0.07981   0.39097   0.87513   0.00000  Uiso   1.00
C1014  C     0.06960   0.34365   0.84669   0.00000  Uiso   1.00
C1015  C     0.12207   0.40855   0.52722   0.00000  Uiso   1.00
C1016  C     0.18988   0.65256   0.74560   0.00000  Uiso   1.00
C1017  C     0.14360   0.34744   0.74707   0.00000  Uiso   1.00
C1018  C     0.16694   0.49913   0.83657   0.00000  Uiso   1.00
C1019  C     0.16629   0.50082   0.66354   0.00000  Uiso   1.00
C1020  C     0.15387   0.45261   0.59485   0.00000  Uiso   1.00
H1021  H     0.14084   0.62373   0.54137   0.00000  Uiso   1.00
H1022  H     0.25123   0.38213   0.57824   0.00000  Uiso   1.00
H1023  H     0.26131   0.44313   0.60316   0.00000  Uiso   1.00
H1024  H     0.15978   0.40471   0.65331   0.00000  Uiso   1.00
H1025  H     0.15502   0.37054   0.60332   0.00000  Uiso   1.00
H1026  H     0.22001   0.66512   0.83023   0.00000  Uiso   1.00
H1027  H     0.27393   0.34837   0.86855   0.00000  Uiso   1.00
H1028  H     0.29158   0.64643   0.81742   0.00000  Uiso   1.00
H1029  H     0.26810   0.60226   0.90180   0.00000  Uiso   1.00
H1030  H     0.26000   0.57054   0.84929   0.00000  Uiso   1.00
H1031  H     0.15533   0.59408   0.85261   0.00000  Uiso   1.00
H1032  H     0.11751   0.37214   0.96426   0.00000  Uiso   1.00
H1033  H     0.16625   0.62559   0.90404   0.00000  Uiso   1.00
H1034  H     0.30521   0.54377   0.61967   0.00000  Uiso   1.00
H1035  H     0.28348   0.52370   0.56481   0.00000  Uiso   1.00
H1036  H     0.01223   0.56696   0.56890   0.00000  Uiso   1.00
H1037  H     0.25811   0.61064   0.54752   0.00000  Uiso   1.00
H1038  H     0.28706   0.63356   0.59789   0.00000  Uiso   1.00
H1039  H     0.17863   0.62477   0.60791   0.00000  Uiso   1.00
H1040  H     0.21162   0.58737   0.64572   0.00000  Uiso   1.00
H1041  H     0.11055   0.66146   0.83365   0.00000  Uiso   1.00
H1042  H     0.04402   0.64701   0.86681   0.00000  Uiso   1.00
H1043  H     0.23380   0.33603   0.74462   0.00000  Uiso   1.00
H1044  H     0.04605   0.35336   0.81728   0.00000  Uiso   1.00
H1045  H     0.05526   0.38585   0.90847   0.00000  Uiso   1.00
H1046  H     0.06222   0.42359   0.85856   0.00000  Uiso   1.00
H1047  H     0.16823   0.40563   0.84710   0.00000  Uiso   1.00
H1048  H     0.16356   0.37177   0.89751   0.00000  Uiso   1.00
H1049  H     0.09978   0.66389   0.74740   0.00000  Uiso   1.00
H1050  H     0.00517   0.46157   0.71667   0.00000  Uiso   1.00
H1051  H     0.32829   0.53856   0.78329   0.00000  Uiso   1.00
H1052  H     0.26558   0.40868   0.67755   0.00000  Uiso   1.00
H1053  H     0.24439   0.34561   0.65947   0.00000  Uiso   1.00
H1054  H     0.31355   0.37588   0.63978   0.00000  Uiso   1.00
N1055  N     0.31678   0.48598   0.73783   0.00000  Uiso   1.00
N1056  N     0.01656   0.51402   0.76217   0.00000  Uiso   1.00
O1057  O     0.12975   0.57952   0.75299   0.00000  Uiso   1.00
O1058  O     0.20358   0.42048   0.74702   0.00000  Uiso   1.00
O1059  O     0.22613   0.57054   0.74519   0.00000  Uiso   1.00
O1060  O     0.10720   0.42946   0.75482   0.00000  Uiso   1.00
O1061  O     0.11847   0.50450   0.81998   0.00000  Uiso   1.00
O1062  O     0.21486   0.49550   0.68003   0.00000  Uiso   1.00
O1063  O     0.21485   0.49552   0.81218   0.00000  Uiso   1.00
O1064  O     0.11848   0.50448   0.68783   0.00000  Uiso   1.00
Zn1065 Zn    0.10231   0.50600   0.75521   0.00000  Uiso   1.00
Zn1066 Zn    0.23102   0.49400   0.74479   0.00000  Uiso   1.00
Br1067 Br    0.39987   0.61460   0.96133   0.00000  Uiso   1.00
Br1068 Br    0.39674   0.36302   0.55670   0.00000  Uiso   1.00
C1069  C     0.51527   0.59829   0.74774   0.00000  Uiso   1.00
C1070  C     0.49785   0.54375   0.90806   0.00000  Uiso   1.00
C1071  C     0.49773   0.49966   0.61570   0.00000  Uiso   1.00
C1072  C     0.49938   0.49757   0.88493   0.00000  Uiso   1.00
C1073  C     0.50406   0.54530   0.59148   0.00000  Uiso   1.00
C1074  C     0.48642   0.45094   0.90754   0.00000  Uiso   1.00
C1075  C     0.48998   0.54452   0.54682   0.00000  Uiso   1.00
C1076  C     0.47895   0.45072   0.95501   0.00000  Uiso   1.00
C1077  C     0.48196   0.49775   0.52499   0.00000  Uiso   1.00
C1078  C     0.48231   0.49693   0.97802   0.00000  Uiso   1.00
C1079  C     0.47529   0.45222   0.54941   0.00000  Uiso   1.00
C1080  C     0.48471   0.40171   0.74987   0.00000  Uiso   1.00
C1081  C     0.48434   0.54277   0.95456   0.00000  Uiso   1.00
C1082  C     0.47969   0.58872   0.52369   0.00000  Uiso   1.00
C1083  C     0.46254   0.40680   0.98038   0.00000  Uiso   1.00
C1084  C     0.50752   0.40572   0.61689   0.00000  Uiso   1.00
C1085  C     0.57384   0.40455   0.60904   0.00000  Uiso   1.00
C1086  C     0.60072   0.38207   0.64894   0.00000  Uiso   1.00
C1087  C     0.51271   0.59341   0.88323   0.00000  Uiso   1.00
C1088  C     0.57773   0.60186   0.87076   0.00000  Uiso   1.00
C1089  C     0.59161   0.65182   0.84539   0.00000  Uiso   1.00
C1090  C     0.53746   0.59122   0.60963   0.00000  Uiso   1.00
C1091  C     0.46834   0.58552   0.97866   0.00000  Uiso   1.00
C1092  C     0.59687   0.60084   0.58312   0.00000  Uiso   1.00
C1093  C     0.63492   0.55587   0.58437   0.00000  Uiso   1.00
C1094  C     0.47764   0.40280   0.88078   0.00000  Uiso   1.00
C1095  C     0.41315   0.39097   0.87513   0.00000  Uiso   1.00
C1096  C     0.40293   0.34365   0.84669   0.00000  Uiso   1.00
C1097  C     0.45540   0.40855   0.52722   0.00000  Uiso   1.00
C1098  C     0.52321   0.65256   0.74560   0.00000  Uiso   1.00
C1099  C     0.47694   0.34744   0.74707   0.00000  Uiso   1.00
C1100  C     0.50028   0.49913   0.83657   0.00000  Uiso   1.00
C1101  C     0.49962   0.50082   0.66354   0.00000  Uiso   1.00
C1102  C     0.48721   0.45261   0.59485   0.00000  Uiso   1.00
H1103  H     0.47417   0.62373   0.54137   0.00000  Uiso   1.00
H1104  H     0.58457   0.38213   0.57824   0.00000  Uiso   1.00
H1105  H     0.59465   0.44313   0.60316   0.00000  Uiso   1.00
H1106  H     0.49311   0.40471   0.65331   0.00000  Uiso   1.00
H1107  H     0.48835   0.37054   0.60332   0.00000  Uiso   1.00
H1108  H     0.55334   0.66512   0.83023   0.00000  Uiso   1.00
H1109  H     0.60726   0.34837   0.86855   0.00000  Uiso   1.00
H1110  H     0.62492   0.64643   0.81742   0.00000  Uiso   1.00
H1111  H     0.60144   0.60226   0.90180   0.00000  Uiso   1.00
H1112  H     0.59333   0.57054   0.84929   0.00000  Uiso   1.00
H1113  H     0.48867   0.59408   0.85261   0.00000  Uiso   1.00
H1114  H     0.45084   0.37214   0.96426   0.00000  Uiso   1.00
H1115  H     0.49958   0.62559   0.90404   0.00000  Uiso   1.00
H1116  H     0.63854   0.54377   0.61967   0.00000  Uiso   1.00
H1117  H     0.61681   0.52370   0.56481   0.00000  Uiso   1.00
H1118  H     0.34556   0.56696   0.56890   0.00000  Uiso   1.00
H1119  H     0.59144   0.61064   0.54752   0.00000  Uiso   1.00
H1120  H     0.62039   0.63356   0.59789   0.00000  Uiso   1.00
H1121  H     0.51196   0.62477   0.60791   0.00000  Uiso   1.00
H1122  H     0.54495   0.58737   0.64572   0.00000  Uiso   1.00
H1123  H     0.44388   0.66146   0.83365   0.00000  Uiso   1.00
H1124  H     0.37735   0.64701   0.86681   0.00000  Uiso   1.00
H1125  H     0.56713   0.33603   0.74462   0.00000  Uiso   1.00
H1126  H     0.37938   0.35336   0.81728   0.00000  Uiso   1.00
H1127  H     0.38860   0.38585   0.90847   0.00000  Uiso   1.00
H1128  H     0.39555   0.42359   0.85856   0.00000  Uiso   1.00
H1129  H     0.50156   0.40563   0.84710   0.00000  Uiso   1.00
H1130  H     0.49689   0.37177   0.89751   0.00000  Uiso   1.00
H1131  H     0.43311   0.66389   0.74740   0.00000  Uiso   1.00
H1132  H     0.33850   0.46157   0.71667   0.00000  Uiso   1.00
H1133  H     0.66162   0.53856   0.78329   0.00000  Uiso   1.00
H1134  H     0.59892   0.40868   0.67755   0.00000  Uiso   1.00
H1135  H     0.57772   0.34561   0.65947   0.00000  Uiso   1.00
H1136  H     0.64688   0.37588   0.63978   0.00000  Uiso   1.00
N1137  N     0.65011   0.48598   0.73783   0.00000  Uiso   1.00
N1138  N     0.34989   0.51402   0.76217   0.00000  Uiso   1.00
O1139  O     0.46308   0.57952   0.75299   0.00000  Uiso   1.00
O1140  O     0.53692   0.42048   0.74702   0.00000  Uiso   1.00
O1141  O     0.55946   0.57054   0.74519   0.00000  Uiso   1.00
O1142  O     0.44054   0.42946   0.75482   0.00000  Uiso   1.00
O1143  O     0.45181   0.50450   0.81998   0.00000  Uiso   1.00
O1144  O     0.54819   0.49550   0.68003   0.00000  Uiso   1.00
O1145  O     0.54819   0.49552   0.81218   0.00000  Uiso   1.00
O1146  O     0.45181   0.50448   0.68783   0.00000  Uiso   1.00
Zn1147 Zn    0.43565   0.50600   0.75521   0.00000  Uiso   1.00
Zn1148 Zn    0.56435   0.49400   0.74479   0.00000  Uiso   1.00
Br1149 Br    0.73321   0.61460   0.96133   0.00000  Uiso   1.00
Br1150 Br    0.73007   0.36302   0.55670   0.00000  Uiso   1.00
C1151  C     0.84860   0.59829   0.74774   0.00000  Uiso   1.00
C1152  C     0.83118   0.54375   0.90806   0.00000  Uiso   1.00
C1153  C     0.83106   0.49966   0.61570   0.00000  Uiso   1.00
C1154  C     0.83271   0.49757   0.88493   0.00000  Uiso   1.00
C1155  C     0.83740   0.54530   0.59148   0.00000  Uiso   1.00
C1156  C     0.81975   0.45094   0.90754   0.00000  Uiso   1.00
C1157  C     0.82332   0.54452   0.54682   0.00000  Uiso   1.00
C1158  C     0.81229   0.45072   0.95501   0.00000  Uiso   1.00
C1159  C     0.81529   0.49775   0.52499   0.00000  Uiso   1.00
C1160  C     0.81564   0.49693   0.97802   0.00000  Uiso   1.00
C1161  C     0.80862   0.45222   0.54941   0.00000  Uiso   1.00
C1162  C     0.81804   0.40171   0.74987   0.00000  Uiso   1.00
C1163  C     0.81768   0.54277   0.95456   0.00000  Uiso   1.00
C1164  C     0.81303   0.58872   0.52369   0.00000  Uiso   1.00
C1165  C     0.79587   0.40680   0.98038   0.00000  Uiso   1.00
C1166  C     0.84085   0.40572   0.61689   0.00000  Uiso   1.00
C1167  C     0.90717   0.40455   0.60904   0.00000  Uiso   1.00
C1168  C     0.93405   0.38207   0.64894   0.00000  Uiso   1.00
C1169  C     0.84605   0.59341   0.88323   0.00000  Uiso   1.00
C1170  C     0.91106   0.60186   0.87076   0.00000  Uiso   1.00
C1171  C     0.92494   0.65182   0.84539   0.00000  Uiso   1.00
C1172  C     0.87079   0.59122   0.60963   0.00000  Uiso   1.00
C1173  C     0.80167   0.58552   0.97866   0.00000  Uiso   1.00
C1174  C     0.93021   0.60084   0.58312   0.00000  Uiso   1.00
C1175  C     0.96826   0.55587   0.58437   0.00000  Uiso   1.00
C1176  C     0.81097   0.40280   0.88078   0.00000  Uiso   1.00
C1177  C     0.74648   0.39097   0.87513   0.00000  Uiso   1.00
C1178  C     0.73627   0.34365   0.84669   0.00000  Uiso   1.00
C1179  C     0.78873   0.40855   0.52722   0.00000  Uiso   1.00
C1180  C     0.85655   0.65256   0.74560   0.00000  Uiso   1.00
C1181  C     0.81027   0.34744   0.74707   0.00000  Uiso   1.00
C1182  C     0.83361   0.49913   0.83657   0.00000  Uiso   1.00
C1183  C     0.83296   0.50082   0.66354   0.00000  Uiso   1.00
C1184  C     0.82054   0.45261   0.59485   0.00000  Uiso   1.00
H1185  H     0.80751   0.62373   0.54137   0.00000  Uiso   1.00
H1186  H     0.91790   0.38213   0.57824   0.00000  Uiso   1.00
H1187  H     0.92798   0.44313   0.60316   0.00000  Uiso   1.00
H1188  H     0.82645   0.40471   0.65331   0.00000  Uiso   1.00
H1189  H     0.82168   0.37054   0.60332   0.00000  Uiso   1.00
H1190  H     0.88668   0.66512   0.83023   0.00000  Uiso   1.00
H1191  H     0.94060   0.34837   0.86855   0.00000  Uiso   1.00
H1192  H     0.95825   0.64643   0.81742   0.00000  Uiso   1.00
H1193  H     0.93477   0.60226   0.90180   0.00000  Uiso   1.00
H1194  H     0.92667   0.57054   0.84929   0.00000  Uiso   1.00
H1195  H     0.82200   0.59408   0.85261   0.00000  Uiso   1.00
H1196  H     0.78417   0.37214   0.96426   0.00000  Uiso   1.00
H1197  H     0.83292   0.62559   0.90404   0.00000  Uiso   1.00
H1198  H     0.97188   0.54377   0.61967   0.00000  Uiso   1.00
H1199  H     0.95014   0.52370   0.56481   0.00000  Uiso   1.00
H1200  H     0.67890   0.56696   0.56890   0.00000  Uiso   1.00
H1201  H     0.92477   0.61064   0.54752   0.00000  Uiso   1.00
H1202  H     0.95373   0.63356   0.59789   0.00000  Uiso   1.00
H1203  H     0.84530   0.62477   0.60791   0.00000  Uiso   1.00
H1204  H     0.87829   0.58737   0.64572   0.00000  Uiso   1.00
H1205  H     0.77721   0.66146   0.83365   0.00000  Uiso   1.00
H1206  H     0.71069   0.64701   0.86681   0.00000  Uiso   1.00
H1207  H     0.90046   0.33603   0.74462   0.00000  Uiso   1.00
H1208  H     0.71272   0.35336   0.81728   0.00000  Uiso   1.00
H1209  H     0.72193   0.38585   0.90847   0.00000  Uiso   1.00
H1210  H     0.72888   0.42359   0.85856   0.00000  Uiso   1.00
H1211  H     0.83489   0.40563   0.84710   0.00000  Uiso   1.00
H1212  H     0.83022   0.37177   0.89751   0.00000  Uiso   1.00
H1213  H     0.76645   0.66389   0.74740   0.00000  Uiso   1.00
H1214  H     0.67184   0.46157   0.71667   0.00000  Uiso   1.00
H1215  H     0.99495   0.53856   0.78329   0.00000  Uiso   1.00
H1216  H     0.93225   0.40868   0.67755   0.00000  Uiso   1.00
H1217  H     0.91106   0.34561   0.65947   0.00000  Uiso   1.00
H1218  H     0.98021   0.37588   0.63978   0.00000  Uiso   1.00
N1219  N     0.98344   0.48598   0.73783   0.00000  Uiso   1.00
N1220  N     0.68322   0.51402   0.76217   0.00000  Uiso   1.00
O1221  O     0.79642   0.57952   0.75299   0.00000  Uiso   1.00
O1222  O     0.87025   0.42048   0.74702   0.00000  Uiso   1.00
O1223  O     0.89280   0.57054   0.74519   0.00000  Uiso   1.00
O1224  O     0.77387   0.42946   0.75482   0.00000  Uiso   1.00
O1225  O     0.78514   0.50450   0.81998   0.00000  Uiso   1.00
O1226  O     0.88153   0.49550   0.68003   0.00000  Uiso   1.00
O1227  O     0.88152   0.49552   0.81218   0.00000  Uiso   1.00
O1228  O     0.78515   0.50448   0.68783   0.00000  Uiso   1.00
Zn1229 Zn    0.76898   0.50600   0.75521   0.00000  Uiso   1.00
Zn1230 Zn    0.89769   0.49400   0.74479   0.00000  Uiso   1.00
Br1231 Br    0.06654   0.94793   0.96133   0.00000  Uiso   1.00
Br1232 Br    0.06341   0.69635   0.55670   0.00000  Uiso   1.00
C1233  C     0.18193   0.93162   0.74774   0.00000  Uiso   1.00
C1234  C     0.16452   0.87709   0.90806   0.00000  Uiso   1.00
C1235  C     0.16440   0.83299   0.61570   0.00000  Uiso   1.00
C1236  C     0.16604   0.83090   0.88493   0.00000  Uiso   1.00
C1237  C     0.17073   0.87863   0.59148   0.00000  Uiso   1.00
C1238  C     0.15308   0.78428   0.90754   0.00000  Uiso   1.00
C1239  C     0.15665   0.87785   0.54682   0.00000  Uiso   1.00
C1240  C     0.14562   0.78406   0.95501   0.00000  Uiso   1.00
C1241  C     0.14862   0.83108   0.52499   0.00000  Uiso   1.00
C1242  C     0.14898   0.83026   0.97802   0.00000  Uiso   1.00
C1243  C     0.14195   0.78555   0.54941   0.00000  Uiso   1.00
C1244  C     0.15138   0.73504   0.74987   0.00000  Uiso   1.00
C1245  C     0.15101   0.87610   0.95456   0.00000  Uiso   1.00
C1246  C     0.14636   0.92205   0.52369   0.00000  Uiso   1.00
C1247  C     0.12920   0.74013   0.98038   0.00000  Uiso   1.00
C1248  C     0.17418   0.73906   0.61689   0.00000  Uiso   1.00
C1249  C     0.24051   0.73788   0.60904   0.00000  Uiso   1.00
C1250  C     0.26739   0.71540   0.64894   0.00000  Uiso   1.00
C1251  C     0.17938   0.92675   0.88323   0.00000  Uiso   1.00
C1252  C     0.24440   0.93520   0.87076   0.00000  Uiso   1.00
C1253  C     0.25828   0.98515   0.84539   0.00000  Uiso   1.00
C1254  C     0.20412   0.92456   0.60963   0.00000  Uiso   1.00
C1255  C     0.13501   0.91886   0.97866   0.00000  Uiso   1.00
C1256  C     0.26354   0.93417   0.58312   0.00000  Uiso   1.00
C1257  C     0.30159   0.88920   0.58437   0.00000  Uiso   1.00
C1258  C     0.14430   0.73614   0.88078   0.00000  Uiso   1.00
C1259  C     0.07981   0.72430   0.87513   0.00000  Uiso   1.00
C1260  C     0.06960   0.67698   0.84669   0.00000  Uiso   1.00
C1261  C     0.12207   0.74188   0.52722   0.00000  Uiso   1.00
C1262  C     0.18988   0.98589   0.74560   0.00000  Uiso   1.00
C1263  C     0.14360   0.68078   0.74707   0.00000  Uiso   1.00
C1264  C     0.16694   0.83246   0.83657   0.00000  Uiso   1.00
C1265  C     0.16629   0.83415   0.66354   0.00000  Uiso   1.00
C1266  C     0.15387   0.78594   0.59485   0.00000  Uiso   1.00
H1267  H     0.14084   0.95706   0.54137   0.00000  Uiso   1.00
H1268  H     0.25123   0.71547   0.57824   0.00000  Uiso   1.00
H1269  H     0.26131   0.77646   0.60316   0.00000  Uiso   1.00
H1270  H     0.15978   0.73805   0.65331   0.00000  Uiso   1.00
H1271  H     0.15502   0.70388   0.60332   0.00000  Uiso   1.00
H1272  H     0.22001   0.99845   0.83023   0.00000  Uiso   1.00
H1273  H     0.27393   0.68170   0.86855   0.00000  Uiso   1.00
H1274  H     0.29158   0.97976   0.81742   0.00000  Uiso   1.00
H1275  H     0.26810   0.93559   0.90180   0.00000  Uiso   1.00
H1276  H     0.26000   0.90388   0.84929   0.00000  Uiso   1.00
H1277  H     0.15533   0.92742   0.85261   0.00000  Uiso   1.00
H1278  H     0.11751   0.70548   0.96426   0.00000  Uiso   1.00
H1279  H     0.16625   0.95892   0.90404   0.00000  Uiso   1.00
H1280  H     0.30521   0.87710   0.61967   0.00000  Uiso   1.00
H1281  H     0.28348   0.85703   0.56481   0.00000  Uiso   1.00
H1282  H     0.01223   0.90030   0.56890   0.00000  Uiso   1.00
H1283  H     0.25811   0.94397   0.54752   0.00000  Uiso   1.00
H1284  H     0.28706   0.96689   0.59789   0.00000  Uiso   1.00
H1285  H     0.17863   0.95811   0.60791   0.00000  Uiso   1.00
H1286  H     0.21162   0.92070   0.64572   0.00000  Uiso   1.00
H1287  H     0.11055   0.99479   0.83365   0.00000  Uiso   1.00
H1288  H     0.04402   0.98035   0.86681   0.00000  Uiso   1.00
H1289  H     0.23380   0.66936   0.74462   0.00000  Uiso   1.00
H1290  H     0.04605   0.68670   0.81728   0.00000  Uiso   1.00
H1291  H     0.05526   0.71918   0.90847   0.00000  Uiso   1.00
H1292  H     0.06222   0.75692   0.85856   0.00000  Uiso   1.00
H1293  H     0.16823   0.73896   0.84710   0.00000  Uiso   1.00
H1294  H     0.16356   0.70510   0.89751   0.00000  Uiso   1.00
H1295  H     0.09978   0.99723   0.74740   0.00000  Uiso   1.00
H1296  H     0.00517   0.79490   0.71667   0.00000  Uiso   1.00
H1297  H     0.32829   0.87189   0.78329   0.00000  Uiso   1.00
H1298  H     0.26558   0.74202   0.67755   0.00000  Uiso   1.00
H1299  H     0.24439   0.67894   0.65947   0.00000  Uiso   1.00
H1300  H     0.31355   0.70922   0.63978   0.00000  Uiso   1.00
N1301  N     0.31678   0.81932   0.73783   0.00000  Uiso   1.00
N1302  N     0.01656   0.84735   0.76217   0.00000  Uiso   1.00
O1303  O     0.12975   0.91286   0.75299   0.00000  Uiso   1.00
O1304  O     0.20358   0.75381   0.74702   0.00000  Uiso   1.00
O1305  O     0.22613   0.90387   0.74519   0.00000  Uiso   1.00
O1306  O     0.10720   0.76279   0.75482   0.00000  Uiso   1.00
O1307  O     0.11847   0.83784   0.81998   0.00000  Uiso   1.00
O1308  O     0.21486   0.82883   0.68003   0.00000  Uiso   1.00
O1309  O     0.21485   0.82885   0.81218   0.00000  Uiso   1.00
O1310  O     0.11848   0.83781   0.68783   0.00000  Uiso   1.00
Zn1311 Zn    0.10231   0.83933   0.75521   0.00000  Uiso   1.00
Zn1312 Zn    0.23102   0.82734   0.74479   0.00000  Uiso   1.00
Br1313 Br    0.39987   0.94793   0.96133   0.00000  Uiso   1.00
Br1314 Br    0.39674   0.69635   0.55670   0.00000  Uiso   1.00
C1315  C     0.51527   0.93162   0.74774   0.00000  Uiso   1.00
C1316  C     0.49785   0.87709   0.90806   0.00000  Uiso   1.00
C1317  C     0.49773   0.83299   0.61570   0.00000  Uiso   1.00
C1318  C     0.49938   0.83090   0.88493   0.00000  Uiso   1.00
C1319  C     0.50406   0.87863   0.59148   0.00000  Uiso   1.00
C1320  C     0.48642   0.78428   0.90754   0.00000  Uiso   1.00
C1321  C     0.48998   0.87785   0.54682   0.00000  Uiso   1.00
C1322  C     0.47895   0.78406   0.95501   0.00000  Uiso   1.00
C1323  C     0.48196   0.83108   0.52499   0.00000  Uiso   1.00
C1324  C     0.48231   0.83026   0.97802   0.00000  Uiso   1.00
C1325  C     0.47529   0.78555   0.54941   0.00000  Uiso   1.00
C1326  C     0.48471   0.73504   0.74987   0.00000  Uiso   1.00
C1327  C     0.48434   0.87610   0.95456   0.00000  Uiso   1.00
C1328  C     0.47969   0.92205   0.52369   0.00000  Uiso   1.00
C1329  C     0.46254   0.74013   0.98038   0.00000  Uiso   1.00
C1330  C     0.50752   0.73906   0.61689   0.00000  Uiso   1.00
C1331  C     0.57384   0.73788   0.60904   0.00000  Uiso   1.00
C1332  C     0.60072   0.71540   0.64894   0.00000  Uiso   1.00
C1333  C     0.51271   0.92675   0.88323   0.00000  Uiso   1.00
C1334  C     0.57773   0.93520   0.87076   0.00000  Uiso   1.00
C1335  C     0.59161   0.98515   0.84539   0.00000  Uiso   1.00
C1336  C     0.53746   0.92456   0.60963   0.00000  Uiso   1.00
C1337  C     0.46834   0.91886   0.97866   0.00000  Uiso   1.00
C1338  C     0.59687   0.93417   0.58312   0.00000  Uiso   1.00
C1339  C     0.63492   0.88920   0.58437   0.00000  Uiso   1.00
C1340  C     0.47764   0.73614   0.88078   0.00000  Uiso   1.00
C1341  C     0.41315   0.72430   0.87513   0.00000  Uiso   1.00
C1342  C     0.40293   0.67698   0.84669   0.00000  Uiso   1.00
C1343  C     0.45540   0.74188   0.52722   0.00000  Uiso   1.00
C1344  C     0.52321   0.98589   0.74560   0.00000  Uiso   1.00
C1345  C     0.47694   0.68078   0.74707   0.00000  Uiso   1.00
C1346  C     0.50028   0.83246   0.83657   0.00000  Uiso   1.00
C1347  C     0.49962   0.83415   0.66354   0.00000  Uiso   1.00
C1348  C     0.48721   0.78594   0.59485   0.00000  Uiso   1.00
H1349  H     0.47417   0.95706   0.54137   0.00000  Uiso   1.00
H1350  H     0.58457   0.71547   0.57824   0.00000  Uiso   1.00
H1351  H     0.59465   0.77646   0.60316   0.00000  Uiso   1.00
H1352  H     0.49311   0.73805   0.65331   0.00000  Uiso   1.00
H1353  H     0.48835   0.70388   0.60332   0.00000  Uiso   1.00
H1354  H     0.55334   0.99845   0.83023   0.00000  Uiso   1.00
H1355  H     0.60726   0.68170   0.86855   0.00000  Uiso   1.00
H1356  H     0.62492   0.97976   0.81742   0.00000  Uiso   1.00
H1357  H     0.60144   0.93559   0.90180   0.00000  Uiso   1.00
H1358  H     0.59333   0.90388   0.84929   0.00000  Uiso   1.00
H1359  H     0.48867   0.92742   0.85261   0.00000  Uiso   1.00
H1360  H     0.45084   0.70548   0.96426   0.00000  Uiso   1.00
H1361  H     0.49958   0.95892   0.90404   0.00000  Uiso   1.00
H1362  H     0.63854   0.87710   0.61967   0.00000  Uiso   1.00
H1363  H     0.61681   0.85703   0.56481   0.00000  Uiso   1.00
H1364  H     0.34556   0.90030   0.56890   0.00000  Uiso   1.00
H1365  H     0.59144   0.94397   0.54752   0.00000  Uiso   1.00
H1366  H     0.62039   0.96689   0.59789   0.00000  Uiso   1.00
H1367  H     0.51196   0.95811   0.60791   0.00000  Uiso   1.00
H1368  H     0.54495   0.92070   0.64572   0.00000  Uiso   1.00
H1369  H     0.44388   0.99479   0.83365   0.00000  Uiso   1.00
H1370  H     0.37735   0.98035   0.86681   0.00000  Uiso   1.00
H1371  H     0.56713   0.66936   0.74462   0.00000  Uiso   1.00
H1372  H     0.37938   0.68670   0.81728   0.00000  Uiso   1.00
H1373  H     0.38860   0.71918   0.90847   0.00000  Uiso   1.00
H1374  H     0.39555   0.75692   0.85856   0.00000  Uiso   1.00
H1375  H     0.50156   0.73896   0.84710   0.00000  Uiso   1.00
H1376  H     0.49689   0.70510   0.89751   0.00000  Uiso   1.00
H1377  H     0.43311   0.99723   0.74740   0.00000  Uiso   1.00
H1378  H     0.33850   0.79490   0.71667   0.00000  Uiso   1.00
H1379  H     0.66162   0.87189   0.78329   0.00000  Uiso   1.00
H1380  H     0.59892   0.74202   0.67755   0.00000  Uiso   1.00
H1381  H     0.57772   0.67894   0.65947   0.00000  Uiso   1.00
H1382  H     0.64688   0.70922   0.63978   0.00000  Uiso   1.00
N1383  N     0.65011   0.81932   0.73783   0.00000  Uiso   1.00
N1384  N     0.34989   0.84735   0.76217   0.00000  Uiso   1.00
O1385  O     0.46308   0.91286   0.75299   0.00000  Uiso   1.00
O1386  O     0.53692   0.75381   0.74702   0.00000  Uiso   1.00
O1387  O     0.55946   0.90387   0.74519   0.00000  Uiso   1.00
O1388  O     0.44054   0.76279   0.75482   0.00000  Uiso   1.00
O1389  O     0.45181   0.83784   0.81998   0.00000  Uiso   1.00
O1390  O     0.54819   0.82883   0.68003   0.00000  Uiso   1.00
O1391  O     0.54819   0.82885   0.81218   0.00000  Uiso   1.00
O1392  O     0.45181   0.83781   0.68783   0.00000  Uiso   1.00
Zn1393 Zn    0.43565   0.83933   0.75521   0.00000  Uiso   1.00
Zn1394 Zn    0.56435   0.82734   0.74479   0.00000  Uiso   1.00
Br1395 Br    0.73321   0.94793   0.96133   0.00000  Uiso   1.00
Br1396 Br    0.73007   0.69635   0.55670   0.00000  Uiso   1.00
C1397  C     0.84860   0.93162   0.74774   0.00000  Uiso   1.00
C1398  C     0.83118   0.87709   0.90806   0.00000  Uiso   1.00
C1399  C     0.83106   0.83299   0.61570   0.00000  Uiso   1.00
C1400  C     0.83271   0.83090   0.88493   0.00000  Uiso   1.00
C1401  C     0.83740   0.87863   0.59148   0.00000  Uiso   1.00
C1402  C     0.81975   0.78428   0.90754   0.00000  Uiso   1.00
C1403  C     0.82332   0.87785   0.54682   0.00000  Uiso   1.00
C1404  C     0.81229   0.78406   0.95501   0.00000  Uiso   1.00
C1405  C     0.81529   0.83108   0.52499   0.00000  Uiso   1.00
C1406  C     0.81564   0.83026   0.97802   0.00000  Uiso   1.00
C1407  C     0.80862   0.78555   0.54941   0.00000  Uiso   1.00
C1408  C     0.81804   0.73504   0.74987   0.00000  Uiso   1.00
C1409  C     0.81768   0.87610   0.95456   0.00000  Uiso   1.00
C1410  C     0.81303   0.92205   0.52369   0.00000  Uiso   1.00
C1411  C     0.79587   0.74013   0.98038   0.00000  Uiso   1.00
C1412  C     0.84085   0.73906   0.61689   0.00000  Uiso   1.00
C1413  C     0.90717   0.73788   0.60904   0.00000  Uiso   1.00
C1414  C     0.93405   0.71540   0.64894   0.00000  Uiso   1.00
C1415  C     0.84605   0.92675   0.88323   0.00000  Uiso   1.00
C1416  C     0.91106   0.93520   0.87076   0.00000  Uiso   1.00
C1417  C     0.92494   0.98515   0.84539   0.00000  Uiso   1.00
C1418  C     0.87079   0.92456   0.60963   0.00000  Uiso   1.00
C1419  C     0.80167   0.91886   0.97866   0.00000  Uiso   1.00
C1420  C     0.93021   0.93417   0.58312   0.00000  Uiso   1.00
C1421  C     0.96826   0.88920   0.58437   0.00000  Uiso   1.00
C1422  C     0.81097   0.73614   0.88078   0.00000  Uiso   1.00
C1423  C     0.74648   0.72430   0.87513   0.00000  Uiso   1.00
C1424  C     0.73627   0.67698   0.84669   0.00000  Uiso   1.00
C1425  C     0.78873   0.74188   0.52722   0.00000  Uiso   1.00
C1426  C     0.85655   0.98589   0.74560   0.00000  Uiso   1.00
C1427  C     0.81027   0.68078   0.74707   0.00000  Uiso   1.00
C1428  C     0.83361   0.83246   0.83657   0.00000  Uiso   1.00
C1429  C     0.83296   0.83415   0.66354   0.00000  Uiso   1.00
C1430  C     0.82054   0.78594   0.59485   0.00000  Uiso   1.00
H1431  H     0.80751   0.95706   0.54137   0.00000  Uiso   1.00
H1432  H     0.91790   0.71547   0.57824   0.00000  Uiso   1.00
H1433  H     0.92798   0.77646   0.60316   0.00000  Uiso   1.00
H1434  H     0.82645   0.73805   0.65331   0.00000  Uiso   1.00
H1435  H     0.82168   0.70388   0.60332   0.00000  Uiso   1.00
H1436  H     0.88668   0.99845   0.83023   0.00000  Uiso   1.00
H1437  H     0.94060   0.68170   0.86855   0.00000  Uiso   1.00
H1438  H     0.95825   0.97976   0.81742   0.00000  Uiso   1.00
H1439  H     0.93477   0.93559   0.90180   0.00000  Uiso   1.00
H1440  H     0.92667   0.90388   0.84929   0.00000  Uiso   1.00
H1441  H     0.82200   0.92742   0.85261   0.00000  Uiso   1.00
H1442  H     0.78417   0.70548   0.96426   0.00000  Uiso   1.00
H1443  H     0.83292   0.95892   0.90404   0.00000  Uiso   1.00
H1444  H     0.97188   0.87710   0.61967   0.00000  Uiso   1.00
H1445  H     0.95014   0.85703   0.56481   0.00000  Uiso   1.00
H1446  H     0.67890   0.90030   0.56890   0.00000  Uiso   1.00
H1447  H     0.92477   0.94397   0.54752   0.00000  Uiso   1.00
H1448  H     0.95373   0.96689   0.59789   0.00000  Uiso   1.00
H1449  H     0.84530   0.95811   0.60791   0.00000  Uiso   1.00
H1450  H     0.87829   0.92070   0.64572   0.00000  Uiso   1.00
H1451  H     0.77721   0.99479   0.83365   0.00000  Uiso   1.00
H1452  H     0.71069   0.98035   0.86681   0.00000  Uiso   1.00
H1453  H     0.90046   0.66936   0.74462   0.00000  Uiso   1.00
H1454  H     0.71272   0.68670   0.81728   0.00000  Uiso   1.00
H1455  H     0.72193   0.71918   0.90847   0.00000  Uiso   1.00
H1456  H     0.72888   0.75692   0.85856   0.00000  Uiso   1.00
H1457  H     0.83489   0.73896   0.84710   0.00000  Uiso   1.00
H1458  H     0.83022   0.70510   0.89751   0.00000  Uiso   1.00
H1459  H     0.76645   0.99723   0.74740   0.00000  Uiso   1.00
H1460  H     0.67184   0.79490   0.71667   0.00000  Uiso   1.00
H1461  H     0.99495   0.87189   0.78329   0.00000  Uiso   1.00
H1462  H     0.93225   0.74202   0.67755   0.00000  Uiso   1.00
H1463  H     0.91106   0.67894   0.65947   0.00000  Uiso   1.00
H1464  H     0.98021   0.70922   0.63978   0.00000  Uiso   1.00
N1465  N     0.98344   0.81932   0.73783   0.00000  Uiso   1.00
N1466  N     0.68322   0.84735   0.76217   0.00000  Uiso   1.00
O1467  O     0.79642   0.91286   0.75299   0.00000  Uiso   1.00
O1468  O     0.87025   0.75381   0.74702   0.00000  Uiso   1.00
O1469  O     0.89280   0.90387   0.74519   0.00000  Uiso   1.00
O1470  O     0.77387   0.76279   0.75482   0.00000  Uiso   1.00
O1471  O     0.78514   0.83784   0.81998   0.00000  Uiso   1.00
O1472  O     0.88153   0.82883   0.68003   0.00000  Uiso   1.00
O1473  O     0.88152   0.82885   0.81218   0.00000  Uiso   1.00
O1474  O     0.78515   0.83781   0.68783   0.00000  Uiso   1.00
Zn1475 Zn    0.76898   0.83933   0.75521   0.00000  Uiso   1.00
Zn1476 Zn    0.89769   0.82734   0.74479   0.00000  Uiso   1.00
loop_
_geom_bond_atom_site_label_1
_geom_bond_atom_site_label_2
_geom_bond_distance
_geom_bond_site_symmetry_2
_ccdc_geom_bond_type
Br1    C25     1.918   .     S
Br2    C31     1.923   .     S
C3     O75     1.298   .     A
C3     C32     1.438   .     S
C3     O73     1.280   .     A
C4     C6      1.403   .     A
C4     C15     1.396   .     A
C4     C21     1.518   .     S
C5     C36     1.406   .     A
C5     C7      1.403   .     A
C5     C35     1.429   .     S
C6     C8      1.412   .     A
C6     C34     1.439   .     S
C7     C24     1.522   .     S
C7     C9      1.394   .     A
C8     C28     1.512   .     S
C8     C10     1.411   .     A
C9     C16     1.402   .     A
C9     C11     1.405   .     A
C10    C17     1.405   .     A
C10    C12     1.401   .     A
C11    C13     1.403   .     A
C11    C750    1.398   1_554 S
C12    C15     1.398   .     A
C12    C749    1.398   .     S
C13    C36     1.402   .     A
C13    C31     1.401   .     A
C14    C33     1.439   .     S
C14    O74     1.279   .     A
C14    O76     1.299   .     A
C15    C25     1.393   .     A
C16    H37     1.074   .     S
C16    C763    1.388   1_554 S
C17    H48     1.064   .     S
C17    C769    1.393   .     S
C18    C19     1.544   .     S
C18    H40     1.110   .     S
C18    H41     1.097   .     S
C18    C36     1.524   .     S
C19    C20     1.525   .     S
C19    H38     1.111   .     S
C19    H39     1.111   .     S
C20    H70     1.109   .     S
C20    H68     1.104   .     S
C20    H69     1.108   .     S
C21    H49     1.097   .     S
C21    C22     1.531   .     S
C21    H47     1.107   .     S
C22    H46     1.107   .     S
C22    H45     1.112   .     S
C22    C23     1.529   .     S
C23    H42     1.106   .     S
C23    H44     1.107   .     S
C23    H289    1.111   .     S
C24    H55     1.102   .     S
C24    C26     1.544   .     S
C24    H56     1.108   .     S
C25    C754    1.388   .     S
C26    C27     1.530   .     S
C26    H54     1.104   .     S
C26    H53     1.111   .     S
C27    H51     1.110   .     S
C27    H50     1.111   .     S
C27    H134    1.111   .     S
C28    C29     1.535   .     S
C28    H64     1.099   .     S
C28    H63     1.109   .     S
C29    H61     1.110   .     S
C29    C30     1.526   .     S
C29    H62     1.112   .     S
C30    H60     1.108   .     S
C30    H549    1.103   1_545 S
C30    H550    1.109   1_545 S
C31    C755    1.393   1_554 S
C32    C279    1.346   .     S
C32    H305    1.087   .     S
C33    C524    1.346   1_545 S
C33    H557    1.086   1_545 S
C34    O77     1.282   .     A
C34    O79     1.291   .     A
C35    O80     1.287   .     A
C35    O78     1.282   .     A
H43    C515    1.111   1_545 S
H52    C191    1.111   1_455 S
H57    C276    1.103   .     S
H58    C276    1.109   .     S
H59    C524    1.087   1_545 S
H65    C279    1.086   .     S
H66    N235    1.029   1_455 S
H67    N154    1.029   .     S
N71    Zn82    2.014   .     S
N71    H148    1.029   .     S
N71    N154    1.297   .     S
N72    Zn81    2.014   .     S
N72    N235    1.297   1_455 S
N72    H231    1.029   1_455 S
O73    Zn81    2.009   .     S
O74    Zn82    2.009   .     S
O75    Zn82    2.036   .     S
O76    Zn81    2.036   .     S
O77    Zn81    1.994   .     S
O78    Zn82    1.994   .     S
O79    Zn82    2.013   .     S
O80    Zn81    2.013   .     S
Br83   C107    1.918   .     S
Br84   C113    1.923   .     S
C85    O157    1.298   .     A
C85    C114    1.438   .     S
C85    O155    1.280   .     A
C86    C88     1.403   .     A
C86    C97     1.396   .     A
C86    C103    1.518   .     S
C87    C118    1.406   .     A
C87    C89     1.403   .     A
C87    C117    1.429   .     S
C88    C90     1.412   .     A
C88    C116    1.439   .     S
C89    C106    1.522   .     S
C89    C91     1.394   .     A
C90    C110    1.512   .     S
C90    C92     1.411   .     A
C91    C98     1.402   .     A
C91    C93     1.405   .     A
C92    C99     1.405   .     A
C92    C94     1.401   .     A
C93    C95     1.403   .     A
C93    C832    1.398   1_554 S
C94    C97     1.398   .     A
C94    C831    1.398   .     S
C95    C118    1.402   .     A
C95    C113    1.401   .     A
C96    C115    1.439   .     S
C96    O156    1.279   .     A
C96    O158    1.299   .     A
C97    C107    1.393   .     A
C98    H119    1.074   .     S
C98    C845    1.388   1_554 S
C99    H130    1.064   .     S
C99    C851    1.393   .     S
C100   C101    1.544   .     S
C100   H122    1.110   .     S
C100   H123    1.097   .     S
C100   C118    1.524   .     S
C101   C102    1.525   .     S
C101   H120    1.111   .     S
C101   H121    1.111   .     S
C102   H152    1.109   .     S
C102   H150    1.104   .     S
C102   H151    1.108   .     S
C103   H131    1.097   .     S
C103   C104    1.531   .     S
C103   H129    1.107   .     S
C104   H128    1.107   .     S
C104   H127    1.112   .     S
C104   C105    1.529   .     S
C105   H124    1.106   .     S
C105   H126    1.107   .     S
C105   H371    1.111   .     S
C106   H137    1.102   .     S
C106   C108    1.544   .     S
C106   H138    1.108   .     S
C107   C836    1.388   .     S
C108   C109    1.530   .     S
C108   H136    1.104   .     S
C108   H135    1.111   .     S
C109   H133    1.110   .     S
C109   H132    1.111   .     S
C109   H216    1.111   .     S
C110   C111    1.535   .     S
C110   H146    1.099   .     S
C110   H145    1.109   .     S
C111   H143    1.110   .     S
C111   C112    1.526   .     S
C111   H144    1.112   .     S
C112   H142    1.108   .     S
C112   H631    1.103   1_545 S
C112   H632    1.109   1_545 S
C113   C837    1.393   1_554 S
C114   C361    1.346   .     S
C114   H387    1.087   .     S
C115   C606    1.346   1_545 S
C115   H639    1.086   1_545 S
C116   O159    1.282   .     A
C116   O161    1.291   .     A
C117   O162    1.287   .     A
C117   O160    1.282   .     A
H125   C597    1.111   1_545 S
H139   C358    1.103   .     S
H140   C358    1.109   .     S
H141   C606    1.087   1_545 S
H147   C361    1.086   .     S
H149   N236    1.029   .     S
N153   Zn164   2.014   .     S
N153   H230    1.029   .     S
N153   N236    1.297   .     S
N154   Zn163   2.014   .     S
O155   Zn163   2.009   .     S
O156   Zn164   2.009   .     S
O157   Zn164   2.036   .     S
O158   Zn163   2.036   .     S
O159   Zn163   1.994   .     S
O160   Zn164   1.994   .     S
O161   Zn164   2.013   .     S
O162   Zn163   2.013   .     S
Br165  C189    1.918   .     S
Br166  C195    1.923   .     S
C167   O239    1.298   .     A
C167   C196    1.438   .     S
C167   O237    1.280   .     A
C168   C170    1.403   .     A
C168   C179    1.396   .     A
C168   C185    1.518   .     S
C169   C200    1.406   .     A
C169   C171    1.403   .     A
C169   C199    1.429   .     S
C170   C172    1.412   .     A
C170   C198    1.439   .     S
C171   C188    1.522   .     S
C171   C173    1.394   .     A
C172   C192    1.512   .     S
C172   C174    1.411   .     A
C173   C180    1.402   .     A
C173   C175    1.405   .     A
C174   C181    1.405   .     A
C174   C176    1.401   .     A
C175   C177    1.403   .     A
C175   C914    1.398   1_554 S
C176   C179    1.398   .     A
C176   C913    1.398   .     S
C177   C200    1.402   .     A
C177   C195    1.401   .     A
C178   C197    1.439   .     S
C178   O238    1.279   .     A
C178   O240    1.299   .     A
C179   C189    1.393   .     A
C180   H201    1.074   .     S
C180   C927    1.388   1_554 S
C181   H212    1.064   .     S
C181   C933    1.393   .     S
C182   C183    1.544   .     S
C182   H204    1.110   .     S
C182   H205    1.097   .     S
C182   C200    1.524   .     S
C183   C184    1.525   .     S
C183   H202    1.111   .     S
C183   H203    1.111   .     S
C184   H234    1.109   .     S
C184   H232    1.104   .     S
C184   H233    1.108   .     S
C185   H213    1.097   .     S
C185   C186    1.531   .     S
C185   H211    1.107   .     S
C186   H210    1.107   .     S
C186   H209    1.112   .     S
C186   C187    1.529   .     S
C187   H206    1.106   .     S
C187   H208    1.107   .     S
C187   H453    1.111   .     S
C188   H219    1.102   .     S
C188   C190    1.544   .     S
C188   H220    1.108   .     S
C189   C918    1.388   .     S
C190   C191    1.530   .     S
C190   H218    1.104   .     S
C190   H217    1.111   .     S
C191   H215    1.110   .     S
C191   H214    1.111   .     S
C191   H52     1.111   1_655 S
C192   C193    1.535   .     S
C192   H228    1.099   .     S
C192   H227    1.109   .     S
C193   H225    1.110   .     S
C193   C194    1.526   .     S
C193   H226    1.112   .     S
C194   H224    1.108   .     S
C194   H713    1.103   1_545 S
C194   H714    1.109   1_545 S
C195   C919    1.393   1_554 S
C196   C443    1.346   .     S
C196   H469    1.087   .     S
C197   C688    1.346   1_545 S
C197   H721    1.086   1_545 S
C198   O241    1.282   .     A
C198   O243    1.291   .     A
C199   O244    1.287   .     A
C199   O242    1.282   .     A
H207   C679    1.111   1_545 S
H221   C440    1.103   .     S
H222   C440    1.109   .     S
H223   C688    1.087   1_545 S
H229   C443    1.086   .     S
H231   N72     1.029   1_655 S
N235   Zn246   2.014   .     S
N235   H66     1.029   1_655 S
N235   N72     1.297   1_655 S
N236   Zn245   2.014   .     S
O237   Zn245   2.009   .     S
O238   Zn246   2.009   .     S
O239   Zn246   2.036   .     S
O240   Zn245   2.036   .     S
O241   Zn245   1.994   .     S
O242   Zn246   1.994   .     S
O243   Zn246   2.013   .     S
O244   Zn245   2.013   .     S
Br247  C271    1.918   .     S
Br248  C277    1.923   .     S
C249   O321    1.298   .     A
C249   C278    1.438   .     S
C249   O319    1.280   .     A
C250   C252    1.403   .     A
C250   C261    1.396   .     A
C250   C267    1.518   .     S
C251   C282    1.406   .     A
C251   C253    1.403   .     A
C251   C281    1.429   .     S
C252   C254    1.412   .     A
C252   C280    1.439   .     S
C253   C270    1.522   .     S
C253   C255    1.394   .     A
C254   C274    1.512   .     S
C254   C256    1.411   .     A
C255   C262    1.402   .     A
C255   C257    1.405   .     A
C256   C263    1.405   .     A
C256   C258    1.401   .     A
C257   C259    1.403   .     A
C257   C996    1.398   1_554 S
C258   C261    1.398   .     A
C258   C995    1.398   .     S
C259   C282    1.402   .     A
C259   C277    1.401   .     A
C260   C279    1.439   .     S
C260   O320    1.279   .     A
C260   O322    1.299   .     A
C261   C271    1.393   .     A
C262   H283    1.074   .     S
C262   C1009   1.388   1_554 S
C263   H294    1.064   .     S
C263   C1015   1.393   .     S
C264   C265    1.544   .     S
C264   H286    1.110   .     S
C264   H287    1.097   .     S
C264   C282    1.524   .     S
C265   C266    1.525   .     S
C265   H284    1.111   .     S
C265   H285    1.111   .     S
C266   H316    1.109   .     S
C266   H314    1.104   .     S
C266   H315    1.108   .     S
C267   H295    1.097   .     S
C267   C268    1.531   .     S
C267   H293    1.107   .     S
C268   H292    1.107   .     S
C268   H291    1.112   .     S
C268   C269    1.529   .     S
C269   H288    1.106   .     S
C269   H290    1.107   .     S
C269   H535    1.111   .     S
C270   H301    1.102   .     S
C270   C272    1.544   .     S
C270   H302    1.108   .     S
C271   C1000   1.388   .     S
C272   C273    1.530   .     S
C272   H300    1.104   .     S
C272   H299    1.111   .     S
C273   H297    1.110   .     S
C273   H296    1.111   .     S
C273   H380    1.111   .     S
C274   C275    1.535   .     S
C274   H310    1.099   .     S
C274   H309    1.109   .     S
C275   H307    1.110   .     S
C275   C276    1.526   .     S
C275   H308    1.112   .     S
C276   H306    1.108   .     S
C277   C1001   1.393   1_554 S
C278   C525    1.346   .     S
C278   H551    1.087   .     S
C280   O323    1.282   .     A
C280   O325    1.291   .     A
C281   O326    1.287   .     A
C281   O324    1.282   .     A
H298   C437    1.111   1_455 S
H303   C522    1.103   .     S
H304   C522    1.109   .     S
H311   C525    1.086   .     S
H312   N481    1.029   1_455 S
H313   N400    1.029   .     S
N317   Zn328   2.014   .     S
N317   H394    1.029   .     S
N317   N400    1.297   .     S
N318   Zn327   2.014   .     S
N318   N481    1.297   1_455 S
N318   H477    1.029   1_455 S
O319   Zn327   2.009   .     S
O320   Zn328   2.009   .     S
O321   Zn328   2.036   .     S
O322   Zn327   2.036   .     S
O323   Zn327   1.994   .     S
O324   Zn328   1.994   .     S
O325   Zn328   2.013   .     S
O326   Zn327   2.013   .     S
Br329  C353    1.918   .     S
Br330  C359    1.923   .     S
C331   O403    1.298   .     A
C331   C360    1.438   .     S
C331   O401    1.280   .     A
C332   C334    1.403   .     A
C332   C343    1.396   .     A
C332   C349    1.518   .     S
C333   C364    1.406   .     A
C333   C335    1.403   .     A
C333   C363    1.429   .     S
C334   C336    1.412   .     A
C334   C362    1.439   .     S
C335   C352    1.522   .     S
C335   C337    1.394   .     A
C336   C356    1.512   .     S
C336   C338    1.411   .     A
C337   C344    1.402   .     A
C337   C339    1.405   .     A
C338   C345    1.405   .     A
C338   C340    1.401   .     A
C339   C341    1.403   .     A
C339   C1078   1.398   1_554 S
C340   C343    1.398   .     A
C340   C1077   1.398   .     S
C341   C364    1.402   .     A
C341   C359    1.401   .     A
C342   C361    1.439   .     S
C342   O402    1.279   .     A
C342   O404    1.299   .     A
C343   C353    1.393   .     A
C344   H365    1.074   .     S
C344   C1091   1.388   1_554 S
C345   H376    1.064   .     S
C345   C1097   1.393   .     S
C346   C347    1.544   .     S
C346   H368    1.110   .     S
C346   H369    1.097   .     S
C346   C364    1.524   .     S
C347   C348    1.525   .     S
C347   H366    1.111   .     S
C347   H367    1.111   .     S
C348   H398    1.109   .     S
C348   H396    1.104   .     S
C348   H397    1.108   .     S
C349   H377    1.097   .     S
C349   C350    1.531   .     S
C349   H375    1.107   .     S
C350   H374    1.107   .     S
C350   H373    1.112   .     S
C350   C351    1.529   .     S
C351   H370    1.106   .     S
C351   H372    1.107   .     S
C351   H617    1.111   .     S
C352   H383    1.102   .     S
C352   C354    1.544   .     S
C352   H384    1.108   .     S
C353   C1082   1.388   .     S
C354   C355    1.530   .     S
C354   H382    1.104   .     S
C354   H381    1.111   .     S
C355   H379    1.110   .     S
C355   H378    1.111   .     S
C355   H462    1.111   .     S
C356   C357    1.535   .     S
C356   H392    1.099   .     S
C356   H391    1.109   .     S
C357   H389    1.110   .     S
C357   C358    1.526   .     S
C357   H390    1.112   .     S
C358   H388    1.108   .     S
C359   C1083   1.393   1_554 S
C360   C607    1.346   .     S
C360   H633    1.087   .     S
C362   O405    1.282   .     A
C362   O407    1.291   .     A
C363   O408    1.287   .     A
C363   O406    1.282   .     A
H385   C604    1.103   .     S
H386   C604    1.109   .     S
H393   C607    1.086   .     S
H395   N482    1.029   .     S
N399   Zn410   2.014   .     S
N399   H476    1.029   .     S
N399   N482    1.297   .     S
N400   Zn409   2.014   .     S
O401   Zn409   2.009   .     S
O402   Zn410   2.009   .     S
O403   Zn410   2.036   .     S
O404   Zn409   2.036   .     S
O405   Zn409   1.994   .     S
O406   Zn410   1.994   .     S
O407   Zn410   2.013   .     S
O408   Zn409   2.013   .     S
Br411  C435    1.918   .     S
Br412  C441    1.923   .     S
C413   O485    1.298   .     A
C413   C442    1.438   .     S
C413   O483    1.280   .     A
C414   C416    1.403   .     A
C414   C425    1.396   .     A
C414   C431    1.518   .     S
C415   C446    1.406   .     A
C415   C417    1.403   .     A
C415   C445    1.429   .     S
C416   C418    1.412   .     A
C416   C444    1.439   .     S
C417   C434    1.522   .     S
C417   C419    1.394   .     A
C418   C438    1.512   .     S
C418   C420    1.411   .     A
C419   C426    1.402   .     A
C419   C421    1.405   .     A
C420   C427    1.405   .     A
C420   C422    1.401   .     A
C421   C423    1.403   .     A
C421   C1160   1.398   1_554 S
C422   C425    1.398   .     A
C422   C1159   1.398   .     S
C423   C446    1.402   .     A
C423   C441    1.401   .     A
C424   C443    1.439   .     S
C424   O484    1.279   .     A
C424   O486    1.299   .     A
C425   C435    1.393   .     A
C426   H447    1.074   .     S
C426   C1173   1.388   1_554 S
C427   H458    1.064   .     S
C427   C1179   1.393   .     S
C428   C429    1.544   .     S
C428   H450    1.110   .     S
C428   H451    1.097   .     S
C428   C446    1.524   .     S
C429   C430    1.525   .     S
C429   H448    1.111   .     S
C429   H449    1.111   .     S
C430   H480    1.109   .     S
C430   H478    1.104   .     S
C430   H479    1.108   .     S
C431   H459    1.097   .     S
C431   C432    1.531   .     S
C431   H457    1.107   .     S
C432   H456    1.107   .     S
C432   H455    1.112   .     S
C432   C433    1.529   .     S
C433   H452    1.106   .     S
C433   H454    1.107   .     S
C433   H699    1.111   .     S
C434   H465    1.102   .     S
C434   C436    1.544   .     S
C434   H466    1.108   .     S
C435   C1164   1.388   .     S
C436   C437    1.530   .     S
C436   H464    1.104   .     S
C436   H463    1.111   .     S
C437   H461    1.110   .     S
C437   H460    1.111   .     S
C437   H298    1.111   1_655 S
C438   C439    1.535   .     S
C438   H474    1.099   .     S
C438   H473    1.109   .     S
C439   H471    1.110   .     S
C439   C440    1.526   .     S
C439   H472    1.112   .     S
C440   H470    1.108   .     S
C441   C1165   1.393   1_554 S
C442   C689    1.346   .     S
C442   H715    1.087   .     S
C444   O487    1.282   .     A
C444   O489    1.291   .     A
C445   O490    1.287   .     A
C445   O488    1.282   .     A
H467   C686    1.103   .     S
H468   C686    1.109   .     S
H475   C689    1.086   .     S
H477   N318    1.029   1_655 S
N481   Zn492   2.014   .     S
N481   H312    1.029   1_655 S
N481   N318    1.297   1_655 S
N482   Zn491   2.014   .     S
O483   Zn491   2.009   .     S
O484   Zn492   2.009   .     S
O485   Zn492   2.036   .     S
O486   Zn491   2.036   .     S
O487   Zn491   1.994   .     S
O488   Zn492   1.994   .     S
O489   Zn492   2.013   .     S
O490   Zn491   2.013   .     S
Br493  C517    1.918   .     S
Br494  C523    1.923   .     S
C495   O567    1.298   .     A
C495   C524    1.438   .     S
C495   O565    1.280   .     A
C496   C498    1.403   .     A
C496   C507    1.396   .     A
C496   C513    1.518   .     S
C497   C528    1.406   .     A
C497   C499    1.403   .     A
C497   C527    1.429   .     S
C498   C500    1.412   .     A
C498   C526    1.439   .     S
C499   C516    1.522   .     S
C499   C501    1.394   .     A
C500   C520    1.512   .     S
C500   C502    1.411   .     A
C501   C508    1.402   .     A
C501   C503    1.405   .     A
C502   C509    1.405   .     A
C502   C504    1.401   .     A
C503   C505    1.403   .     A
C503   C1242   1.398   1_554 S
C504   C507    1.398   .     A
C504   C1241   1.398   .     S
C505   C528    1.402   .     A
C505   C523    1.401   .     A
C506   C525    1.439   .     S
C506   O566    1.279   .     A
C506   O568    1.299   .     A
C507   C517    1.393   .     A
C508   H529    1.074   .     S
C508   C1255   1.388   1_554 S
C509   H540    1.064   .     S
C509   C1261   1.393   .     S
C510   C511    1.544   .     S
C510   H532    1.110   .     S
C510   H533    1.097   .     S
C510   C528    1.524   .     S
C511   C512    1.525   .     S
C511   H530    1.111   .     S
C511   H531    1.111   .     S
C512   H562    1.109   .     S
C512   H560    1.104   .     S
C512   H561    1.108   .     S
C513   H541    1.097   .     S
C513   C514    1.531   .     S
C513   H539    1.107   .     S
C514   H538    1.107   .     S
C514   H537    1.112   .     S
C514   C515    1.529   .     S
C515   H534    1.106   .     S
C515   H536    1.107   .     S
C515   H43     1.111   1_565 S
C516   H547    1.102   .     S
C516   C518    1.544   .     S
C516   H548    1.108   .     S
C517   C1246   1.388   .     S
C518   C519    1.530   .     S
C518   H546    1.104   .     S
C518   H545    1.111   .     S
C519   H543    1.110   .     S
C519   H542    1.111   .     S
C519   H626    1.111   .     S
C520   C521    1.535   .     S
C520   H556    1.099   .     S
C520   H555    1.109   .     S
C521   H553    1.110   .     S
C521   C522    1.526   .     S
C521   H554    1.112   .     S
C522   H552    1.108   .     S
C523   C1247   1.393   1_554 S
C524   C33     1.346   1_565 S
C524   H59     1.087   1_565 S
C526   O569    1.282   .     A
C526   O571    1.291   .     A
C527   O572    1.287   .     A
C527   O570    1.282   .     A
H544   C683    1.111   1_455 S
H549   C30     1.103   1_565 S
H550   C30     1.109   1_565 S
H557   C33     1.086   1_565 S
H558   N727    1.029   1_455 S
H559   N646    1.029   .     S
N563   Zn574   2.014   .     S
N563   H640    1.029   .     S
N563   N646    1.297   .     S
N564   Zn573   2.014   .     S
N564   N727    1.297   1_455 S
N564   H723    1.029   1_455 S
O565   Zn573   2.009   .     S
O566   Zn574   2.009   .     S
O567   Zn574   2.036   .     S
O568   Zn573   2.036   .     S
O569   Zn573   1.994   .     S
O570   Zn574   1.994   .     S
O571   Zn574   2.013   .     S
O572   Zn573   2.013   .     S
Br575  C599    1.918   .     S
Br576  C605    1.923   .     S
C577   O649    1.298   .     A
C577   C606    1.438   .     S
C577   O647    1.280   .     A
C578   C580    1.403   .     A
C578   C589    1.396   .     A
C578   C595    1.518   .     S
C579   C610    1.406   .     A
C579   C581    1.403   .     A
C579   C609    1.429   .     S
C580   C582    1.412   .     A
C580   C608    1.439   .     S
C581   C598    1.522   .     S
C581   C583    1.394   .     A
C582   C602    1.512   .     S
C582   C584    1.411   .     A
C583   C590    1.402   .     A
C583   C585    1.405   .     A
C584   C591    1.405   .     A
C584   C586    1.401   .     A
C585   C587    1.403   .     A
C585   C1324   1.398   1_554 S
C586   C589    1.398   .     A
C586   C1323   1.398   .     S
C587   C610    1.402   .     A
C587   C605    1.401   .     A
C588   C607    1.439   .     S
C588   O648    1.279   .     A
C588   O650    1.299   .     A
C589   C599    1.393   .     A
C590   H611    1.074   .     S
C590   C1337   1.388   1_554 S
C591   H622    1.064   .     S
C591   C1343   1.393   .     S
C592   C593    1.544   .     S
C592   H614    1.110   .     S
C592   H615    1.097   .     S
C592   C610    1.524   .     S
C593   C594    1.525   .     S
C593   H612    1.111   .     S
C593   H613    1.111   .     S
C594   H644    1.109   .     S
C594   H642    1.104   .     S
C594   H643    1.108   .     S
C595   H623    1.097   .     S
C595   C596    1.531   .     S
C595   H621    1.107   .     S
C596   H620    1.107   .     S
C596   H619    1.112   .     S
C596   C597    1.529   .     S
C597   H616    1.106   .     S
C597   H618    1.107   .     S
C597   H125    1.111   1_565 S
C598   H629    1.102   .     S
C598   C600    1.544   .     S
C598   H630    1.108   .     S
C599   C1328   1.388   .     S
C600   C601    1.530   .     S
C600   H628    1.104   .     S
C600   H627    1.111   .     S
C601   H625    1.110   .     S
C601   H624    1.111   .     S
C601   H708    1.111   .     S
C602   C603    1.535   .     S
C602   H638    1.099   .     S
C602   H637    1.109   .     S
C603   H635    1.110   .     S
C603   C604    1.526   .     S
C603   H636    1.112   .     S
C604   H634    1.108   .     S
C605   C1329   1.393   1_554 S
C606   C115    1.346   1_565 S
C606   H141    1.087   1_565 S
C608   O651    1.282   .     A
C608   O653    1.291   .     A
C609   O654    1.287   .     A
C609   O652    1.282   .     A
H631   C112    1.103   1_565 S
H632   C112    1.109   1_565 S
H639   C115    1.086   1_565 S
H641   N728    1.029   .     S
N645   Zn656   2.014   .     S
N645   H722    1.029   .     S
N645   N728    1.297   .     S
N646   Zn655   2.014   .     S
O647   Zn655   2.009   .     S
O648   Zn656   2.009   .     S
O649   Zn656   2.036   .     S
O650   Zn655   2.036   .     S
O651   Zn655   1.994   .     S
O652   Zn656   1.994   .     S
O653   Zn656   2.013   .     S
O654   Zn655   2.013   .     S
Br657  C681    1.918   .     S
Br658  C687    1.923   .     S
C659   O731    1.298   .     A
C659   C688    1.438   .     S
C659   O729    1.280   .     A
C660   C662    1.403   .     A
C660   C671    1.396   .     A
C660   C677    1.518   .     S
C661   C692    1.406   .     A
C661   C663    1.403   .     A
C661   C691    1.429   .     S
C662   C664    1.412   .     A
C662   C690    1.439   .     S
C663   C680    1.522   .     S
C663   C665    1.394   .     A
C664   C684    1.512   .     S
C664   C666    1.411   .     A
C665   C672    1.402   .     A
C665   C667    1.405   .     A
C666   C673    1.405   .     A
C666   C668    1.401   .     A
C667   C669    1.403   .     A
C667   C1406   1.398   1_554 S
C668   C671    1.398   .     A
C668   C1405   1.398   .     S
C669   C692    1.402   .     A
C669   C687    1.401   .     A
C670   C689    1.439   .     S
C670   O730    1.279   .     A
C670   O732    1.299   .     A
C671   C681    1.393   .     A
C672   H693    1.074   .     S
C672   C1419   1.388   1_554 S
C673   H704    1.064   .     S
C673   C1425   1.393   .     S
C674   C675    1.544   .     S
C674   H696    1.110   .     S
C674   H697    1.097   .     S
C674   C692    1.524   .     S
C675   C676    1.525   .     S
C675   H694    1.111   .     S
C675   H695    1.111   .     S
C676   H726    1.109   .     S
C676   H724    1.104   .     S
C676   H725    1.108   .     S
C677   H705    1.097   .     S
C677   C678    1.531   .     S
C677   H703    1.107   .     S
C678   H702    1.107   .     S
C678   H701    1.112   .     S
C678   C679    1.529   .     S
C679   H698    1.106   .     S
C679   H700    1.107   .     S
C679   H207    1.111   1_565 S
C680   H711    1.102   .     S
C680   C682    1.544   .     S
C680   H712    1.108   .     S
C681   C1410   1.388   .     S
C682   C683    1.530   .     S
C682   H710    1.104   .     S
C682   H709    1.111   .     S
C683   H707    1.110   .     S
C683   H706    1.111   .     S
C683   H544    1.111   1_655 S
C684   C685    1.535   .     S
C684   H720    1.099   .     S
C684   H719    1.109   .     S
C685   H717    1.110   .     S
C685   C686    1.526   .     S
C685   H718    1.112   .     S
C686   H716    1.108   .     S
C687   C1411   1.393   1_554 S
C688   C197    1.346   1_565 S
C688   H223    1.087   1_565 S
C690   O733    1.282   .     A
C690   O735    1.291   .     A
C691   O736    1.287   .     A
C691   O734    1.282   .     A
H713   C194    1.103   1_565 S
H714   C194    1.109   1_565 S
H721   C197    1.086   1_565 S
H723   N564    1.029   1_655 S
N727   Zn738   2.014   .     S
N727   H558    1.029   1_655 S
N727   N564    1.297   1_655 S
N728   Zn737   2.014   .     S
O729   Zn737   2.009   .     S
O730   Zn738   2.009   .     S
O731   Zn738   2.036   .     S
O732   Zn737   2.036   .     S
O733   Zn737   1.994   .     S
O734   Zn738   1.994   .     S
O735   Zn738   2.013   .     S
O736   Zn737   2.013   .     S
Br739  C763    1.918   .     S
Br740  C769    1.923   .     S
C741   O813    1.298   .     A
C741   C770    1.438   .     S
C741   O811    1.280   .     A
C742   C744    1.403   .     A
C742   C753    1.396   .     A
C742   C759    1.518   .     S
C743   C774    1.406   .     A
C743   C745    1.403   .     A
C743   C773    1.429   .     S
C744   C746    1.412   .     A
C744   C772    1.439   .     S
C745   C762    1.522   .     S
C745   C747    1.394   .     A
C746   C766    1.512   .     S
C746   C748    1.411   .     A
C747   C754    1.402   .     A
C747   C749    1.405   .     A
C748   C755    1.405   .     A
C748   C750    1.401   .     A
C749   C751    1.403   .     A
C750   C753    1.398   .     A
C750   C11     1.398   1_556 S
C751   C774    1.402   .     A
C751   C769    1.401   .     A
C752   C771    1.439   .     S
C752   O812    1.279   .     A
C752   O814    1.299   .     A
C753   C763    1.393   .     A
C754   H775    1.074   .     S
C755   H786    1.064   .     S
C755   C31     1.393   1_556 S
C756   C757    1.544   .     S
C756   H778    1.110   .     S
C756   H779    1.097   .     S
C756   C774    1.524   .     S
C757   C758    1.525   .     S
C757   H776    1.111   .     S
C757   H777    1.111   .     S
C758   H808    1.109   .     S
C758   H806    1.104   .     S
C758   H807    1.108   .     S
C759   H787    1.097   .     S
C759   C760    1.531   .     S
C759   H785    1.107   .     S
C760   H784    1.107   .     S
C760   H783    1.112   .     S
C760   C761    1.529   .     S
C761   H780    1.106   .     S
C761   H782    1.107   .     S
C761   H1027   1.111   .     S
C762   H793    1.102   .     S
C762   C764    1.544   .     S
C762   H794    1.108   .     S
C763   C16     1.388   1_556 S
C764   C765    1.530   .     S
C764   H792    1.104   .     S
C764   H791    1.111   .     S
C765   H789    1.110   .     S
C765   H788    1.111   .     S
C765   H872    1.111   .     S
C766   C767    1.535   .     S
C766   H802    1.099   .     S
C766   H801    1.109   .     S
C767   H799    1.110   .     S
C767   C768    1.526   .     S
C767   H800    1.112   .     S
C768   H798    1.108   .     S
C768   H1287   1.103   1_545 S
C768   H1288   1.109   1_545 S
C770   C1017   1.346   .     S
C770   H1043   1.087   .     S
C771   C1262   1.346   1_545 S
C771   H1295   1.086   1_545 S
C772   O815    1.282   .     A
C772   O817    1.291   .     A
C773   O818    1.287   .     A
C773   O816    1.282   .     A
H781   C1253   1.111   1_545 S
H790   C929    1.111   1_455 S
H795   C1014   1.103   .     S
H796   C1014   1.109   .     S
H797   C1262   1.087   1_545 S
H803   C1017   1.086   .     S
H804   N973    1.029   1_455 S
H805   N892    1.029   .     S
N809   Zn820   2.014   .     S
N809   H886    1.029   .     S
N809   N892    1.297   .     S
N810   Zn819   2.014   .     S
N810   N973    1.297   1_455 S
N810   H969    1.029   1_455 S
O811   Zn819   2.009   .     S
O812   Zn820   2.009   .     S
O813   Zn820   2.036   .     S
O814   Zn819   2.036   .     S
O815   Zn819   1.994   .     S
O816   Zn820   1.994   .     S
O817   Zn820   2.013   .     S
O818   Zn819   2.013   .     S
Br821  C845    1.918   .     S
Br822  C851    1.923   .     S
C823   O895    1.298   .     A
C823   C852    1.438   .     S
C823   O893    1.280   .     A
C824   C826    1.403   .     A
C824   C835    1.396   .     A
C824   C841    1.518   .     S
C825   C856    1.406   .     A
C825   C827    1.403   .     A
C825   C855    1.429   .     S
C826   C828    1.412   .     A
C826   C854    1.439   .     S
C827   C844    1.522   .     S
C827   C829    1.394   .     A
C828   C848    1.512   .     S
C828   C830    1.411   .     A
C829   C836    1.402   .     A
C829   C831    1.405   .     A
C830   C837    1.405   .     A
C830   C832    1.401   .     A
C831   C833    1.403   .     A
C832   C835    1.398   .     A
C832   C93     1.398   1_556 S
C833   C856    1.402   .     A
C833   C851    1.401   .     A
C834   C853    1.439   .     S
C834   O894    1.279   .     A
C834   O896    1.299   .     A
C835   C845    1.393   .     A
C836   H857    1.074   .     S
C837   H868    1.064   .     S
C837   C113    1.393   1_556 S
C838   C839    1.544   .     S
C838   H860    1.110   .     S
C838   H861    1.097   .     S
C838   C856    1.524   .     S
C839   C840    1.525   .     S
C839   H858    1.111   .     S
C839   H859    1.111   .     S
C840   H890    1.109   .     S
C840   H888    1.104   .     S
C840   H889    1.108   .     S
C841   H869    1.097   .     S
C841   C842    1.531   .     S
C841   H867    1.107   .     S
C842   H866    1.107   .     S
C842   H865    1.112   .     S
C842   C843    1.529   .     S
C843   H862    1.106   .     S
C843   H864    1.107   .     S
C843   H1109   1.111   .     S
C844   H875    1.102   .     S
C844   C846    1.544   .     S
C844   H876    1.108   .     S
C845   C98     1.388   1_556 S
C846   C847    1.530   .     S
C846   H874    1.104   .     S
C846   H873    1.111   .     S
C847   H871    1.110   .     S
C847   H870    1.111   .     S
C847   H954    1.111   .     S
C848   C849    1.535   .     S
C848   H884    1.099   .     S
C848   H883    1.109   .     S
C849   H881    1.110   .     S
C849   C850    1.526   .     S
C849   H882    1.112   .     S
C850   H880    1.108   .     S
C850   H1369   1.103   1_545 S
C850   H1370   1.109   1_545 S
C852   C1099   1.346   .     S
C852   H1125   1.087   .     S
C853   C1344   1.346   1_545 S
C853   H1377   1.086   1_545 S
C854   O897    1.282   .     A
C854   O899    1.291   .     A
C855   O900    1.287   .     A
C855   O898    1.282   .     A
H863   C1335   1.111   1_545 S
H877   C1096   1.103   .     S
H878   C1096   1.109   .     S
H879   C1344   1.087   1_545 S
H885   C1099   1.086   .     S
H887   N974    1.029   .     S
N891   Zn902   2.014   .     S
N891   H968    1.029   .     S
N891   N974    1.297   .     S
N892   Zn901   2.014   .     S
O893   Zn901   2.009   .     S
O894   Zn902   2.009   .     S
O895   Zn902   2.036   .     S
O896   Zn901   2.036   .     S
O897   Zn901   1.994   .     S
O898   Zn902   1.994   .     S
O899   Zn902   2.013   .     S
O900   Zn901   2.013   .     S
Br903  C927    1.918   .     S
Br904  C933    1.923   .     S
C905   O977    1.298   .     A
C905   C934    1.438   .     S
C905   O975    1.280   .     A
C906   C908    1.403   .     A
C906   C917    1.396   .     A
C906   C923    1.518   .     S
C907   C938    1.406   .     A
C907   C909    1.403   .     A
C907   C937    1.429   .     S
C908   C910    1.412   .     A
C908   C936    1.439   .     S
C909   C926    1.522   .     S
C909   C911    1.394   .     A
C910   C930    1.512   .     S
C910   C912    1.411   .     A
C911   C918    1.402   .     A
C911   C913    1.405   .     A
C912   C919    1.405   .     A
C912   C914    1.401   .     A
C913   C915    1.403   .     A
C914   C917    1.398   .     A
C914   C175    1.398   1_556 S
C915   C938    1.402   .     A
C915   C933    1.401   .     A
C916   C935    1.439   .     S
C916   O976    1.279   .     A
C916   O978    1.299   .     A
C917   C927    1.393   .     A
C918   H939    1.074   .     S
C919   H950    1.064   .     S
C919   C195    1.393   1_556 S
C920   C921    1.544   .     S
C920   H942    1.110   .     S
C920   H943    1.097   .     S
C920   C938    1.524   .     S
C921   C922    1.525   .     S
C921   H940    1.111   .     S
C921   H941    1.111   .     S
C922   H972    1.109   .     S
C922   H970    1.104   .     S
C922   H971    1.108   .     S
C923   H951    1.097   .     S
C923   C924    1.531   .     S
C923   H949    1.107   .     S
C924   H948    1.107   .     S
C924   H947    1.112   .     S
C924   C925    1.529   .     S
C925   H944    1.106   .     S
C925   H946    1.107   .     S
C925   H1191   1.111   .     S
C926   H957    1.102   .     S
C926   C928    1.544   .     S
C926   H958    1.108   .     S
C927   C180    1.388   1_556 S
C928   C929    1.530   .     S
C928   H956    1.104   .     S
C928   H955    1.111   .     S
C929   H953    1.110   .     S
C929   H952    1.111   .     S
C929   H790    1.111   1_655 S
C930   C931    1.535   .     S
C930   H966    1.099   .     S
C930   H965    1.109   .     S
C931   H963    1.110   .     S
C931   C932    1.526   .     S
C931   H964    1.112   .     S
C932   H962    1.108   .     S
C932   H1451   1.103   1_545 S
C932   H1452   1.109   1_545 S
C934   C1181   1.346   .     S
C934   H1207   1.087   .     S
C935   C1426   1.346   1_545 S
C935   H1459   1.086   1_545 S
C936   O979    1.282   .     A
C936   O981    1.291   .     A
C937   O982    1.287   .     A
C937   O980    1.282   .     A
H945   C1417   1.111   1_545 S
H959   C1178   1.103   .     S
H960   C1178   1.109   .     S
H961   C1426   1.087   1_545 S
H967   C1181   1.086   .     S
H969   N810    1.029   1_655 S
N973   Zn984   2.014   .     S
N973   H804    1.029   1_655 S
N973   N810    1.297   1_655 S
N974   Zn983   2.014   .     S
O975   Zn983   2.009   .     S
O976   Zn984   2.009   .     S
O977   Zn984   2.036   .     S
O978   Zn983   2.036   .     S
O979   Zn983   1.994   .     S
O980   Zn984   1.994   .     S
O981   Zn984   2.013   .     S
O982   Zn983   2.013   .     S
Br985  C1009   1.918   .     S
Br986  C1015   1.923   .     S
C987   O1059   1.298   .     A
C987   C1016   1.438   .     S
C987   O1057   1.280   .     A
C988   C990    1.403   .     A
C988   C999    1.396   .     A
C988   C1005   1.518   .     S
C989   C1020   1.406   .     A
C989   C991    1.403   .     A
C989   C1019   1.429   .     S
C990   C992    1.412   .     A
C990   C1018   1.439   .     S
C991   C1008   1.522   .     S
C991   C993    1.394   .     A
C992   C1012   1.512   .     S
C992   C994    1.411   .     A
C993   C1000   1.402   .     A
C993   C995    1.405   .     A
C994   C1001   1.405   .     A
C994   C996    1.401   .     A
C995   C997    1.403   .     A
C996   C999    1.398   .     A
C996   C257    1.398   1_556 S
C997   C1020   1.402   .     A
C997   C1015   1.401   .     A
C998   C1017   1.439   .     S
C998   O1058   1.279   .     A
C998   O1060   1.299   .     A
C999   C1009   1.393   .     A
C1000  H1021   1.074   .     S
C1001  H1032   1.064   .     S
C1001  C277    1.393   1_556 S
C1002  C1003   1.544   .     S
C1002  H1024   1.110   .     S
C1002  H1025   1.097   .     S
C1002  C1020   1.524   .     S
C1003  C1004   1.525   .     S
C1003  H1022   1.111   .     S
C1003  H1023   1.111   .     S
C1004  H1054   1.109   .     S
C1004  H1052   1.104   .     S
C1004  H1053   1.108   .     S
C1005  H1033   1.097   .     S
C1005  C1006   1.531   .     S
C1005  H1031   1.107   .     S
C1006  H1030   1.107   .     S
C1006  H1029   1.112   .     S
C1006  C1007   1.529   .     S
C1007  H1026   1.106   .     S
C1007  H1028   1.107   .     S
C1007  H1273   1.111   .     S
C1008  H1039   1.102   .     S
C1008  C1010   1.544   .     S
C1008  H1040   1.108   .     S
C1009  C262    1.388   1_556 S
C1010  C1011   1.530   .     S
C1010  H1038   1.104   .     S
C1010  H1037   1.111   .     S
C1011  H1035   1.110   .     S
C1011  H1034   1.111   .     S
C1011  H1118   1.111   .     S
C1012  C1013   1.535   .     S
C1012  H1048   1.099   .     S
C1012  H1047   1.109   .     S
C1013  H1045   1.110   .     S
C1013  C1014   1.526   .     S
C1013  H1046   1.112   .     S
C1014  H1044   1.108   .     S
C1016  C1263   1.346   .     S
C1016  H1289   1.087   .     S
C1018  O1061   1.282   .     A
C1018  O1063   1.291   .     A
C1019  O1064   1.287   .     A
C1019  O1062   1.282   .     A
H1036  C1175   1.111   1_455 S
H1041  C1260   1.103   .     S
H1042  C1260   1.109   .     S
H1049  C1263   1.086   .     S
H1050  N1219   1.029   1_455 S
H1051  N1138   1.029   .     S
N1055  Zn1066  2.014   .     S
N1055  H1132   1.029   .     S
N1055  N1138   1.297   .     S
N1056  Zn1065  2.014   .     S
N1056  N1219   1.297   1_455 S
N1056  H1215   1.029   1_455 S
O1057  Zn1065  2.009   .     S
O1058  Zn1066  2.009   .     S
O1059  Zn1066  2.036   .     S
O1060  Zn1065  2.036   .     S
O1061  Zn1065  1.994   .     S
O1062  Zn1066  1.994   .     S
O1063  Zn1066  2.013   .     S
O1064  Zn1065  2.013   .     S
Br1067 C1091   1.918   .     S
Br1068 C1097   1.923   .     S
C1069  O1141   1.298   .     A
C1069  C1098   1.438   .     S
C1069  O1139   1.280   .     A
C1070  C1072   1.403   .     A
C1070  C1081   1.396   .     A
C1070  C1087   1.518   .     S
C1071  C1102   1.406   .     A
C1071  C1073   1.403   .     A
C1071  C1101   1.429   .     S
C1072  C1074   1.412   .     A
C1072  C1100   1.439   .     S
C1073  C1090   1.522   .     S
C1073  C1075   1.394   .     A
C1074  C1094   1.512   .     S
C1074  C1076   1.411   .     A
C1075  C1082   1.402   .     A
C1075  C1077   1.405   .     A
C1076  C1083   1.405   .     A
C1076  C1078   1.401   .     A
C1077  C1079   1.403   .     A
C1078  C1081   1.398   .     A
C1078  C339    1.398   1_556 S
C1079  C1102   1.402   .     A
C1079  C1097   1.401   .     A
C1080  C1099   1.439   .     S
C1080  O1140   1.279   .     A
C1080  O1142   1.299   .     A
C1081  C1091   1.393   .     A
C1082  H1103   1.074   .     S
C1083  H1114   1.064   .     S
C1083  C359    1.393   1_556 S
C1084  C1085   1.544   .     S
C1084  H1106   1.110   .     S
C1084  H1107   1.097   .     S
C1084  C1102   1.524   .     S
C1085  C1086   1.525   .     S
C1085  H1104   1.111   .     S
C1085  H1105   1.111   .     S
C1086  H1136   1.109   .     S
C1086  H1134   1.104   .     S
C1086  H1135   1.108   .     S
C1087  H1115   1.097   .     S
C1087  C1088   1.531   .     S
C1087  H1113   1.107   .     S
C1088  H1112   1.107   .     S
C1088  H1111   1.112   .     S
C1088  C1089   1.529   .     S
C1089  H1108   1.106   .     S
C1089  H1110   1.107   .     S
C1089  H1355   1.111   .     S
C1090  H1121   1.102   .     S
C1090  C1092   1.544   .     S
C1090  H1122   1.108   .     S
C1091  C344    1.388   1_556 S
C1092  C1093   1.530   .     S
C1092  H1120   1.104   .     S
C1092  H1119   1.111   .     S
C1093  H1117   1.110   .     S
C1093  H1116   1.111   .     S
C1093  H1200   1.111   .     S
C1094  C1095   1.535   .     S
C1094  H1130   1.099   .     S
C1094  H1129   1.109   .     S
C1095  H1127   1.110   .     S
C1095  C1096   1.526   .     S
C1095  H1128   1.112   .     S
C1096  H1126   1.108   .     S
C1098  C1345   1.346   .     S
C1098  H1371   1.087   .     S
C1100  O1143   1.282   .     A
C1100  O1145   1.291   .     A
C1101  O1146   1.287   .     A
C1101  O1144   1.282   .     A
H1123  C1342   1.103   .     S
H1124  C1342   1.109   .     S
H1131  C1345   1.086   .     S
H1133  N1220   1.029   .     S
N1137  Zn1148  2.014   .     S
N1137  H1214   1.029   .     S
N1137  N1220   1.297   .     S
N1138  Zn1147  2.014   .     S
O1139  Zn1147  2.009   .     S
O1140  Zn1148  2.009   .     S
O1141  Zn1148  2.036   .     S
O1142  Zn1147  2.036   .     S
O1143  Zn1147  1.994   .     S
O1144  Zn1148  1.994   .     S
O1145  Zn1148  2.013   .     S
O1146  Zn1147  2.013   .     S
Br1149 C1173   1.918   .     S
Br1150 C1179   1.923   .     S
C1151  O1223   1.298   .     A
C1151  C1180   1.438   .     S
C1151  O1221   1.280   .     A
C1152  C1154   1.403   .     A
C1152  C1163   1.396   .     A
C1152  C1169   1.518   .     S
C1153  C1184   1.406   .     A
C1153  C1155   1.403   .     A
C1153  C1183   1.429   .     S
C1154  C1156   1.412   .     A
C1154  C1182   1.439   .     S
C1155  C1172   1.522   .     S
C1155  C1157   1.394   .     A
C1156  C1176   1.512   .     S
C1156  C1158   1.411   .     A
C1157  C1164   1.402   .     A
C1157  C1159   1.405   .     A
C1158  C1165   1.405   .     A
C1158  C1160   1.401   .     A
C1159  C1161   1.403   .     A
C1160  C1163   1.398   .     A
C1160  C421    1.398   1_556 S
C1161  C1184   1.402   .     A
C1161  C1179   1.401   .     A
C1162  C1181   1.439   .     S
C1162  O1222   1.279   .     A
C1162  O1224   1.299   .     A
C1163  C1173   1.393   .     A
C1164  H1185   1.074   .     S
C1165  H1196   1.064   .     S
C1165  C441    1.393   1_556 S
C1166  C1167   1.544   .     S
C1166  H1188   1.110   .     S
C1166  H1189   1.097   .     S
C1166  C1184   1.524   .     S
C1167  C1168   1.525   .     S
C1167  H1186   1.111   .     S
C1167  H1187   1.111   .     S
C1168  H1218   1.109   .     S
C1168  H1216   1.104   .     S
C1168  H1217   1.108   .     S
C1169  H1197   1.097   .     S
C1169  C1170   1.531   .     S
C1169  H1195   1.107   .     S
C1170  H1194   1.107   .     S
C1170  H1193   1.112   .     S
C1170  C1171   1.529   .     S
C1171  H1190   1.106   .     S
C1171  H1192   1.107   .     S
C1171  H1437   1.111   .     S
C1172  H1203   1.102   .     S
C1172  C1174   1.544   .     S
C1172  H1204   1.108   .     S
C1173  C426    1.388   1_556 S
C1174  C1175   1.530   .     S
C1174  H1202   1.104   .     S
C1174  H1201   1.111   .     S
C1175  H1199   1.110   .     S
C1175  H1198   1.111   .     S
C1175  H1036   1.111   1_655 S
C1176  C1177   1.535   .     S
C1176  H1212   1.099   .     S
C1176  H1211   1.109   .     S
C1177  H1209   1.110   .     S
C1177  C1178   1.526   .     S
C1177  H1210   1.112   .     S
C1178  H1208   1.108   .     S
C1180  C1427   1.346   .     S
C1180  H1453   1.087   .     S
C1182  O1225   1.282   .     A
C1182  O1227   1.291   .     A
C1183  O1228   1.287   .     A
C1183  O1226   1.282   .     A
H1205  C1424   1.103   .     S
H1206  C1424   1.109   .     S
H1213  C1427   1.086   .     S
H1215  N1056   1.029   1_655 S
N1219  Zn1230  2.014   .     S
N1219  H1050   1.029   1_655 S
N1219  N1056   1.297   1_655 S
N1220  Zn1229  2.014   .     S
O1221  Zn1229  2.009   .     S
O1222  Zn1230  2.009   .     S
O1223  Zn1230  2.036   .     S
O1224  Zn1229  2.036   .     S
O1225  Zn1229  1.994   .     S
O1226  Zn1230  1.994   .     S
O1227  Zn1230  2.013   .     S
O1228  Zn1229  2.013   .     S
Br1231 C1255   1.918   .     S
Br1232 C1261   1.923   .     S
C1233  O1305   1.298   .     A
C1233  C1262   1.438   .     S
C1233  O1303   1.280   .     A
C1234  C1236   1.403   .     A
C1234  C1245   1.396   .     A
C1234  C1251   1.518   .     S
C1235  C1266   1.406   .     A
C1235  C1237   1.403   .     A
C1235  C1265   1.429   .     S
C1236  C1238   1.412   .     A
C1236  C1264   1.439   .     S
C1237  C1254   1.522   .     S
C1237  C1239   1.394   .     A
C1238  C1258   1.512   .     S
C1238  C1240   1.411   .     A
C1239  C1246   1.402   .     A
C1239  C1241   1.405   .     A
C1240  C1247   1.405   .     A
C1240  C1242   1.401   .     A
C1241  C1243   1.403   .     A
C1242  C1245   1.398   .     A
C1242  C503    1.398   1_556 S
C1243  C1266   1.402   .     A
C1243  C1261   1.401   .     A
C1244  C1263   1.439   .     S
C1244  O1304   1.279   .     A
C1244  O1306   1.299   .     A
C1245  C1255   1.393   .     A
C1246  H1267   1.074   .     S
C1247  H1278   1.064   .     S
C1247  C523    1.393   1_556 S
C1248  C1249   1.544   .     S
C1248  H1270   1.110   .     S
C1248  H1271   1.097   .     S
C1248  C1266   1.524   .     S
C1249  C1250   1.525   .     S
C1249  H1268   1.111   .     S
C1249  H1269   1.111   .     S
C1250  H1300   1.109   .     S
C1250  H1298   1.104   .     S
C1250  H1299   1.108   .     S
C1251  H1279   1.097   .     S
C1251  C1252   1.531   .     S
C1251  H1277   1.107   .     S
C1252  H1276   1.107   .     S
C1252  H1275   1.112   .     S
C1252  C1253   1.529   .     S
C1253  H1272   1.106   .     S
C1253  H1274   1.107   .     S
C1253  H781    1.111   1_565 S
C1254  H1285   1.102   .     S
C1254  C1256   1.544   .     S
C1254  H1286   1.108   .     S
C1255  C508    1.388   1_556 S
C1256  C1257   1.530   .     S
C1256  H1284   1.104   .     S
C1256  H1283   1.111   .     S
C1257  H1281   1.110   .     S
C1257  H1280   1.111   .     S
C1257  H1364   1.111   .     S
C1258  C1259   1.535   .     S
C1258  H1294   1.099   .     S
C1258  H1293   1.109   .     S
C1259  H1291   1.110   .     S
C1259  C1260   1.526   .     S
C1259  H1292   1.112   .     S
C1260  H1290   1.108   .     S
C1262  C771    1.346   1_565 S
C1262  H797    1.087   1_565 S
C1264  O1307   1.282   .     A
C1264  O1309   1.291   .     A
C1265  O1310   1.287   .     A
C1265  O1308   1.282   .     A
H1282  C1421   1.111   1_455 S
H1287  C768    1.103   1_565 S
H1288  C768    1.109   1_565 S
H1295  C771    1.086   1_565 S
H1296  N1465   1.029   1_455 S
H1297  N1384   1.029   .     S
N1301  Zn1312  2.014   .     S
N1301  H1378   1.029   .     S
N1301  N1384   1.297   .     S
N1302  Zn1311  2.014   .     S
N1302  N1465   1.297   1_455 S
N1302  H1461   1.029   1_455 S
O1303  Zn1311  2.009   .     S
O1304  Zn1312  2.009   .     S
O1305  Zn1312  2.036   .     S
O1306  Zn1311  2.036   .     S
O1307  Zn1311  1.994   .     S
O1308  Zn1312  1.994   .     S
O1309  Zn1312  2.013   .     S
O1310  Zn1311  2.013   .     S
Br1313 C1337   1.918   .     S
Br1314 C1343   1.923   .     S
C1315  O1387   1.298   .     A
C1315  C1344   1.438   .     S
C1315  O1385   1.280   .     A
C1316  C1318   1.403   .     A
C1316  C1327   1.396   .     A
C1316  C1333   1.518   .     S
C1317  C1348   1.406   .     A
C1317  C1319   1.403   .     A
C1317  C1347   1.429   .     S
C1318  C1320   1.412   .     A
C1318  C1346   1.439   .     S
C1319  C1336   1.522   .     S
C1319  C1321   1.394   .     A
C1320  C1340   1.512   .     S
C1320  C1322   1.411   .     A
C1321  C1328   1.402   .     A
C1321  C1323   1.405   .     A
C1322  C1329   1.405   .     A
C1322  C1324   1.401   .     A
C1323  C1325   1.403   .     A
C1324  C1327   1.398   .     A
C1324  C585    1.398   1_556 S
C1325  C1348   1.402   .     A
C1325  C1343   1.401   .     A
C1326  C1345   1.439   .     S
C1326  O1386   1.279   .     A
C1326  O1388   1.299   .     A
C1327  C1337   1.393   .     A
C1328  H1349   1.074   .     S
C1329  H1360   1.064   .     S
C1329  C605    1.393   1_556 S
C1330  C1331   1.544   .     S
C1330  H1352   1.110   .     S
C1330  H1353   1.097   .     S
C1330  C1348   1.524   .     S
C1331  C1332   1.525   .     S
C1331  H1350   1.111   .     S
C1331  H1351   1.111   .     S
C1332  H1382   1.109   .     S
C1332  H1380   1.104   .     S
C1332  H1381   1.108   .     S
C1333  H1361   1.097   .     S
C1333  C1334   1.531   .     S
C1333  H1359   1.107   .     S
C1334  H1358   1.107   .     S
C1334  H1357   1.112   .     S
C1334  C1335   1.529   .     S
C1335  H1354   1.106   .     S
C1335  H1356   1.107   .     S
C1335  H863    1.111   1_565 S
C1336  H1367   1.102   .     S
C1336  C1338   1.544   .     S
C1336  H1368   1.108   .     S
C1337  C590    1.388   1_556 S
C1338  C1339   1.530   .     S
C1338  H1366   1.104   .     S
C1338  H1365   1.111   .     S
C1339  H1363   1.110   .     S
C1339  H1362   1.111   .     S
C1339  H1446   1.111   .     S
C1340  C1341   1.535   .     S
C1340  H1376   1.099   .     S
C1340  H1375   1.109   .     S
C1341  H1373   1.110   .     S
C1341  C1342   1.526   .     S
C1341  H1374   1.112   .     S
C1342  H1372   1.108   .     S
C1344  C853    1.346   1_565 S
C1344  H879    1.087   1_565 S
C1346  O1389   1.282   .     A
C1346  O1391   1.291   .     A
C1347  O1392   1.287   .     A
C1347  O1390   1.282   .     A
H1369  C850    1.103   1_565 S
H1370  C850    1.109   1_565 S
H1377  C853    1.086   1_565 S
H1379  N1466   1.029   .     S
N1383  Zn1394  2.014   .     S
N1383  H1460   1.029   .     S
N1383  N1466   1.297   .     S
N1384  Zn1393  2.014   .     S
O1385  Zn1393  2.009   .     S
O1386  Zn1394  2.009   .     S
O1387  Zn1394  2.036   .     S
O1388  Zn1393  2.036   .     S
O1389  Zn1393  1.994   .     S
O1390  Zn1394  1.994   .     S
O1391  Zn1394  2.013   .     S
O1392  Zn1393  2.013   .     S
Br1395 C1419   1.918   .     S
Br1396 C1425   1.923   .     S
C1397  O1469   1.298   .     A
C1397  C1426   1.438   .     S
C1397  O1467   1.280   .     A
C1398  C1400   1.403   .     A
C1398  C1409   1.396   .     A
C1398  C1415   1.518   .     S
C1399  C1430   1.406   .     A
C1399  C1401   1.403   .     A
C1399  C1429   1.429   .     S
C1400  C1402   1.412   .     A
C1400  C1428   1.439   .     S
C1401  C1418   1.522   .     S
C1401  C1403   1.394   .     A
C1402  C1422   1.512   .     S
C1402  C1404   1.411   .     A
C1403  C1410   1.402   .     A
C1403  C1405   1.405   .     A
C1404  C1411   1.405   .     A
C1404  C1406   1.401   .     A
C1405  C1407   1.403   .     A
C1406  C1409   1.398   .     A
C1406  C667    1.398   1_556 S
C1407  C1430   1.402   .     A
C1407  C1425   1.401   .     A
C1408  C1427   1.439   .     S
C1408  O1468   1.279   .     A
C1408  O1470   1.299   .     A
C1409  C1419   1.393   .     A
C1410  H1431   1.074   .     S
C1411  H1442   1.064   .     S
C1411  C687    1.393   1_556 S
C1412  C1413   1.544   .     S
C1412  H1434   1.110   .     S
C1412  H1435   1.097   .     S
C1412  C1430   1.524   .     S
C1413  C1414   1.525   .     S
C1413  H1432   1.111   .     S
C1413  H1433   1.111   .     S
C1414  H1464   1.109   .     S
C1414  H1462   1.104   .     S
C1414  H1463   1.108   .     S
C1415  H1443   1.097   .     S
C1415  C1416   1.531   .     S
C1415  H1441   1.107   .     S
C1416  H1440   1.107   .     S
C1416  H1439   1.112   .     S
C1416  C1417   1.529   .     S
C1417  H1436   1.106   .     S
C1417  H1438   1.107   .     S
C1417  H945    1.111   1_565 S
C1418  H1449   1.102   .     S
C1418  C1420   1.544   .     S
C1418  H1450   1.108   .     S
C1419  C672    1.388   1_556 S
C1420  C1421   1.530   .     S
C1420  H1448   1.104   .     S
C1420  H1447   1.111   .     S
C1421  H1445   1.110   .     S
C1421  H1444   1.111   .     S
C1421  H1282   1.111   1_655 S
C1422  C1423   1.535   .     S
C1422  H1458   1.099   .     S
C1422  H1457   1.109   .     S
C1423  H1455   1.110   .     S
C1423  C1424   1.526   .     S
C1423  H1456   1.112   .     S
C1424  H1454   1.108   .     S
C1426  C935    1.346   1_565 S
C1426  H961    1.087   1_565 S
C1428  O1471   1.282   .     A
C1428  O1473   1.291   .     A
C1429  O1474   1.287   .     A
C1429  O1472   1.282   .     A
H1451  C932    1.103   1_565 S
H1452  C932    1.109   1_565 S
H1459  C935    1.086   1_565 S
H1461  N1302   1.029   1_655 S
N1465  Zn1476  2.014   .     S
N1465  H1296   1.029   1_655 S
N1465  N1302   1.297   1_655 S
N1466  Zn1475  2.014   .     S
O1467  Zn1475  2.009   .     S
O1468  Zn1476  2.009   .     S
O1469  Zn1476  2.036   .     S
O1470  Zn1475  2.036   .     S
O1471  Zn1475  1.994   .     S
O1472  Zn1476  1.994   .     S
O1473  Zn1476  2.013   .     S
O1474  Zn1475  2.013   .     S
