data_str_m3_o2_o10_pcu_sym.18
_audit_creation_date              2020-01-03
_audit_creation_method            'Materials Studio'
_symmetry_space_group_name_H-M    'P1'
_symmetry_Int_Tables_number       1
_symmetry_cell_setting            triclinic
loop_
_symmetry_equiv_pos_as_xyz
  x,y,z
_cell_length_a                    25.7553
_cell_length_b                    30.0020
_cell_length_c                    28.4694
_cell_angle_alpha                 90.5744
_cell_angle_beta                  99.0843
_cell_angle_gamma                 90.5070
loop_
_atom_site_label
_atom_site_type_symbol
_atom_site_fract_x
_atom_site_fract_y
_atom_site_fract_z
_atom_site_U_iso_or_equiv
_atom_site_adp_type
_atom_site_occupancy
Br1    Br    0.10380   0.16907   0.11954   0.00000  Uiso   1.00
Br2    Br    0.26574   0.29861   0.38595   0.00000  Uiso   1.00
Br3    Br    0.20365   0.34587   0.03255   0.00000  Uiso   1.00
Br4    Br    0.05138   0.22455   0.45690   0.00000  Uiso   1.00
C5     C     0.16665   0.16395   0.24982   0.00000  Uiso   1.00
C6     C     0.11877   0.23802   0.43940   0.00000  Uiso   1.00
C7     C     0.16307   0.25369   0.02618   0.00000  Uiso   1.00
C8     C     0.16240   0.25309   0.47284   0.00000  Uiso   1.00
C9     C     0.06701   0.24995   0.23747   0.00000  Uiso   1.00
C10    C     0.26632   0.25002   0.26252   0.00000  Uiso   1.00
C11    C     0.01186   0.24990   0.23081   0.00000  Uiso   1.00
C12    C     0.32147   0.25007   0.26919   0.00000  Uiso   1.00
C13    C     0.14861   0.04717   0.28630   0.00000  Uiso   1.00
C14    C     0.15074   0.45256   0.20806   0.00000  Uiso   1.00
C15    C     0.14802   0.09315   0.28613   0.00000  Uiso   1.00
C16    C     0.16674   0.33607   0.25019   0.00000  Uiso   1.00
C17    C     0.15020   0.40657   0.20807   0.00000  Uiso   1.00
C18    C     0.16693   0.11606   0.24963   0.00000  Uiso   1.00
C19    C     0.16711   0.38400   0.25043   0.00000  Uiso   1.00
C20    C     0.18664   0.09303   0.21340   0.00000  Uiso   1.00
C21    C     0.18486   0.40741   0.29274   0.00000  Uiso   1.00
C22    C     0.18775   0.04702   0.21387   0.00000  Uiso   1.00
C23    C     0.18592   0.45345   0.29260   0.00000  Uiso   1.00
C24    C     0.16861   0.02411   0.25026   0.00000  Uiso   1.00
C25    C     0.16869   0.47600   0.25028   0.00000  Uiso   1.00
C26    C     0.14433   0.21652   0.04799   0.00000  Uiso   1.00
C27    C     0.20734   0.26662   0.45460   0.00000  Uiso   1.00
C28    C     0.14364   0.21614   0.09712   0.00000  Uiso   1.00
C29    C     0.20786   0.26740   0.40545   0.00000  Uiso   1.00
C30    C     0.18632   0.28634   0.10628   0.00000  Uiso   1.00
C31    C     0.12272   0.23545   0.39049   0.00000  Uiso   1.00
C32    C     0.18356   0.28974   0.05647   0.00000  Uiso   1.00
H33    H     0.32428   0.24972   0.19448   0.00000  Uiso   1.00
H34    H     0.20046   0.47143   0.32529   0.00000  Uiso   1.00
H35    H     0.12887   0.18786   0.02674   0.00000  Uiso   1.00
H36    H     0.24201   0.27785   0.47847   0.00000  Uiso   1.00
H37    H     0.20248   0.31382   0.12898   0.00000  Uiso   1.00
H38    H     0.08946   0.22327   0.36558   0.00000  Uiso   1.00
H39    H     0.00903   0.25030   0.30552   0.00000  Uiso   1.00
H40    H     0.13294   0.02962   0.31414   0.00000  Uiso   1.00
H41    H     0.13657   0.46981   0.17535   0.00000  Uiso   1.00
H42    H     0.13226   0.11072   0.31410   0.00000  Uiso   1.00
H43    H     0.13602   0.38875   0.17519   0.00000  Uiso   1.00
H44    H     0.20185   0.11055   0.18529   0.00000  Uiso   1.00
H45    H     0.19853   0.39021   0.32559   0.00000  Uiso   1.00
H46    H     0.20384   0.02935   0.18616   0.00000  Uiso   1.00
N47    N     0.16667   0.24999   0.12624   0.00000  Uiso   1.00
N48    N     0.16667   0.25001   0.37377   0.00000  Uiso   1.00
O49    O     0.16667   0.18453   0.28974   0.00000  Uiso   1.00
O50    O     0.16666   0.31546   0.21026   0.00000  Uiso   1.00
O51    O     0.16667   0.18453   0.21026   0.00000  Uiso   1.00
O52    O     0.16666   0.31547   0.28974   0.00000  Uiso   1.00
O53    O     0.09058   0.25000   0.28045   0.00000  Uiso   1.00
O54    O     0.24275   0.25000   0.21956   0.00000  Uiso   1.00
O55    O     0.09058   0.25000   0.20097   0.00000  Uiso   1.00
O56    O     0.24275   0.25000   0.29904   0.00000  Uiso   1.00
Zn57   Zn    0.16667   0.25000   0.30307   0.00000  Uiso   1.00
Zn58   Zn    0.16667   0.24999   0.19693   0.00000  Uiso   1.00
Br59   Br    0.43714   0.16907   0.11954   0.00000  Uiso   1.00
Br60   Br    0.59907   0.29861   0.38595   0.00000  Uiso   1.00
Br61   Br    0.53698   0.34587   0.03255   0.00000  Uiso   1.00
Br62   Br    0.38471   0.22455   0.45690   0.00000  Uiso   1.00
C63    C     0.49998   0.16395   0.24982   0.00000  Uiso   1.00
C64    C     0.45210   0.23802   0.43940   0.00000  Uiso   1.00
C65    C     0.49640   0.25369   0.02618   0.00000  Uiso   1.00
C66    C     0.49573   0.25309   0.47284   0.00000  Uiso   1.00
C67    C     0.40034   0.24995   0.23747   0.00000  Uiso   1.00
C68    C     0.59966   0.25002   0.26252   0.00000  Uiso   1.00
C69    C     0.34519   0.24990   0.23081   0.00000  Uiso   1.00
C70    C     0.65480   0.25007   0.26919   0.00000  Uiso   1.00
C71    C     0.48194   0.04717   0.28630   0.00000  Uiso   1.00
C72    C     0.48407   0.45256   0.20806   0.00000  Uiso   1.00
C73    C     0.48135   0.09315   0.28613   0.00000  Uiso   1.00
C74    C     0.50007   0.33607   0.25019   0.00000  Uiso   1.00
C75    C     0.48354   0.40657   0.20807   0.00000  Uiso   1.00
C76    C     0.50026   0.11606   0.24963   0.00000  Uiso   1.00
C77    C     0.50045   0.38400   0.25043   0.00000  Uiso   1.00
C78    C     0.51997   0.09303   0.21340   0.00000  Uiso   1.00
C79    C     0.51819   0.40741   0.29274   0.00000  Uiso   1.00
C80    C     0.52108   0.04702   0.21387   0.00000  Uiso   1.00
C81    C     0.51925   0.45345   0.29260   0.00000  Uiso   1.00
C82    C     0.50194   0.02411   0.25026   0.00000  Uiso   1.00
C83    C     0.50202   0.47600   0.25028   0.00000  Uiso   1.00
C84    C     0.47767   0.21652   0.04799   0.00000  Uiso   1.00
C85    C     0.54067   0.26662   0.45460   0.00000  Uiso   1.00
C86    C     0.47697   0.21614   0.09712   0.00000  Uiso   1.00
C87    C     0.54120   0.26740   0.40545   0.00000  Uiso   1.00
C88    C     0.51966   0.28634   0.10628   0.00000  Uiso   1.00
C89    C     0.45606   0.23545   0.39049   0.00000  Uiso   1.00
C90    C     0.51689   0.28974   0.05647   0.00000  Uiso   1.00
H91    H     0.65761   0.24972   0.19448   0.00000  Uiso   1.00
H92    H     0.53379   0.47143   0.32529   0.00000  Uiso   1.00
H93    H     0.46220   0.18786   0.02674   0.00000  Uiso   1.00
H94    H     0.57534   0.27785   0.47847   0.00000  Uiso   1.00
H95    H     0.53581   0.31382   0.12898   0.00000  Uiso   1.00
H96    H     0.42280   0.22327   0.36558   0.00000  Uiso   1.00
H97    H     0.34236   0.25030   0.30552   0.00000  Uiso   1.00
H98    H     0.46628   0.02962   0.31414   0.00000  Uiso   1.00
H99    H     0.46991   0.46981   0.17535   0.00000  Uiso   1.00
H100   H     0.46559   0.11072   0.31410   0.00000  Uiso   1.00
H101   H     0.46935   0.38875   0.17519   0.00000  Uiso   1.00
H102   H     0.53518   0.11055   0.18529   0.00000  Uiso   1.00
H103   H     0.53186   0.39021   0.32559   0.00000  Uiso   1.00
H104   H     0.53717   0.02935   0.18616   0.00000  Uiso   1.00
N105   N     0.50000   0.24999   0.12624   0.00000  Uiso   1.00
N106   N     0.50000   0.25001   0.37377   0.00000  Uiso   1.00
O107   O     0.50000   0.18453   0.28974   0.00000  Uiso   1.00
O108   O     0.50000   0.31546   0.21026   0.00000  Uiso   1.00
O109   O     0.50000   0.18453   0.21026   0.00000  Uiso   1.00
O110   O     0.50000   0.31547   0.28974   0.00000  Uiso   1.00
O111   O     0.42392   0.25000   0.28045   0.00000  Uiso   1.00
O112   O     0.57608   0.25000   0.21956   0.00000  Uiso   1.00
O113   O     0.42392   0.25000   0.20097   0.00000  Uiso   1.00
O114   O     0.57608   0.25000   0.29904   0.00000  Uiso   1.00
Zn115  Zn    0.50000   0.25000   0.30307   0.00000  Uiso   1.00
Zn116  Zn    0.50000   0.24999   0.19693   0.00000  Uiso   1.00
Br117  Br    0.77047   0.16907   0.11954   0.00000  Uiso   1.00
Br118  Br    0.93240   0.29861   0.38595   0.00000  Uiso   1.00
Br119  Br    0.87031   0.34587   0.03255   0.00000  Uiso   1.00
Br120  Br    0.71804   0.22455   0.45690   0.00000  Uiso   1.00
C121   C     0.83332   0.16395   0.24982   0.00000  Uiso   1.00
C122   C     0.78543   0.23802   0.43940   0.00000  Uiso   1.00
C123   C     0.82973   0.25369   0.02618   0.00000  Uiso   1.00
C124   C     0.82906   0.25309   0.47284   0.00000  Uiso   1.00
C125   C     0.73368   0.24995   0.23747   0.00000  Uiso   1.00
C126   C     0.93299   0.25002   0.26252   0.00000  Uiso   1.00
C127   C     0.67852   0.24990   0.23081   0.00000  Uiso   1.00
C128   C     0.98814   0.25007   0.26919   0.00000  Uiso   1.00
C129   C     0.81527   0.04717   0.28630   0.00000  Uiso   1.00
C130   C     0.81740   0.45256   0.20806   0.00000  Uiso   1.00
C131   C     0.81469   0.09315   0.28613   0.00000  Uiso   1.00
C132   C     0.83340   0.33607   0.25019   0.00000  Uiso   1.00
C133   C     0.81687   0.40657   0.20807   0.00000  Uiso   1.00
C134   C     0.83360   0.11606   0.24963   0.00000  Uiso   1.00
C135   C     0.83378   0.38400   0.25043   0.00000  Uiso   1.00
C136   C     0.85331   0.09303   0.21340   0.00000  Uiso   1.00
C137   C     0.85153   0.40741   0.29274   0.00000  Uiso   1.00
C138   C     0.85441   0.04702   0.21387   0.00000  Uiso   1.00
C139   C     0.85259   0.45345   0.29260   0.00000  Uiso   1.00
C140   C     0.83527   0.02411   0.25026   0.00000  Uiso   1.00
C141   C     0.83536   0.47600   0.25028   0.00000  Uiso   1.00
C142   C     0.81100   0.21652   0.04799   0.00000  Uiso   1.00
C143   C     0.87400   0.26662   0.45460   0.00000  Uiso   1.00
C144   C     0.81030   0.21614   0.09712   0.00000  Uiso   1.00
C145   C     0.87453   0.26740   0.40545   0.00000  Uiso   1.00
C146   C     0.85299   0.28634   0.10628   0.00000  Uiso   1.00
C147   C     0.78939   0.23545   0.39049   0.00000  Uiso   1.00
C148   C     0.85022   0.28974   0.05647   0.00000  Uiso   1.00
H149   H     0.99095   0.24972   0.19448   0.00000  Uiso   1.00
H150   H     0.86712   0.47143   0.32529   0.00000  Uiso   1.00
H151   H     0.79553   0.18786   0.02674   0.00000  Uiso   1.00
H152   H     0.90867   0.27785   0.47847   0.00000  Uiso   1.00
H153   H     0.86915   0.31382   0.12898   0.00000  Uiso   1.00
H154   H     0.75613   0.22327   0.36558   0.00000  Uiso   1.00
H155   H     0.67569   0.25030   0.30552   0.00000  Uiso   1.00
H156   H     0.79961   0.02962   0.31414   0.00000  Uiso   1.00
H157   H     0.80324   0.46981   0.17535   0.00000  Uiso   1.00
H158   H     0.79892   0.11072   0.31410   0.00000  Uiso   1.00
H159   H     0.80269   0.38875   0.17519   0.00000  Uiso   1.00
H160   H     0.86852   0.11055   0.18529   0.00000  Uiso   1.00
H161   H     0.86519   0.39021   0.32559   0.00000  Uiso   1.00
H162   H     0.87051   0.02935   0.18616   0.00000  Uiso   1.00
N163   N     0.83333   0.24999   0.12624   0.00000  Uiso   1.00
N164   N     0.83333   0.25001   0.37377   0.00000  Uiso   1.00
O165   O     0.83334   0.18453   0.28974   0.00000  Uiso   1.00
O166   O     0.83333   0.31546   0.21026   0.00000  Uiso   1.00
O167   O     0.83334   0.18453   0.21026   0.00000  Uiso   1.00
O168   O     0.83333   0.31547   0.28974   0.00000  Uiso   1.00
O169   O     0.75725   0.25000   0.28045   0.00000  Uiso   1.00
O170   O     0.90942   0.25000   0.21956   0.00000  Uiso   1.00
O171   O     0.75725   0.25000   0.20097   0.00000  Uiso   1.00
O172   O     0.90942   0.25000   0.29904   0.00000  Uiso   1.00
Zn173  Zn    0.83333   0.25000   0.30307   0.00000  Uiso   1.00
Zn174  Zn    0.83333   0.24999   0.19693   0.00000  Uiso   1.00
Br175  Br    0.10380   0.66907   0.11954   0.00000  Uiso   1.00
Br176  Br    0.26574   0.79861   0.38595   0.00000  Uiso   1.00
Br177  Br    0.20365   0.84587   0.03255   0.00000  Uiso   1.00
Br178  Br    0.05138   0.72455   0.45690   0.00000  Uiso   1.00
C179   C     0.16665   0.66395   0.24982   0.00000  Uiso   1.00
C180   C     0.11877   0.73802   0.43940   0.00000  Uiso   1.00
C181   C     0.16307   0.75369   0.02618   0.00000  Uiso   1.00
C182   C     0.16240   0.75309   0.47284   0.00000  Uiso   1.00
C183   C     0.06701   0.74995   0.23747   0.00000  Uiso   1.00
C184   C     0.26632   0.75002   0.26252   0.00000  Uiso   1.00
C185   C     0.01186   0.74990   0.23081   0.00000  Uiso   1.00
C186   C     0.32147   0.75007   0.26919   0.00000  Uiso   1.00
C187   C     0.14861   0.54717   0.28630   0.00000  Uiso   1.00
C188   C     0.15074   0.95256   0.20806   0.00000  Uiso   1.00
C189   C     0.14802   0.59315   0.28613   0.00000  Uiso   1.00
C190   C     0.16674   0.83607   0.25019   0.00000  Uiso   1.00
C191   C     0.15020   0.90657   0.20807   0.00000  Uiso   1.00
C192   C     0.16693   0.61606   0.24963   0.00000  Uiso   1.00
C193   C     0.16711   0.88400   0.25043   0.00000  Uiso   1.00
C194   C     0.18664   0.59303   0.21340   0.00000  Uiso   1.00
C195   C     0.18486   0.90741   0.29274   0.00000  Uiso   1.00
C196   C     0.18775   0.54702   0.21387   0.00000  Uiso   1.00
C197   C     0.18592   0.95345   0.29260   0.00000  Uiso   1.00
C198   C     0.16861   0.52411   0.25026   0.00000  Uiso   1.00
C199   C     0.16869   0.97600   0.25028   0.00000  Uiso   1.00
C200   C     0.14433   0.71652   0.04799   0.00000  Uiso   1.00
C201   C     0.20734   0.76662   0.45460   0.00000  Uiso   1.00
C202   C     0.14364   0.71614   0.09712   0.00000  Uiso   1.00
C203   C     0.20786   0.76740   0.40545   0.00000  Uiso   1.00
C204   C     0.18632   0.78634   0.10628   0.00000  Uiso   1.00
C205   C     0.12272   0.73545   0.39049   0.00000  Uiso   1.00
C206   C     0.18356   0.78974   0.05647   0.00000  Uiso   1.00
H207   H     0.32428   0.74972   0.19448   0.00000  Uiso   1.00
H208   H     0.20046   0.97143   0.32529   0.00000  Uiso   1.00
H209   H     0.12887   0.68786   0.02674   0.00000  Uiso   1.00
H210   H     0.24201   0.77785   0.47847   0.00000  Uiso   1.00
H211   H     0.20248   0.81382   0.12898   0.00000  Uiso   1.00
H212   H     0.08946   0.72327   0.36558   0.00000  Uiso   1.00
H213   H     0.00903   0.75030   0.30552   0.00000  Uiso   1.00
H214   H     0.13294   0.52962   0.31414   0.00000  Uiso   1.00
H215   H     0.13657   0.96981   0.17535   0.00000  Uiso   1.00
H216   H     0.13226   0.61072   0.31410   0.00000  Uiso   1.00
H217   H     0.13602   0.88875   0.17519   0.00000  Uiso   1.00
H218   H     0.20185   0.61055   0.18529   0.00000  Uiso   1.00
H219   H     0.19853   0.89021   0.32559   0.00000  Uiso   1.00
H220   H     0.20384   0.52935   0.18616   0.00000  Uiso   1.00
N221   N     0.16667   0.74999   0.12624   0.00000  Uiso   1.00
N222   N     0.16667   0.75001   0.37377   0.00000  Uiso   1.00
O223   O     0.16667   0.68453   0.28974   0.00000  Uiso   1.00
O224   O     0.16666   0.81546   0.21026   0.00000  Uiso   1.00
O225   O     0.16667   0.68453   0.21026   0.00000  Uiso   1.00
O226   O     0.16666   0.81547   0.28974   0.00000  Uiso   1.00
O227   O     0.09058   0.75000   0.28045   0.00000  Uiso   1.00
O228   O     0.24275   0.75000   0.21956   0.00000  Uiso   1.00
O229   O     0.09058   0.75000   0.20097   0.00000  Uiso   1.00
O230   O     0.24275   0.75000   0.29904   0.00000  Uiso   1.00
Zn231  Zn    0.16667   0.75000   0.30307   0.00000  Uiso   1.00
Zn232  Zn    0.16667   0.74999   0.19693   0.00000  Uiso   1.00
Br233  Br    0.43714   0.66907   0.11954   0.00000  Uiso   1.00
Br234  Br    0.59907   0.79861   0.38595   0.00000  Uiso   1.00
Br235  Br    0.53698   0.84587   0.03255   0.00000  Uiso   1.00
Br236  Br    0.38471   0.72455   0.45690   0.00000  Uiso   1.00
C237   C     0.49998   0.66395   0.24982   0.00000  Uiso   1.00
C238   C     0.45210   0.73802   0.43940   0.00000  Uiso   1.00
C239   C     0.49640   0.75369   0.02618   0.00000  Uiso   1.00
C240   C     0.49573   0.75309   0.47284   0.00000  Uiso   1.00
C241   C     0.40034   0.74995   0.23747   0.00000  Uiso   1.00
C242   C     0.59966   0.75002   0.26252   0.00000  Uiso   1.00
C243   C     0.34519   0.74990   0.23081   0.00000  Uiso   1.00
C244   C     0.65480   0.75007   0.26919   0.00000  Uiso   1.00
C245   C     0.48194   0.54717   0.28630   0.00000  Uiso   1.00
C246   C     0.48407   0.95256   0.20806   0.00000  Uiso   1.00
C247   C     0.48135   0.59315   0.28613   0.00000  Uiso   1.00
C248   C     0.50007   0.83607   0.25019   0.00000  Uiso   1.00
C249   C     0.48354   0.90657   0.20807   0.00000  Uiso   1.00
C250   C     0.50026   0.61606   0.24963   0.00000  Uiso   1.00
C251   C     0.50045   0.88400   0.25043   0.00000  Uiso   1.00
C252   C     0.51997   0.59303   0.21340   0.00000  Uiso   1.00
C253   C     0.51819   0.90741   0.29274   0.00000  Uiso   1.00
C254   C     0.52108   0.54702   0.21387   0.00000  Uiso   1.00
C255   C     0.51925   0.95345   0.29260   0.00000  Uiso   1.00
C256   C     0.50194   0.52411   0.25026   0.00000  Uiso   1.00
C257   C     0.50202   0.97600   0.25028   0.00000  Uiso   1.00
C258   C     0.47767   0.71652   0.04799   0.00000  Uiso   1.00
C259   C     0.54067   0.76662   0.45460   0.00000  Uiso   1.00
C260   C     0.47697   0.71614   0.09712   0.00000  Uiso   1.00
C261   C     0.54120   0.76740   0.40545   0.00000  Uiso   1.00
C262   C     0.51966   0.78634   0.10628   0.00000  Uiso   1.00
C263   C     0.45606   0.73545   0.39049   0.00000  Uiso   1.00
C264   C     0.51689   0.78974   0.05647   0.00000  Uiso   1.00
H265   H     0.65761   0.74972   0.19448   0.00000  Uiso   1.00
H266   H     0.53379   0.97143   0.32529   0.00000  Uiso   1.00
H267   H     0.46220   0.68786   0.02674   0.00000  Uiso   1.00
H268   H     0.57534   0.77785   0.47847   0.00000  Uiso   1.00
H269   H     0.53581   0.81382   0.12898   0.00000  Uiso   1.00
H270   H     0.42280   0.72327   0.36558   0.00000  Uiso   1.00
H271   H     0.34236   0.75030   0.30552   0.00000  Uiso   1.00
H272   H     0.46628   0.52962   0.31414   0.00000  Uiso   1.00
H273   H     0.46991   0.96981   0.17535   0.00000  Uiso   1.00
H274   H     0.46559   0.61072   0.31410   0.00000  Uiso   1.00
H275   H     0.46935   0.88875   0.17519   0.00000  Uiso   1.00
H276   H     0.53518   0.61055   0.18529   0.00000  Uiso   1.00
H277   H     0.53186   0.89021   0.32559   0.00000  Uiso   1.00
H278   H     0.53717   0.52935   0.18616   0.00000  Uiso   1.00
N279   N     0.50000   0.74999   0.12624   0.00000  Uiso   1.00
N280   N     0.50000   0.75001   0.37377   0.00000  Uiso   1.00
O281   O     0.50000   0.68453   0.28974   0.00000  Uiso   1.00
O282   O     0.50000   0.81546   0.21026   0.00000  Uiso   1.00
O283   O     0.50000   0.68453   0.21026   0.00000  Uiso   1.00
O284   O     0.50000   0.81547   0.28974   0.00000  Uiso   1.00
O285   O     0.42392   0.75000   0.28045   0.00000  Uiso   1.00
O286   O     0.57608   0.75000   0.21956   0.00000  Uiso   1.00
O287   O     0.42392   0.75000   0.20097   0.00000  Uiso   1.00
O288   O     0.57608   0.75000   0.29904   0.00000  Uiso   1.00
Zn289  Zn    0.50000   0.75000   0.30307   0.00000  Uiso   1.00
Zn290  Zn    0.50000   0.74999   0.19693   0.00000  Uiso   1.00
Br291  Br    0.77047   0.66907   0.11954   0.00000  Uiso   1.00
Br292  Br    0.93240   0.79861   0.38595   0.00000  Uiso   1.00
Br293  Br    0.87031   0.84587   0.03255   0.00000  Uiso   1.00
Br294  Br    0.71804   0.72455   0.45690   0.00000  Uiso   1.00
C295   C     0.83332   0.66395   0.24982   0.00000  Uiso   1.00
C296   C     0.78543   0.73802   0.43940   0.00000  Uiso   1.00
C297   C     0.82973   0.75369   0.02618   0.00000  Uiso   1.00
C298   C     0.82906   0.75309   0.47284   0.00000  Uiso   1.00
C299   C     0.73368   0.74995   0.23747   0.00000  Uiso   1.00
C300   C     0.93299   0.75002   0.26252   0.00000  Uiso   1.00
C301   C     0.67852   0.74990   0.23081   0.00000  Uiso   1.00
C302   C     0.98814   0.75007   0.26919   0.00000  Uiso   1.00
C303   C     0.81527   0.54717   0.28630   0.00000  Uiso   1.00
C304   C     0.81740   0.95256   0.20806   0.00000  Uiso   1.00
C305   C     0.81469   0.59315   0.28613   0.00000  Uiso   1.00
C306   C     0.83340   0.83607   0.25019   0.00000  Uiso   1.00
C307   C     0.81687   0.90657   0.20807   0.00000  Uiso   1.00
C308   C     0.83360   0.61606   0.24963   0.00000  Uiso   1.00
C309   C     0.83378   0.88400   0.25043   0.00000  Uiso   1.00
C310   C     0.85331   0.59303   0.21340   0.00000  Uiso   1.00
C311   C     0.85153   0.90741   0.29274   0.00000  Uiso   1.00
C312   C     0.85441   0.54702   0.21387   0.00000  Uiso   1.00
C313   C     0.85259   0.95345   0.29260   0.00000  Uiso   1.00
C314   C     0.83527   0.52411   0.25026   0.00000  Uiso   1.00
C315   C     0.83536   0.97600   0.25028   0.00000  Uiso   1.00
C316   C     0.81100   0.71652   0.04799   0.00000  Uiso   1.00
C317   C     0.87400   0.76662   0.45460   0.00000  Uiso   1.00
C318   C     0.81030   0.71614   0.09712   0.00000  Uiso   1.00
C319   C     0.87453   0.76740   0.40545   0.00000  Uiso   1.00
C320   C     0.85299   0.78634   0.10628   0.00000  Uiso   1.00
C321   C     0.78939   0.73545   0.39049   0.00000  Uiso   1.00
C322   C     0.85022   0.78974   0.05647   0.00000  Uiso   1.00
H323   H     0.99095   0.74972   0.19448   0.00000  Uiso   1.00
H324   H     0.86712   0.97143   0.32529   0.00000  Uiso   1.00
H325   H     0.79553   0.68786   0.02674   0.00000  Uiso   1.00
H326   H     0.90867   0.77785   0.47847   0.00000  Uiso   1.00
H327   H     0.86915   0.81382   0.12898   0.00000  Uiso   1.00
H328   H     0.75613   0.72327   0.36558   0.00000  Uiso   1.00
H329   H     0.67569   0.75030   0.30552   0.00000  Uiso   1.00
H330   H     0.79961   0.52962   0.31414   0.00000  Uiso   1.00
H331   H     0.80324   0.96981   0.17535   0.00000  Uiso   1.00
H332   H     0.79892   0.61072   0.31410   0.00000  Uiso   1.00
H333   H     0.80269   0.88875   0.17519   0.00000  Uiso   1.00
H334   H     0.86852   0.61055   0.18529   0.00000  Uiso   1.00
H335   H     0.86519   0.89021   0.32559   0.00000  Uiso   1.00
H336   H     0.87051   0.52935   0.18616   0.00000  Uiso   1.00
N337   N     0.83333   0.74999   0.12624   0.00000  Uiso   1.00
N338   N     0.83333   0.75001   0.37377   0.00000  Uiso   1.00
O339   O     0.83334   0.68453   0.28974   0.00000  Uiso   1.00
O340   O     0.83333   0.81546   0.21026   0.00000  Uiso   1.00
O341   O     0.83334   0.68453   0.21026   0.00000  Uiso   1.00
O342   O     0.83333   0.81547   0.28974   0.00000  Uiso   1.00
O343   O     0.75725   0.75000   0.28045   0.00000  Uiso   1.00
O344   O     0.90942   0.75000   0.21956   0.00000  Uiso   1.00
O345   O     0.75725   0.75000   0.20097   0.00000  Uiso   1.00
O346   O     0.90942   0.75000   0.29904   0.00000  Uiso   1.00
Zn347  Zn    0.83333   0.75000   0.30307   0.00000  Uiso   1.00
Zn348  Zn    0.83333   0.74999   0.19693   0.00000  Uiso   1.00
Br349  Br    0.10380   0.16907   0.61954   0.00000  Uiso   1.00
Br350  Br    0.26574   0.29861   0.88595   0.00000  Uiso   1.00
Br351  Br    0.20365   0.34587   0.53255   0.00000  Uiso   1.00
Br352  Br    0.05138   0.22455   0.95690   0.00000  Uiso   1.00
C353   C     0.16665   0.16395   0.74982   0.00000  Uiso   1.00
C354   C     0.11877   0.23802   0.93940   0.00000  Uiso   1.00
C355   C     0.16307   0.25369   0.52618   0.00000  Uiso   1.00
C356   C     0.16240   0.25309   0.97284   0.00000  Uiso   1.00
C357   C     0.06701   0.24995   0.73747   0.00000  Uiso   1.00
C358   C     0.26632   0.25002   0.76252   0.00000  Uiso   1.00
C359   C     0.01186   0.24990   0.73081   0.00000  Uiso   1.00
C360   C     0.32147   0.25007   0.76919   0.00000  Uiso   1.00
C361   C     0.14861   0.04717   0.78630   0.00000  Uiso   1.00
C362   C     0.15074   0.45256   0.70806   0.00000  Uiso   1.00
C363   C     0.14802   0.09315   0.78613   0.00000  Uiso   1.00
C364   C     0.16674   0.33607   0.75019   0.00000  Uiso   1.00
C365   C     0.15020   0.40657   0.70807   0.00000  Uiso   1.00
C366   C     0.16693   0.11606   0.74963   0.00000  Uiso   1.00
C367   C     0.16711   0.38400   0.75043   0.00000  Uiso   1.00
C368   C     0.18664   0.09303   0.71340   0.00000  Uiso   1.00
C369   C     0.18486   0.40741   0.79274   0.00000  Uiso   1.00
C370   C     0.18775   0.04702   0.71387   0.00000  Uiso   1.00
C371   C     0.18592   0.45345   0.79260   0.00000  Uiso   1.00
C372   C     0.16861   0.02411   0.75026   0.00000  Uiso   1.00
C373   C     0.16869   0.47600   0.75028   0.00000  Uiso   1.00
C374   C     0.14433   0.21652   0.54799   0.00000  Uiso   1.00
C375   C     0.20734   0.26662   0.95460   0.00000  Uiso   1.00
C376   C     0.14364   0.21614   0.59712   0.00000  Uiso   1.00
C377   C     0.20786   0.26740   0.90545   0.00000  Uiso   1.00
C378   C     0.18632   0.28634   0.60628   0.00000  Uiso   1.00
C379   C     0.12272   0.23545   0.89049   0.00000  Uiso   1.00
C380   C     0.18356   0.28974   0.55647   0.00000  Uiso   1.00
H381   H     0.32428   0.24972   0.69448   0.00000  Uiso   1.00
H382   H     0.20046   0.47143   0.82529   0.00000  Uiso   1.00
H383   H     0.12887   0.18786   0.52674   0.00000  Uiso   1.00
H384   H     0.24201   0.27785   0.97847   0.00000  Uiso   1.00
H385   H     0.20248   0.31382   0.62898   0.00000  Uiso   1.00
H386   H     0.08946   0.22327   0.86558   0.00000  Uiso   1.00
H387   H     0.00903   0.25030   0.80552   0.00000  Uiso   1.00
H388   H     0.13294   0.02962   0.81414   0.00000  Uiso   1.00
H389   H     0.13657   0.46981   0.67535   0.00000  Uiso   1.00
H390   H     0.13226   0.11072   0.81410   0.00000  Uiso   1.00
H391   H     0.13602   0.38875   0.67519   0.00000  Uiso   1.00
H392   H     0.20185   0.11055   0.68529   0.00000  Uiso   1.00
H393   H     0.19853   0.39021   0.82559   0.00000  Uiso   1.00
H394   H     0.20384   0.02935   0.68616   0.00000  Uiso   1.00
N395   N     0.16667   0.24999   0.62624   0.00000  Uiso   1.00
N396   N     0.16667   0.25001   0.87377   0.00000  Uiso   1.00
O397   O     0.16667   0.18453   0.78974   0.00000  Uiso   1.00
O398   O     0.16666   0.31546   0.71026   0.00000  Uiso   1.00
O399   O     0.16667   0.18453   0.71026   0.00000  Uiso   1.00
O400   O     0.16666   0.31547   0.78974   0.00000  Uiso   1.00
O401   O     0.09058   0.25000   0.78045   0.00000  Uiso   1.00
O402   O     0.24275   0.25000   0.71956   0.00000  Uiso   1.00
O403   O     0.09058   0.25000   0.70097   0.00000  Uiso   1.00
O404   O     0.24275   0.25000   0.79904   0.00000  Uiso   1.00
Zn405  Zn    0.16667   0.25000   0.80307   0.00000  Uiso   1.00
Zn406  Zn    0.16667   0.24999   0.69693   0.00000  Uiso   1.00
Br407  Br    0.43714   0.16907   0.61954   0.00000  Uiso   1.00
Br408  Br    0.59907   0.29861   0.88595   0.00000  Uiso   1.00
Br409  Br    0.53698   0.34587   0.53255   0.00000  Uiso   1.00
Br410  Br    0.38471   0.22455   0.95690   0.00000  Uiso   1.00
C411   C     0.49998   0.16395   0.74982   0.00000  Uiso   1.00
C412   C     0.45210   0.23802   0.93940   0.00000  Uiso   1.00
C413   C     0.49640   0.25369   0.52618   0.00000  Uiso   1.00
C414   C     0.49573   0.25309   0.97284   0.00000  Uiso   1.00
C415   C     0.40034   0.24995   0.73747   0.00000  Uiso   1.00
C416   C     0.59966   0.25002   0.76252   0.00000  Uiso   1.00
C417   C     0.34519   0.24990   0.73081   0.00000  Uiso   1.00
C418   C     0.65480   0.25007   0.76919   0.00000  Uiso   1.00
C419   C     0.48194   0.04717   0.78630   0.00000  Uiso   1.00
C420   C     0.48407   0.45256   0.70806   0.00000  Uiso   1.00
C421   C     0.48135   0.09315   0.78613   0.00000  Uiso   1.00
C422   C     0.50007   0.33607   0.75019   0.00000  Uiso   1.00
C423   C     0.48354   0.40657   0.70807   0.00000  Uiso   1.00
C424   C     0.50026   0.11606   0.74963   0.00000  Uiso   1.00
C425   C     0.50045   0.38400   0.75043   0.00000  Uiso   1.00
C426   C     0.51997   0.09303   0.71340   0.00000  Uiso   1.00
C427   C     0.51819   0.40741   0.79274   0.00000  Uiso   1.00
C428   C     0.52108   0.04702   0.71387   0.00000  Uiso   1.00
C429   C     0.51925   0.45345   0.79260   0.00000  Uiso   1.00
C430   C     0.50194   0.02411   0.75026   0.00000  Uiso   1.00
C431   C     0.50202   0.47600   0.75028   0.00000  Uiso   1.00
C432   C     0.47767   0.21652   0.54799   0.00000  Uiso   1.00
C433   C     0.54067   0.26662   0.95460   0.00000  Uiso   1.00
C434   C     0.47697   0.21614   0.59712   0.00000  Uiso   1.00
C435   C     0.54120   0.26740   0.90545   0.00000  Uiso   1.00
C436   C     0.51966   0.28634   0.60628   0.00000  Uiso   1.00
C437   C     0.45606   0.23545   0.89049   0.00000  Uiso   1.00
C438   C     0.51689   0.28974   0.55647   0.00000  Uiso   1.00
H439   H     0.65761   0.24972   0.69448   0.00000  Uiso   1.00
H440   H     0.53379   0.47143   0.82529   0.00000  Uiso   1.00
H441   H     0.46220   0.18786   0.52674   0.00000  Uiso   1.00
H442   H     0.57534   0.27785   0.97847   0.00000  Uiso   1.00
H443   H     0.53581   0.31382   0.62898   0.00000  Uiso   1.00
H444   H     0.42280   0.22327   0.86558   0.00000  Uiso   1.00
H445   H     0.34236   0.25030   0.80552   0.00000  Uiso   1.00
H446   H     0.46628   0.02962   0.81414   0.00000  Uiso   1.00
H447   H     0.46991   0.46981   0.67535   0.00000  Uiso   1.00
H448   H     0.46559   0.11072   0.81410   0.00000  Uiso   1.00
H449   H     0.46935   0.38875   0.67519   0.00000  Uiso   1.00
H450   H     0.53518   0.11055   0.68529   0.00000  Uiso   1.00
H451   H     0.53186   0.39021   0.82559   0.00000  Uiso   1.00
H452   H     0.53717   0.02935   0.68616   0.00000  Uiso   1.00
N453   N     0.50000   0.24999   0.62624   0.00000  Uiso   1.00
N454   N     0.50000   0.25001   0.87377   0.00000  Uiso   1.00
O455   O     0.50000   0.18453   0.78974   0.00000  Uiso   1.00
O456   O     0.50000   0.31546   0.71026   0.00000  Uiso   1.00
O457   O     0.50000   0.18453   0.71026   0.00000  Uiso   1.00
O458   O     0.50000   0.31547   0.78974   0.00000  Uiso   1.00
O459   O     0.42392   0.25000   0.78045   0.00000  Uiso   1.00
O460   O     0.57608   0.25000   0.71956   0.00000  Uiso   1.00
O461   O     0.42392   0.25000   0.70097   0.00000  Uiso   1.00
O462   O     0.57608   0.25000   0.79904   0.00000  Uiso   1.00
Zn463  Zn    0.50000   0.25000   0.80307   0.00000  Uiso   1.00
Zn464  Zn    0.50000   0.24999   0.69693   0.00000  Uiso   1.00
Br465  Br    0.77047   0.16907   0.61954   0.00000  Uiso   1.00
Br466  Br    0.93240   0.29861   0.88595   0.00000  Uiso   1.00
Br467  Br    0.87031   0.34587   0.53255   0.00000  Uiso   1.00
Br468  Br    0.71804   0.22455   0.95690   0.00000  Uiso   1.00
C469   C     0.83332   0.16395   0.74982   0.00000  Uiso   1.00
C470   C     0.78543   0.23802   0.93940   0.00000  Uiso   1.00
C471   C     0.82973   0.25369   0.52618   0.00000  Uiso   1.00
C472   C     0.82906   0.25309   0.97284   0.00000  Uiso   1.00
C473   C     0.73368   0.24995   0.73747   0.00000  Uiso   1.00
C474   C     0.93299   0.25002   0.76252   0.00000  Uiso   1.00
C475   C     0.67852   0.24990   0.73081   0.00000  Uiso   1.00
C476   C     0.98814   0.25007   0.76919   0.00000  Uiso   1.00
C477   C     0.81527   0.04717   0.78630   0.00000  Uiso   1.00
C478   C     0.81740   0.45256   0.70806   0.00000  Uiso   1.00
C479   C     0.81469   0.09315   0.78613   0.00000  Uiso   1.00
C480   C     0.83340   0.33607   0.75019   0.00000  Uiso   1.00
C481   C     0.81687   0.40657   0.70807   0.00000  Uiso   1.00
C482   C     0.83360   0.11606   0.74963   0.00000  Uiso   1.00
C483   C     0.83378   0.38400   0.75043   0.00000  Uiso   1.00
C484   C     0.85331   0.09303   0.71340   0.00000  Uiso   1.00
C485   C     0.85153   0.40741   0.79274   0.00000  Uiso   1.00
C486   C     0.85441   0.04702   0.71387   0.00000  Uiso   1.00
C487   C     0.85259   0.45345   0.79260   0.00000  Uiso   1.00
C488   C     0.83527   0.02411   0.75026   0.00000  Uiso   1.00
C489   C     0.83536   0.47600   0.75028   0.00000  Uiso   1.00
C490   C     0.81100   0.21652   0.54799   0.00000  Uiso   1.00
C491   C     0.87400   0.26662   0.95460   0.00000  Uiso   1.00
C492   C     0.81030   0.21614   0.59712   0.00000  Uiso   1.00
C493   C     0.87453   0.26740   0.90545   0.00000  Uiso   1.00
C494   C     0.85299   0.28634   0.60628   0.00000  Uiso   1.00
C495   C     0.78939   0.23545   0.89049   0.00000  Uiso   1.00
C496   C     0.85022   0.28974   0.55647   0.00000  Uiso   1.00
H497   H     0.99095   0.24972   0.69448   0.00000  Uiso   1.00
H498   H     0.86712   0.47143   0.82529   0.00000  Uiso   1.00
H499   H     0.79553   0.18786   0.52674   0.00000  Uiso   1.00
H500   H     0.90867   0.27785   0.97847   0.00000  Uiso   1.00
H501   H     0.86915   0.31382   0.62898   0.00000  Uiso   1.00
H502   H     0.75613   0.22327   0.86558   0.00000  Uiso   1.00
H503   H     0.67569   0.25030   0.80552   0.00000  Uiso   1.00
H504   H     0.79961   0.02962   0.81414   0.00000  Uiso   1.00
H505   H     0.80324   0.46981   0.67535   0.00000  Uiso   1.00
H506   H     0.79892   0.11072   0.81410   0.00000  Uiso   1.00
H507   H     0.80269   0.38875   0.67519   0.00000  Uiso   1.00
H508   H     0.86852   0.11055   0.68529   0.00000  Uiso   1.00
H509   H     0.86519   0.39021   0.82559   0.00000  Uiso   1.00
H510   H     0.87051   0.02935   0.68616   0.00000  Uiso   1.00
N511   N     0.83333   0.24999   0.62624   0.00000  Uiso   1.00
N512   N     0.83333   0.25001   0.87377   0.00000  Uiso   1.00
O513   O     0.83334   0.18453   0.78974   0.00000  Uiso   1.00
O514   O     0.83333   0.31546   0.71026   0.00000  Uiso   1.00
O515   O     0.83334   0.18453   0.71026   0.00000  Uiso   1.00
O516   O     0.83333   0.31547   0.78974   0.00000  Uiso   1.00
O517   O     0.75725   0.25000   0.78045   0.00000  Uiso   1.00
O518   O     0.90942   0.25000   0.71956   0.00000  Uiso   1.00
O519   O     0.75725   0.25000   0.70097   0.00000  Uiso   1.00
O520   O     0.90942   0.25000   0.79904   0.00000  Uiso   1.00
Zn521  Zn    0.83333   0.25000   0.80307   0.00000  Uiso   1.00
Zn522  Zn    0.83333   0.24999   0.69693   0.00000  Uiso   1.00
Br523  Br    0.10380   0.66907   0.61954   0.00000  Uiso   1.00
Br524  Br    0.26574   0.79861   0.88595   0.00000  Uiso   1.00
Br525  Br    0.20365   0.84587   0.53255   0.00000  Uiso   1.00
Br526  Br    0.05138   0.72455   0.95690   0.00000  Uiso   1.00
C527   C     0.16665   0.66395   0.74982   0.00000  Uiso   1.00
C528   C     0.11877   0.73802   0.93940   0.00000  Uiso   1.00
C529   C     0.16307   0.75369   0.52618   0.00000  Uiso   1.00
C530   C     0.16240   0.75309   0.97284   0.00000  Uiso   1.00
C531   C     0.06701   0.74995   0.73747   0.00000  Uiso   1.00
C532   C     0.26632   0.75002   0.76252   0.00000  Uiso   1.00
C533   C     0.01186   0.74990   0.73081   0.00000  Uiso   1.00
C534   C     0.32147   0.75007   0.76919   0.00000  Uiso   1.00
C535   C     0.14861   0.54717   0.78630   0.00000  Uiso   1.00
C536   C     0.15074   0.95256   0.70806   0.00000  Uiso   1.00
C537   C     0.14802   0.59315   0.78613   0.00000  Uiso   1.00
C538   C     0.16674   0.83607   0.75019   0.00000  Uiso   1.00
C539   C     0.15020   0.90657   0.70807   0.00000  Uiso   1.00
C540   C     0.16693   0.61606   0.74963   0.00000  Uiso   1.00
C541   C     0.16711   0.88400   0.75043   0.00000  Uiso   1.00
C542   C     0.18664   0.59303   0.71340   0.00000  Uiso   1.00
C543   C     0.18486   0.90741   0.79274   0.00000  Uiso   1.00
C544   C     0.18775   0.54702   0.71387   0.00000  Uiso   1.00
C545   C     0.18592   0.95345   0.79260   0.00000  Uiso   1.00
C546   C     0.16861   0.52411   0.75026   0.00000  Uiso   1.00
C547   C     0.16869   0.97600   0.75028   0.00000  Uiso   1.00
C548   C     0.14433   0.71652   0.54799   0.00000  Uiso   1.00
C549   C     0.20734   0.76662   0.95460   0.00000  Uiso   1.00
C550   C     0.14364   0.71614   0.59712   0.00000  Uiso   1.00
C551   C     0.20786   0.76740   0.90545   0.00000  Uiso   1.00
C552   C     0.18632   0.78634   0.60628   0.00000  Uiso   1.00
C553   C     0.12272   0.73545   0.89049   0.00000  Uiso   1.00
C554   C     0.18356   0.78974   0.55647   0.00000  Uiso   1.00
H555   H     0.32428   0.74972   0.69448   0.00000  Uiso   1.00
H556   H     0.20046   0.97143   0.82529   0.00000  Uiso   1.00
H557   H     0.12887   0.68786   0.52674   0.00000  Uiso   1.00
H558   H     0.24201   0.77785   0.97847   0.00000  Uiso   1.00
H559   H     0.20248   0.81382   0.62898   0.00000  Uiso   1.00
H560   H     0.08946   0.72327   0.86558   0.00000  Uiso   1.00
H561   H     0.00903   0.75030   0.80552   0.00000  Uiso   1.00
H562   H     0.13294   0.52962   0.81414   0.00000  Uiso   1.00
H563   H     0.13657   0.96981   0.67535   0.00000  Uiso   1.00
H564   H     0.13226   0.61072   0.81410   0.00000  Uiso   1.00
H565   H     0.13602   0.88875   0.67519   0.00000  Uiso   1.00
H566   H     0.20185   0.61055   0.68529   0.00000  Uiso   1.00
H567   H     0.19853   0.89021   0.82559   0.00000  Uiso   1.00
H568   H     0.20384   0.52935   0.68616   0.00000  Uiso   1.00
N569   N     0.16667   0.74999   0.62624   0.00000  Uiso   1.00
N570   N     0.16667   0.75001   0.87377   0.00000  Uiso   1.00
O571   O     0.16667   0.68453   0.78974   0.00000  Uiso   1.00
O572   O     0.16666   0.81546   0.71026   0.00000  Uiso   1.00
O573   O     0.16667   0.68453   0.71026   0.00000  Uiso   1.00
O574   O     0.16666   0.81547   0.78974   0.00000  Uiso   1.00
O575   O     0.09058   0.75000   0.78045   0.00000  Uiso   1.00
O576   O     0.24275   0.75000   0.71956   0.00000  Uiso   1.00
O577   O     0.09058   0.75000   0.70097   0.00000  Uiso   1.00
O578   O     0.24275   0.75000   0.79904   0.00000  Uiso   1.00
Zn579  Zn    0.16667   0.75000   0.80307   0.00000  Uiso   1.00
Zn580  Zn    0.16667   0.74999   0.69693   0.00000  Uiso   1.00
Br581  Br    0.43714   0.66907   0.61954   0.00000  Uiso   1.00
Br582  Br    0.59907   0.79861   0.88595   0.00000  Uiso   1.00
Br583  Br    0.53698   0.84587   0.53255   0.00000  Uiso   1.00
Br584  Br    0.38471   0.72455   0.95690   0.00000  Uiso   1.00
C585   C     0.49998   0.66395   0.74982   0.00000  Uiso   1.00
C586   C     0.45210   0.73802   0.93940   0.00000  Uiso   1.00
C587   C     0.49640   0.75369   0.52618   0.00000  Uiso   1.00
C588   C     0.49573   0.75309   0.97284   0.00000  Uiso   1.00
C589   C     0.40034   0.74995   0.73747   0.00000  Uiso   1.00
C590   C     0.59966   0.75002   0.76252   0.00000  Uiso   1.00
C591   C     0.34519   0.74990   0.73081   0.00000  Uiso   1.00
C592   C     0.65480   0.75007   0.76919   0.00000  Uiso   1.00
C593   C     0.48194   0.54717   0.78630   0.00000  Uiso   1.00
C594   C     0.48407   0.95256   0.70806   0.00000  Uiso   1.00
C595   C     0.48135   0.59315   0.78613   0.00000  Uiso   1.00
C596   C     0.50007   0.83607   0.75019   0.00000  Uiso   1.00
C597   C     0.48354   0.90657   0.70807   0.00000  Uiso   1.00
C598   C     0.50026   0.61606   0.74963   0.00000  Uiso   1.00
C599   C     0.50045   0.88400   0.75043   0.00000  Uiso   1.00
C600   C     0.51997   0.59303   0.71340   0.00000  Uiso   1.00
C601   C     0.51819   0.90741   0.79274   0.00000  Uiso   1.00
C602   C     0.52108   0.54702   0.71387   0.00000  Uiso   1.00
C603   C     0.51925   0.95345   0.79260   0.00000  Uiso   1.00
C604   C     0.50194   0.52411   0.75026   0.00000  Uiso   1.00
C605   C     0.50202   0.97600   0.75028   0.00000  Uiso   1.00
C606   C     0.47767   0.71652   0.54799   0.00000  Uiso   1.00
C607   C     0.54067   0.76662   0.95460   0.00000  Uiso   1.00
C608   C     0.47697   0.71614   0.59712   0.00000  Uiso   1.00
C609   C     0.54120   0.76740   0.90545   0.00000  Uiso   1.00
C610   C     0.51966   0.78634   0.60628   0.00000  Uiso   1.00
C611   C     0.45606   0.73545   0.89049   0.00000  Uiso   1.00
C612   C     0.51689   0.78974   0.55647   0.00000  Uiso   1.00
H613   H     0.65761   0.74972   0.69448   0.00000  Uiso   1.00
H614   H     0.53379   0.97143   0.82529   0.00000  Uiso   1.00
H615   H     0.46220   0.68786   0.52674   0.00000  Uiso   1.00
H616   H     0.57534   0.77785   0.97847   0.00000  Uiso   1.00
H617   H     0.53581   0.81382   0.62898   0.00000  Uiso   1.00
H618   H     0.42280   0.72327   0.86558   0.00000  Uiso   1.00
H619   H     0.34236   0.75030   0.80552   0.00000  Uiso   1.00
H620   H     0.46628   0.52962   0.81414   0.00000  Uiso   1.00
H621   H     0.46991   0.96981   0.67535   0.00000  Uiso   1.00
H622   H     0.46559   0.61072   0.81410   0.00000  Uiso   1.00
H623   H     0.46935   0.88875   0.67519   0.00000  Uiso   1.00
H624   H     0.53518   0.61055   0.68529   0.00000  Uiso   1.00
H625   H     0.53186   0.89021   0.82559   0.00000  Uiso   1.00
H626   H     0.53717   0.52935   0.68616   0.00000  Uiso   1.00
N627   N     0.50000   0.74999   0.62624   0.00000  Uiso   1.00
N628   N     0.50000   0.75001   0.87377   0.00000  Uiso   1.00
O629   O     0.50000   0.68453   0.78974   0.00000  Uiso   1.00
O630   O     0.50000   0.81546   0.71026   0.00000  Uiso   1.00
O631   O     0.50000   0.68453   0.71026   0.00000  Uiso   1.00
O632   O     0.50000   0.81547   0.78974   0.00000  Uiso   1.00
O633   O     0.42392   0.75000   0.78045   0.00000  Uiso   1.00
O634   O     0.57608   0.75000   0.71956   0.00000  Uiso   1.00
O635   O     0.42392   0.75000   0.70097   0.00000  Uiso   1.00
O636   O     0.57608   0.75000   0.79904   0.00000  Uiso   1.00
Zn637  Zn    0.50000   0.75000   0.80307   0.00000  Uiso   1.00
Zn638  Zn    0.50000   0.74999   0.69693   0.00000  Uiso   1.00
Br639  Br    0.77047   0.66907   0.61954   0.00000  Uiso   1.00
Br640  Br    0.93240   0.79861   0.88595   0.00000  Uiso   1.00
Br641  Br    0.87031   0.84587   0.53255   0.00000  Uiso   1.00
Br642  Br    0.71804   0.72455   0.95690   0.00000  Uiso   1.00
C643   C     0.83332   0.66395   0.74982   0.00000  Uiso   1.00
C644   C     0.78543   0.73802   0.93940   0.00000  Uiso   1.00
C645   C     0.82973   0.75369   0.52618   0.00000  Uiso   1.00
C646   C     0.82906   0.75309   0.97284   0.00000  Uiso   1.00
C647   C     0.73368   0.74995   0.73747   0.00000  Uiso   1.00
C648   C     0.93299   0.75002   0.76252   0.00000  Uiso   1.00
C649   C     0.67852   0.74990   0.73081   0.00000  Uiso   1.00
C650   C     0.98814   0.75007   0.76919   0.00000  Uiso   1.00
C651   C     0.81527   0.54717   0.78630   0.00000  Uiso   1.00
C652   C     0.81740   0.95256   0.70806   0.00000  Uiso   1.00
C653   C     0.81469   0.59315   0.78613   0.00000  Uiso   1.00
C654   C     0.83340   0.83607   0.75019   0.00000  Uiso   1.00
C655   C     0.81687   0.90657   0.70807   0.00000  Uiso   1.00
C656   C     0.83360   0.61606   0.74963   0.00000  Uiso   1.00
C657   C     0.83378   0.88400   0.75043   0.00000  Uiso   1.00
C658   C     0.85331   0.59303   0.71340   0.00000  Uiso   1.00
C659   C     0.85153   0.90741   0.79274   0.00000  Uiso   1.00
C660   C     0.85441   0.54702   0.71387   0.00000  Uiso   1.00
C661   C     0.85259   0.95345   0.79260   0.00000  Uiso   1.00
C662   C     0.83527   0.52411   0.75026   0.00000  Uiso   1.00
C663   C     0.83536   0.97600   0.75028   0.00000  Uiso   1.00
C664   C     0.81100   0.71652   0.54799   0.00000  Uiso   1.00
C665   C     0.87400   0.76662   0.95460   0.00000  Uiso   1.00
C666   C     0.81030   0.71614   0.59712   0.00000  Uiso   1.00
C667   C     0.87453   0.76740   0.90545   0.00000  Uiso   1.00
C668   C     0.85299   0.78634   0.60628   0.00000  Uiso   1.00
C669   C     0.78939   0.73545   0.89049   0.00000  Uiso   1.00
C670   C     0.85022   0.78974   0.55647   0.00000  Uiso   1.00
H671   H     0.99095   0.74972   0.69448   0.00000  Uiso   1.00
H672   H     0.86712   0.97143   0.82529   0.00000  Uiso   1.00
H673   H     0.79553   0.68786   0.52674   0.00000  Uiso   1.00
H674   H     0.90867   0.77785   0.97847   0.00000  Uiso   1.00
H675   H     0.86915   0.81382   0.62898   0.00000  Uiso   1.00
H676   H     0.75613   0.72327   0.86558   0.00000  Uiso   1.00
H677   H     0.67569   0.75030   0.80552   0.00000  Uiso   1.00
H678   H     0.79961   0.52962   0.81414   0.00000  Uiso   1.00
H679   H     0.80324   0.96981   0.67535   0.00000  Uiso   1.00
H680   H     0.79892   0.61072   0.81410   0.00000  Uiso   1.00
H681   H     0.80269   0.88875   0.67519   0.00000  Uiso   1.00
H682   H     0.86852   0.61055   0.68529   0.00000  Uiso   1.00
H683   H     0.86519   0.89021   0.82559   0.00000  Uiso   1.00
H684   H     0.87051   0.52935   0.68616   0.00000  Uiso   1.00
N685   N     0.83333   0.74999   0.62624   0.00000  Uiso   1.00
N686   N     0.83333   0.75001   0.87377   0.00000  Uiso   1.00
O687   O     0.83334   0.68453   0.78974   0.00000  Uiso   1.00
O688   O     0.83333   0.81546   0.71026   0.00000  Uiso   1.00
O689   O     0.83334   0.68453   0.71026   0.00000  Uiso   1.00
O690   O     0.83333   0.81547   0.78974   0.00000  Uiso   1.00
O691   O     0.75725   0.75000   0.78045   0.00000  Uiso   1.00
O692   O     0.90942   0.75000   0.71956   0.00000  Uiso   1.00
O693   O     0.75725   0.75000   0.70097   0.00000  Uiso   1.00
O694   O     0.90942   0.75000   0.79904   0.00000  Uiso   1.00
Zn695  Zn    0.83333   0.75000   0.80307   0.00000  Uiso   1.00
Zn696  Zn    0.83333   0.74999   0.69693   0.00000  Uiso   1.00
loop_
_geom_bond_atom_site_label_1
_geom_bond_atom_site_label_2
_geom_bond_distance
_geom_bond_site_symmetry_2
_ccdc_geom_bond_type
Br1    C28     1.911   .     S
Br2    C29     1.912   .     S
Br3    C32     1.920   .     S
Br4    C6      1.921   .     S
C5     O49     1.288   .     A
C5     C18     1.437   .     S
C5     O51     1.290   .     A
C6     C31     1.414   .     A
C6     C8      1.421   .     A
C7     C26     1.400   .     A
C7     C32     1.421   .     A
C7     C356    1.516   1_554 S
C8     C27     1.400   .     A
C8     C355    1.516   .     S
C9     O55     1.284   .     A
C9     C11     1.403   .     S
C9     O53     1.277   .     A
C10    O56     1.284   .     A
C10    C12     1.403   .     S
C10    O54     1.277   .     A
C11    C128    1.333   1_455 S
C11    H149    1.088   1_455 S
C12    C69     1.333   .     S
C12    H97     1.088   .     S
C13    C15     1.380   .     A
C13    H40     1.083   .     S
C13    C24     1.399   .     A
C14    C25     1.398   .     A
C14    C17     1.380   .     A
C14    H41     1.084   .     S
C15    C18     1.399   .     A
C15    H42     1.084   .     S
C16    O50     1.288   .     A
C16    C19     1.438   .     S
C16    O52     1.290   .     A
C17    H43     1.084   .     S
C17    C19     1.400   .     A
C18    C20     1.399   .     A
C19    C21     1.399   .     A
C20    H44     1.084   .     S
C20    C22     1.381   .     A
C21    C23     1.381   .     A
C21    H45     1.084   .     S
C22    H46     1.083   .     S
C22    C24     1.400   .     A
C23    H34     1.083   .     S
C23    C25     1.400   .     A
C24    C199    1.443   1_545 S
C25    C198    1.443   .     S
C26    H35     1.082   .     S
C26    C28     1.402   .     A
C27    H36     1.082   .     S
C27    C29     1.402   .     A
C28    N47     1.374   .     A
C29    N48     1.375   .     A
C30    H37     1.081   .     S
C30    C32     1.413   .     A
C30    N47     1.364   .     A
C31    H38     1.081   .     S
C31    N48     1.365   .     A
H33    C69     1.088   .     S
H39    C128    1.088   1_455 S
N47    Zn58    2.013   .     S
N48    Zn57    2.013   .     S
O49    Zn57    1.997   .     S
O50    Zn58    1.997   .     S
O51    Zn58    2.004   .     S
O52    Zn57    2.004   .     S
O53    Zn57    1.964   .     S
O54    Zn58    1.964   .     S
O55    Zn58    1.981   .     S
O56    Zn57    1.981   .     S
Br59   C86     1.911   .     S
Br60   C87     1.912   .     S
Br61   C90     1.920   .     S
Br62   C64     1.921   .     S
C63    O107    1.288   .     A
C63    C76     1.437   .     S
C63    O109    1.290   .     A
C64    C89     1.414   .     A
C64    C66     1.421   .     A
C65    C84     1.400   .     A
C65    C90     1.421   .     A
C65    C414    1.516   1_554 S
C66    C85     1.400   .     A
C66    C413    1.516   .     S
C67    O113    1.284   .     A
C67    C69     1.403   .     S
C67    O111    1.277   .     A
C68    O114    1.284   .     A
C68    C70     1.403   .     S
C68    O112    1.277   .     A
C70    C127    1.333   .     S
C70    H155    1.088   .     S
C71    C73     1.380   .     A
C71    H98     1.083   .     S
C71    C82     1.399   .     A
C72    C83     1.398   .     A
C72    C75     1.380   .     A
C72    H99     1.084   .     S
C73    C76     1.399   .     A
C73    H100    1.084   .     S
C74    O108    1.288   .     A
C74    C77     1.438   .     S
C74    O110    1.290   .     A
C75    H101    1.084   .     S
C75    C77     1.400   .     A
C76    C78     1.399   .     A
C77    C79     1.399   .     A
C78    H102    1.084   .     S
C78    C80     1.381   .     A
C79    C81     1.381   .     A
C79    H103    1.084   .     S
C80    H104    1.083   .     S
C80    C82     1.400   .     A
C81    H92     1.083   .     S
C81    C83     1.400   .     A
C82    C257    1.443   1_545 S
C83    C256    1.443   .     S
C84    H93     1.082   .     S
C84    C86     1.402   .     A
C85    H94     1.082   .     S
C85    C87     1.402   .     A
C86    N105    1.374   .     A
C87    N106    1.375   .     A
C88    H95     1.081   .     S
C88    C90     1.413   .     A
C88    N105    1.364   .     A
C89    H96     1.081   .     S
C89    N106    1.365   .     A
H91    C127    1.088   .     S
N105   Zn116   2.013   .     S
N106   Zn115   2.013   .     S
O107   Zn115   1.997   .     S
O108   Zn116   1.997   .     S
O109   Zn116   2.004   .     S
O110   Zn115   2.004   .     S
O111   Zn115   1.964   .     S
O112   Zn116   1.964   .     S
O113   Zn116   1.981   .     S
O114   Zn115   1.981   .     S
Br117  C144    1.911   .     S
Br118  C145    1.912   .     S
Br119  C148    1.920   .     S
Br120  C122    1.921   .     S
C121   O165    1.288   .     A
C121   C134    1.437   .     S
C121   O167    1.290   .     A
C122   C147    1.414   .     A
C122   C124    1.421   .     A
C123   C142    1.400   .     A
C123   C148    1.421   .     A
C123   C472    1.516   1_554 S
C124   C143    1.400   .     A
C124   C471    1.516   .     S
C125   O171    1.284   .     A
C125   C127    1.403   .     S
C125   O169    1.277   .     A
C126   O172    1.284   .     A
C126   C128    1.403   .     S
C126   O170    1.277   .     A
C128   C11     1.333   1_655 S
C128   H39     1.088   1_655 S
C129   C131    1.380   .     A
C129   H156    1.083   .     S
C129   C140    1.399   .     A
C130   C141    1.398   .     A
C130   C133    1.380   .     A
C130   H157    1.084   .     S
C131   C134    1.399   .     A
C131   H158    1.084   .     S
C132   O166    1.288   .     A
C132   C135    1.438   .     S
C132   O168    1.290   .     A
C133   H159    1.084   .     S
C133   C135    1.400   .     A
C134   C136    1.399   .     A
C135   C137    1.399   .     A
C136   H160    1.084   .     S
C136   C138    1.381   .     A
C137   C139    1.381   .     A
C137   H161    1.084   .     S
C138   H162    1.083   .     S
C138   C140    1.400   .     A
C139   H150    1.083   .     S
C139   C141    1.400   .     A
C140   C315    1.443   1_545 S
C141   C314    1.443   .     S
C142   H151    1.082   .     S
C142   C144    1.402   .     A
C143   H152    1.082   .     S
C143   C145    1.402   .     A
C144   N163    1.374   .     A
C145   N164    1.375   .     A
C146   H153    1.081   .     S
C146   C148    1.413   .     A
C146   N163    1.364   .     A
C147   H154    1.081   .     S
C147   N164    1.365   .     A
H149   C11     1.088   1_655 S
N163   Zn174   2.013   .     S
N164   Zn173   2.013   .     S
O165   Zn173   1.997   .     S
O166   Zn174   1.997   .     S
O167   Zn174   2.004   .     S
O168   Zn173   2.004   .     S
O169   Zn173   1.964   .     S
O170   Zn174   1.964   .     S
O171   Zn174   1.981   .     S
O172   Zn173   1.981   .     S
Br175  C202    1.911   .     S
Br176  C203    1.912   .     S
Br177  C206    1.920   .     S
Br178  C180    1.921   .     S
C179   O223    1.288   .     A
C179   C192    1.437   .     S
C179   O225    1.290   .     A
C180   C205    1.414   .     A
C180   C182    1.421   .     A
C181   C200    1.400   .     A
C181   C206    1.421   .     A
C181   C530    1.516   1_554 S
C182   C201    1.400   .     A
C182   C529    1.516   .     S
C183   O229    1.284   .     A
C183   C185    1.403   .     S
C183   O227    1.277   .     A
C184   O230    1.284   .     A
C184   C186    1.403   .     S
C184   O228    1.277   .     A
C185   C302    1.333   1_455 S
C185   H323    1.088   1_455 S
C186   C243    1.333   .     S
C186   H271    1.088   .     S
C187   C189    1.380   .     A
C187   H214    1.083   .     S
C187   C198    1.399   .     A
C188   C199    1.398   .     A
C188   C191    1.380   .     A
C188   H215    1.084   .     S
C189   C192    1.399   .     A
C189   H216    1.084   .     S
C190   O224    1.288   .     A
C190   C193    1.438   .     S
C190   O226    1.290   .     A
C191   H217    1.084   .     S
C191   C193    1.400   .     A
C192   C194    1.399   .     A
C193   C195    1.399   .     A
C194   H218    1.084   .     S
C194   C196    1.381   .     A
C195   C197    1.381   .     A
C195   H219    1.084   .     S
C196   H220    1.083   .     S
C196   C198    1.400   .     A
C197   H208    1.083   .     S
C197   C199    1.400   .     A
C199   C24     1.443   1_565 S
C200   H209    1.082   .     S
C200   C202    1.402   .     A
C201   H210    1.082   .     S
C201   C203    1.402   .     A
C202   N221    1.374   .     A
C203   N222    1.375   .     A
C204   H211    1.081   .     S
C204   C206    1.413   .     A
C204   N221    1.364   .     A
C205   H212    1.081   .     S
C205   N222    1.365   .     A
H207   C243    1.088   .     S
H213   C302    1.088   1_455 S
N221   Zn232   2.013   .     S
N222   Zn231   2.013   .     S
O223   Zn231   1.997   .     S
O224   Zn232   1.997   .     S
O225   Zn232   2.004   .     S
O226   Zn231   2.004   .     S
O227   Zn231   1.964   .     S
O228   Zn232   1.964   .     S
O229   Zn232   1.981   .     S
O230   Zn231   1.981   .     S
Br233  C260    1.911   .     S
Br234  C261    1.912   .     S
Br235  C264    1.920   .     S
Br236  C238    1.921   .     S
C237   O281    1.288   .     A
C237   C250    1.437   .     S
C237   O283    1.290   .     A
C238   C263    1.414   .     A
C238   C240    1.421   .     A
C239   C258    1.400   .     A
C239   C264    1.421   .     A
C239   C588    1.516   1_554 S
C240   C259    1.400   .     A
C240   C587    1.516   .     S
C241   O287    1.284   .     A
C241   C243    1.403   .     S
C241   O285    1.277   .     A
C242   O288    1.284   .     A
C242   C244    1.403   .     S
C242   O286    1.277   .     A
C244   C301    1.333   .     S
C244   H329    1.088   .     S
C245   C247    1.380   .     A
C245   H272    1.083   .     S
C245   C256    1.399   .     A
C246   C257    1.398   .     A
C246   C249    1.380   .     A
C246   H273    1.084   .     S
C247   C250    1.399   .     A
C247   H274    1.084   .     S
C248   O282    1.288   .     A
C248   C251    1.438   .     S
C248   O284    1.290   .     A
C249   H275    1.084   .     S
C249   C251    1.400   .     A
C250   C252    1.399   .     A
C251   C253    1.399   .     A
C252   H276    1.084   .     S
C252   C254    1.381   .     A
C253   C255    1.381   .     A
C253   H277    1.084   .     S
C254   H278    1.083   .     S
C254   C256    1.400   .     A
C255   H266    1.083   .     S
C255   C257    1.400   .     A
C257   C82     1.443   1_565 S
C258   H267    1.082   .     S
C258   C260    1.402   .     A
C259   H268    1.082   .     S
C259   C261    1.402   .     A
C260   N279    1.374   .     A
C261   N280    1.375   .     A
C262   H269    1.081   .     S
C262   C264    1.413   .     A
C262   N279    1.364   .     A
C263   H270    1.081   .     S
C263   N280    1.365   .     A
H265   C301    1.088   .     S
N279   Zn290   2.013   .     S
N280   Zn289   2.013   .     S
O281   Zn289   1.997   .     S
O282   Zn290   1.997   .     S
O283   Zn290   2.004   .     S
O284   Zn289   2.004   .     S
O285   Zn289   1.964   .     S
O286   Zn290   1.964   .     S
O287   Zn290   1.981   .     S
O288   Zn289   1.981   .     S
Br291  C318    1.911   .     S
Br292  C319    1.912   .     S
Br293  C322    1.920   .     S
Br294  C296    1.921   .     S
C295   O339    1.288   .     A
C295   C308    1.437   .     S
C295   O341    1.290   .     A
C296   C321    1.414   .     A
C296   C298    1.421   .     A
C297   C316    1.400   .     A
C297   C322    1.421   .     A
C297   C646    1.516   1_554 S
C298   C317    1.400   .     A
C298   C645    1.516   .     S
C299   O345    1.284   .     A
C299   C301    1.403   .     S
C299   O343    1.277   .     A
C300   O346    1.284   .     A
C300   C302    1.403   .     S
C300   O344    1.277   .     A
C302   C185    1.333   1_655 S
C302   H213    1.088   1_655 S
C303   C305    1.380   .     A
C303   H330    1.083   .     S
C303   C314    1.399   .     A
C304   C315    1.398   .     A
C304   C307    1.380   .     A
C304   H331    1.084   .     S
C305   C308    1.399   .     A
C305   H332    1.084   .     S
C306   O340    1.288   .     A
C306   C309    1.438   .     S
C306   O342    1.290   .     A
C307   H333    1.084   .     S
C307   C309    1.400   .     A
C308   C310    1.399   .     A
C309   C311    1.399   .     A
C310   H334    1.084   .     S
C310   C312    1.381   .     A
C311   C313    1.381   .     A
C311   H335    1.084   .     S
C312   H336    1.083   .     S
C312   C314    1.400   .     A
C313   H324    1.083   .     S
C313   C315    1.400   .     A
C315   C140    1.443   1_565 S
C316   H325    1.082   .     S
C316   C318    1.402   .     A
C317   H326    1.082   .     S
C317   C319    1.402   .     A
C318   N337    1.374   .     A
C319   N338    1.375   .     A
C320   H327    1.081   .     S
C320   C322    1.413   .     A
C320   N337    1.364   .     A
C321   H328    1.081   .     S
C321   N338    1.365   .     A
H323   C185    1.088   1_655 S
N337   Zn348   2.013   .     S
N338   Zn347   2.013   .     S
O339   Zn347   1.997   .     S
O340   Zn348   1.997   .     S
O341   Zn348   2.004   .     S
O342   Zn347   2.004   .     S
O343   Zn347   1.964   .     S
O344   Zn348   1.964   .     S
O345   Zn348   1.981   .     S
O346   Zn347   1.981   .     S
Br349  C376    1.911   .     S
Br350  C377    1.912   .     S
Br351  C380    1.920   .     S
Br352  C354    1.921   .     S
C353   O397    1.288   .     A
C353   C366    1.437   .     S
C353   O399    1.290   .     A
C354   C379    1.414   .     A
C354   C356    1.421   .     A
C355   C374    1.400   .     A
C355   C380    1.421   .     A
C356   C375    1.400   .     A
C356   C7      1.516   1_556 S
C357   O403    1.284   .     A
C357   C359    1.403   .     S
C357   O401    1.277   .     A
C358   O404    1.284   .     A
C358   C360    1.403   .     S
C358   O402    1.277   .     A
C359   C476    1.333   1_455 S
C359   H497    1.088   1_455 S
C360   C417    1.333   .     S
C360   H445    1.088   .     S
C361   C363    1.380   .     A
C361   H388    1.083   .     S
C361   C372    1.399   .     A
C362   C373    1.398   .     A
C362   C365    1.380   .     A
C362   H389    1.084   .     S
C363   C366    1.399   .     A
C363   H390    1.084   .     S
C364   O398    1.288   .     A
C364   C367    1.438   .     S
C364   O400    1.290   .     A
C365   H391    1.084   .     S
C365   C367    1.400   .     A
C366   C368    1.399   .     A
C367   C369    1.399   .     A
C368   H392    1.084   .     S
C368   C370    1.381   .     A
C369   C371    1.381   .     A
C369   H393    1.084   .     S
C370   H394    1.083   .     S
C370   C372    1.400   .     A
C371   H382    1.083   .     S
C371   C373    1.400   .     A
C372   C547    1.443   1_545 S
C373   C546    1.443   .     S
C374   H383    1.082   .     S
C374   C376    1.402   .     A
C375   H384    1.082   .     S
C375   C377    1.402   .     A
C376   N395    1.374   .     A
C377   N396    1.375   .     A
C378   H385    1.081   .     S
C378   C380    1.413   .     A
C378   N395    1.364   .     A
C379   H386    1.081   .     S
C379   N396    1.365   .     A
H381   C417    1.088   .     S
H387   C476    1.088   1_455 S
N395   Zn406   2.013   .     S
N396   Zn405   2.013   .     S
O397   Zn405   1.997   .     S
O398   Zn406   1.997   .     S
O399   Zn406   2.004   .     S
O400   Zn405   2.004   .     S
O401   Zn405   1.964   .     S
O402   Zn406   1.964   .     S
O403   Zn406   1.981   .     S
O404   Zn405   1.981   .     S
Br407  C434    1.911   .     S
Br408  C435    1.912   .     S
Br409  C438    1.920   .     S
Br410  C412    1.921   .     S
C411   O455    1.288   .     A
C411   C424    1.437   .     S
C411   O457    1.290   .     A
C412   C437    1.414   .     A
C412   C414    1.421   .     A
C413   C432    1.400   .     A
C413   C438    1.421   .     A
C414   C433    1.400   .     A
C414   C65     1.516   1_556 S
C415   O461    1.284   .     A
C415   C417    1.403   .     S
C415   O459    1.277   .     A
C416   O462    1.284   .     A
C416   C418    1.403   .     S
C416   O460    1.277   .     A
C418   C475    1.333   .     S
C418   H503    1.088   .     S
C419   C421    1.380   .     A
C419   H446    1.083   .     S
C419   C430    1.399   .     A
C420   C431    1.398   .     A
C420   C423    1.380   .     A
C420   H447    1.084   .     S
C421   C424    1.399   .     A
C421   H448    1.084   .     S
C422   O456    1.288   .     A
C422   C425    1.438   .     S
C422   O458    1.290   .     A
C423   H449    1.084   .     S
C423   C425    1.400   .     A
C424   C426    1.399   .     A
C425   C427    1.399   .     A
C426   H450    1.084   .     S
C426   C428    1.381   .     A
C427   C429    1.381   .     A
C427   H451    1.084   .     S
C428   H452    1.083   .     S
C428   C430    1.400   .     A
C429   H440    1.083   .     S
C429   C431    1.400   .     A
C430   C605    1.443   1_545 S
C431   C604    1.443   .     S
C432   H441    1.082   .     S
C432   C434    1.402   .     A
C433   H442    1.082   .     S
C433   C435    1.402   .     A
C434   N453    1.374   .     A
C435   N454    1.375   .     A
C436   H443    1.081   .     S
C436   C438    1.413   .     A
C436   N453    1.364   .     A
C437   H444    1.081   .     S
C437   N454    1.365   .     A
H439   C475    1.088   .     S
N453   Zn464   2.013   .     S
N454   Zn463   2.013   .     S
O455   Zn463   1.997   .     S
O456   Zn464   1.997   .     S
O457   Zn464   2.004   .     S
O458   Zn463   2.004   .     S
O459   Zn463   1.964   .     S
O460   Zn464   1.964   .     S
O461   Zn464   1.981   .     S
O462   Zn463   1.981   .     S
Br465  C492    1.911   .     S
Br466  C493    1.912   .     S
Br467  C496    1.920   .     S
Br468  C470    1.921   .     S
C469   O513    1.288   .     A
C469   C482    1.437   .     S
C469   O515    1.290   .     A
C470   C495    1.414   .     A
C470   C472    1.421   .     A
C471   C490    1.400   .     A
C471   C496    1.421   .     A
C472   C491    1.400   .     A
C472   C123    1.516   1_556 S
C473   O519    1.284   .     A
C473   C475    1.403   .     S
C473   O517    1.277   .     A
C474   O520    1.284   .     A
C474   C476    1.403   .     S
C474   O518    1.277   .     A
C476   C359    1.333   1_655 S
C476   H387    1.088   1_655 S
C477   C479    1.380   .     A
C477   H504    1.083   .     S
C477   C488    1.399   .     A
C478   C489    1.398   .     A
C478   C481    1.380   .     A
C478   H505    1.084   .     S
C479   C482    1.399   .     A
C479   H506    1.084   .     S
C480   O514    1.288   .     A
C480   C483    1.438   .     S
C480   O516    1.290   .     A
C481   H507    1.084   .     S
C481   C483    1.400   .     A
C482   C484    1.399   .     A
C483   C485    1.399   .     A
C484   H508    1.084   .     S
C484   C486    1.381   .     A
C485   C487    1.381   .     A
C485   H509    1.084   .     S
C486   H510    1.083   .     S
C486   C488    1.400   .     A
C487   H498    1.083   .     S
C487   C489    1.400   .     A
C488   C663    1.443   1_545 S
C489   C662    1.443   .     S
C490   H499    1.082   .     S
C490   C492    1.402   .     A
C491   H500    1.082   .     S
C491   C493    1.402   .     A
C492   N511    1.374   .     A
C493   N512    1.375   .     A
C494   H501    1.081   .     S
C494   C496    1.413   .     A
C494   N511    1.364   .     A
C495   H502    1.081   .     S
C495   N512    1.365   .     A
H497   C359    1.088   1_655 S
N511   Zn522   2.013   .     S
N512   Zn521   2.013   .     S
O513   Zn521   1.997   .     S
O514   Zn522   1.997   .     S
O515   Zn522   2.004   .     S
O516   Zn521   2.004   .     S
O517   Zn521   1.964   .     S
O518   Zn522   1.964   .     S
O519   Zn522   1.981   .     S
O520   Zn521   1.981   .     S
Br523  C550    1.911   .     S
Br524  C551    1.912   .     S
Br525  C554    1.920   .     S
Br526  C528    1.921   .     S
C527   O571    1.288   .     A
C527   C540    1.437   .     S
C527   O573    1.290   .     A
C528   C553    1.414   .     A
C528   C530    1.421   .     A
C529   C548    1.400   .     A
C529   C554    1.421   .     A
C530   C549    1.400   .     A
C530   C181    1.516   1_556 S
C531   O577    1.284   .     A
C531   C533    1.403   .     S
C531   O575    1.277   .     A
C532   O578    1.284   .     A
C532   C534    1.403   .     S
C532   O576    1.277   .     A
C533   C650    1.333   1_455 S
C533   H671    1.088   1_455 S
C534   C591    1.333   .     S
C534   H619    1.088   .     S
C535   C537    1.380   .     A
C535   H562    1.083   .     S
C535   C546    1.399   .     A
C536   C547    1.398   .     A
C536   C539    1.380   .     A
C536   H563    1.084   .     S
C537   C540    1.399   .     A
C537   H564    1.084   .     S
C538   O572    1.288   .     A
C538   C541    1.438   .     S
C538   O574    1.290   .     A
C539   H565    1.084   .     S
C539   C541    1.400   .     A
C540   C542    1.399   .     A
C541   C543    1.399   .     A
C542   H566    1.084   .     S
C542   C544    1.381   .     A
C543   C545    1.381   .     A
C543   H567    1.084   .     S
C544   H568    1.083   .     S
C544   C546    1.400   .     A
C545   H556    1.083   .     S
C545   C547    1.400   .     A
C547   C372    1.443   1_565 S
C548   H557    1.082   .     S
C548   C550    1.402   .     A
C549   H558    1.082   .     S
C549   C551    1.402   .     A
C550   N569    1.374   .     A
C551   N570    1.375   .     A
C552   H559    1.081   .     S
C552   C554    1.413   .     A
C552   N569    1.364   .     A
C553   H560    1.081   .     S
C553   N570    1.365   .     A
H555   C591    1.088   .     S
H561   C650    1.088   1_455 S
N569   Zn580   2.013   .     S
N570   Zn579   2.013   .     S
O571   Zn579   1.997   .     S
O572   Zn580   1.997   .     S
O573   Zn580   2.004   .     S
O574   Zn579   2.004   .     S
O575   Zn579   1.964   .     S
O576   Zn580   1.964   .     S
O577   Zn580   1.981   .     S
O578   Zn579   1.981   .     S
Br581  C608    1.911   .     S
Br582  C609    1.912   .     S
Br583  C612    1.920   .     S
Br584  C586    1.921   .     S
C585   O629    1.288   .     A
C585   C598    1.437   .     S
C585   O631    1.290   .     A
C586   C611    1.414   .     A
C586   C588    1.421   .     A
C587   C606    1.400   .     A
C587   C612    1.421   .     A
C588   C607    1.400   .     A
C588   C239    1.516   1_556 S
C589   O635    1.284   .     A
C589   C591    1.403   .     S
C589   O633    1.277   .     A
C590   O636    1.284   .     A
C590   C592    1.403   .     S
C590   O634    1.277   .     A
C592   C649    1.333   .     S
C592   H677    1.088   .     S
C593   C595    1.380   .     A
C593   H620    1.083   .     S
C593   C604    1.399   .     A
C594   C605    1.398   .     A
C594   C597    1.380   .     A
C594   H621    1.084   .     S
C595   C598    1.399   .     A
C595   H622    1.084   .     S
C596   O630    1.288   .     A
C596   C599    1.438   .     S
C596   O632    1.290   .     A
C597   H623    1.084   .     S
C597   C599    1.400   .     A
C598   C600    1.399   .     A
C599   C601    1.399   .     A
C600   H624    1.084   .     S
C600   C602    1.381   .     A
C601   C603    1.381   .     A
C601   H625    1.084   .     S
C602   H626    1.083   .     S
C602   C604    1.400   .     A
C603   H614    1.083   .     S
C603   C605    1.400   .     A
C605   C430    1.443   1_565 S
C606   H615    1.082   .     S
C606   C608    1.402   .     A
C607   H616    1.082   .     S
C607   C609    1.402   .     A
C608   N627    1.374   .     A
C609   N628    1.375   .     A
C610   H617    1.081   .     S
C610   C612    1.413   .     A
C610   N627    1.364   .     A
C611   H618    1.081   .     S
C611   N628    1.365   .     A
H613   C649    1.088   .     S
N627   Zn638   2.013   .     S
N628   Zn637   2.013   .     S
O629   Zn637   1.997   .     S
O630   Zn638   1.997   .     S
O631   Zn638   2.004   .     S
O632   Zn637   2.004   .     S
O633   Zn637   1.964   .     S
O634   Zn638   1.964   .     S
O635   Zn638   1.981   .     S
O636   Zn637   1.981   .     S
Br639  C666    1.911   .     S
Br640  C667    1.912   .     S
Br641  C670    1.920   .     S
Br642  C644    1.921   .     S
C643   O687    1.288   .     A
C643   C656    1.437   .     S
C643   O689    1.290   .     A
C644   C669    1.414   .     A
C644   C646    1.421   .     A
C645   C664    1.400   .     A
C645   C670    1.421   .     A
C646   C665    1.400   .     A
C646   C297    1.516   1_556 S
C647   O693    1.284   .     A
C647   C649    1.403   .     S
C647   O691    1.277   .     A
C648   O694    1.284   .     A
C648   C650    1.403   .     S
C648   O692    1.277   .     A
C650   C533    1.333   1_655 S
C650   H561    1.088   1_655 S
C651   C653    1.380   .     A
C651   H678    1.083   .     S
C651   C662    1.399   .     A
C652   C663    1.398   .     A
C652   C655    1.380   .     A
C652   H679    1.084   .     S
C653   C656    1.399   .     A
C653   H680    1.084   .     S
C654   O688    1.288   .     A
C654   C657    1.438   .     S
C654   O690    1.290   .     A
C655   H681    1.084   .     S
C655   C657    1.400   .     A
C656   C658    1.399   .     A
C657   C659    1.399   .     A
C658   H682    1.084   .     S
C658   C660    1.381   .     A
C659   C661    1.381   .     A
C659   H683    1.084   .     S
C660   H684    1.083   .     S
C660   C662    1.400   .     A
C661   H672    1.083   .     S
C661   C663    1.400   .     A
C663   C488    1.443   1_565 S
C664   H673    1.082   .     S
C664   C666    1.402   .     A
C665   H674    1.082   .     S
C665   C667    1.402   .     A
C666   N685    1.374   .     A
C667   N686    1.375   .     A
C668   H675    1.081   .     S
C668   C670    1.413   .     A
C668   N685    1.364   .     A
C669   H676    1.081   .     S
C669   N686    1.365   .     A
H671   C533    1.088   1_655 S
N685   Zn696   2.013   .     S
N686   Zn695   2.013   .     S
O687   Zn695   1.997   .     S
O688   Zn696   1.997   .     S
O689   Zn696   2.004   .     S
O690   Zn695   2.004   .     S
O691   Zn695   1.964   .     S
O692   Zn696   1.964   .     S
O693   Zn696   1.981   .     S
O694   Zn695   1.981   .     S
