data_str_m3_o1_o2_pcu_sym.82
_audit_creation_date              2020-01-03
_audit_creation_method            'Materials Studio'
_symmetry_space_group_name_H-M    'P1'
_symmetry_Int_Tables_number       1
_symmetry_cell_setting            triclinic
loop_
_symmetry_equiv_pos_as_xyz
  x,y,z
_cell_length_a                    32.1600
_cell_length_b                    29.4981
_cell_length_c                    30.0183
_cell_angle_alpha                 89.9961
_cell_angle_beta                  90.1185
_cell_angle_gamma                 89.9898
loop_
_atom_site_label
_atom_site_type_symbol
_atom_site_fract_x
_atom_site_fract_y
_atom_site_fract_z
_atom_site_U_iso_or_equiv
_atom_site_adp_type
_atom_site_occupancy
C1     C     0.08661   0.16667   0.24997   0.00000  Uiso   1.00
C2     C     0.31204   0.20725   0.25786   0.00000  Uiso   1.00
C3     C     0.31203   0.12608   0.24219   0.00000  Uiso   1.00
C4     C     0.02131   0.20725   0.25781   0.00000  Uiso   1.00
C5     C     0.18089   0.20475   0.04705   0.00000  Uiso   1.00
C6     C     0.18093   0.12853   0.45301   0.00000  Uiso   1.00
C7     C     0.15187   0.20472   0.45288   0.00000  Uiso   1.00
C8     C     0.15181   0.12858   0.04706   0.00000  Uiso   1.00
C9     C     0.18075   0.20487   0.09303   0.00000  Uiso   1.00
C10    C     0.18083   0.12844   0.40703   0.00000  Uiso   1.00
C11    C     0.15223   0.20485   0.40690   0.00000  Uiso   1.00
C12    C     0.24672   0.16666   0.25003   0.00000  Uiso   1.00
C13    C     0.15213   0.12847   0.09305   0.00000  Uiso   1.00
C14    C     0.16650   0.16667   0.11601   0.00000  Uiso   1.00
C15    C     0.16660   0.16666   0.38399   0.00000  Uiso   1.00
C16    C     0.16632   0.16665   0.02405   0.00000  Uiso   1.00
C17    C     0.16634   0.16662   0.47595   0.00000  Uiso   1.00
C18    C     0.29086   0.16666   0.25004   0.00000  Uiso   1.00
C19    C     0.04247   0.16667   0.24996   0.00000  Uiso   1.00
C20    C     0.16662   0.16667   0.16390   0.00000  Uiso   1.00
C21    C     0.16668   0.16666   0.33610   0.00000  Uiso   1.00
C22    C     0.19296   0.02399   0.27725   0.00000  Uiso   1.00
C23    C     0.14037   0.30935   0.22276   0.00000  Uiso   1.00
C24    C     0.14037   0.02400   0.22275   0.00000  Uiso   1.00
C25    C     0.19296   0.30933   0.27724   0.00000  Uiso   1.00
C26    C     0.02129   0.12609   0.24214   0.00000  Uiso   1.00
H27    H     0.21397   0.04219   0.29903   0.00000  Uiso   1.00
H28    H     0.19274   0.09917   0.47066   0.00000  Uiso   1.00
H29    H     0.13999   0.23407   0.47042   0.00000  Uiso   1.00
H30    H     0.13994   0.09922   0.02946   0.00000  Uiso   1.00
H31    H     0.19226   0.23444   0.11055   0.00000  Uiso   1.00
H32    H     0.19236   0.09887   0.38955   0.00000  Uiso   1.00
H33    H     0.14080   0.23444   0.38933   0.00000  Uiso   1.00
H34    H     0.14067   0.09891   0.11058   0.00000  Uiso   1.00
H35    H     0.11936   0.29115   0.20099   0.00000  Uiso   1.00
H36    H     0.11936   0.04222   0.20098   0.00000  Uiso   1.00
H37    H     0.21398   0.29112   0.29901   0.00000  Uiso   1.00
H38    H     0.03749   0.09454   0.23575   0.00000  Uiso   1.00
H39    H     0.29584   0.23879   0.26425   0.00000  Uiso   1.00
H40    H     0.29581   0.09452   0.23585   0.00000  Uiso   1.00
H41    H     0.03753   0.23881   0.26415   0.00000  Uiso   1.00
H42    H     0.19272   0.23409   0.02945   0.00000  Uiso   1.00
N43    N     0.16667   0.28573   0.25000   0.00000  Uiso   1.00
N44    N     0.16667   0.04760   0.25000   0.00000  Uiso   1.00
O45    O     0.10559   0.20487   0.25000   0.00000  Uiso   1.00
O46    O     0.22774   0.12846   0.25001   0.00000  Uiso   1.00
O47    O     0.22774   0.20487   0.25001   0.00000  Uiso   1.00
O48    O     0.10559   0.12846   0.25000   0.00000  Uiso   1.00
O49    O     0.16666   0.20489   0.18453   0.00000  Uiso   1.00
O50    O     0.16667   0.12845   0.31547   0.00000  Uiso   1.00
O51    O     0.16667   0.20489   0.31547   0.00000  Uiso   1.00
O52    O     0.16666   0.12845   0.18453   0.00000  Uiso   1.00
Zn53   Zn    0.16667   0.21771   0.25000   0.00000  Uiso   1.00
Zn54   Zn    0.16667   0.11563   0.25000   0.00000  Uiso   1.00
C55    C     0.41995   0.16667   0.24997   0.00000  Uiso   1.00
C56    C     0.64538   0.20725   0.25786   0.00000  Uiso   1.00
C57    C     0.64536   0.12608   0.24219   0.00000  Uiso   1.00
C58    C     0.35464   0.20725   0.25781   0.00000  Uiso   1.00
C59    C     0.51422   0.20475   0.04705   0.00000  Uiso   1.00
C60    C     0.51426   0.12853   0.45301   0.00000  Uiso   1.00
C61    C     0.48520   0.20472   0.45288   0.00000  Uiso   1.00
C62    C     0.48514   0.12858   0.04706   0.00000  Uiso   1.00
C63    C     0.51408   0.20487   0.09303   0.00000  Uiso   1.00
C64    C     0.51417   0.12844   0.40703   0.00000  Uiso   1.00
C65    C     0.48556   0.20485   0.40690   0.00000  Uiso   1.00
C66    C     0.58005   0.16666   0.25003   0.00000  Uiso   1.00
C67    C     0.48546   0.12847   0.09305   0.00000  Uiso   1.00
C68    C     0.49984   0.16667   0.11601   0.00000  Uiso   1.00
C69    C     0.49993   0.16666   0.38399   0.00000  Uiso   1.00
C70    C     0.49965   0.16665   0.02405   0.00000  Uiso   1.00
C71    C     0.49967   0.16662   0.47595   0.00000  Uiso   1.00
C72    C     0.62420   0.16666   0.25004   0.00000  Uiso   1.00
C73    C     0.37580   0.16667   0.24996   0.00000  Uiso   1.00
C74    C     0.49995   0.16667   0.16390   0.00000  Uiso   1.00
C75    C     0.50001   0.16666   0.33610   0.00000  Uiso   1.00
C76    C     0.52629   0.02399   0.27725   0.00000  Uiso   1.00
C77    C     0.47370   0.30935   0.22276   0.00000  Uiso   1.00
C78    C     0.47371   0.02400   0.22275   0.00000  Uiso   1.00
C79    C     0.52630   0.30933   0.27724   0.00000  Uiso   1.00
C80    C     0.35462   0.12609   0.24214   0.00000  Uiso   1.00
H81    H     0.54730   0.04219   0.29903   0.00000  Uiso   1.00
H82    H     0.52607   0.09917   0.47066   0.00000  Uiso   1.00
H83    H     0.47332   0.23407   0.47042   0.00000  Uiso   1.00
H84    H     0.47328   0.09922   0.02946   0.00000  Uiso   1.00
H85    H     0.52560   0.23444   0.11055   0.00000  Uiso   1.00
H86    H     0.52570   0.09887   0.38955   0.00000  Uiso   1.00
H87    H     0.47413   0.23444   0.38933   0.00000  Uiso   1.00
H88    H     0.47401   0.09891   0.11058   0.00000  Uiso   1.00
H89    H     0.45269   0.29115   0.20099   0.00000  Uiso   1.00
H90    H     0.45270   0.04222   0.20098   0.00000  Uiso   1.00
H91    H     0.54731   0.29112   0.29901   0.00000  Uiso   1.00
H92    H     0.37083   0.09454   0.23575   0.00000  Uiso   1.00
H93    H     0.62917   0.23879   0.26425   0.00000  Uiso   1.00
H94    H     0.62914   0.09452   0.23585   0.00000  Uiso   1.00
H95    H     0.37086   0.23881   0.26415   0.00000  Uiso   1.00
H96    H     0.52605   0.23409   0.02945   0.00000  Uiso   1.00
N97    N     0.50000   0.28573   0.25000   0.00000  Uiso   1.00
N98    N     0.50000   0.04760   0.25000   0.00000  Uiso   1.00
O99    O     0.43892   0.20487   0.25000   0.00000  Uiso   1.00
O100   O     0.56108   0.12846   0.25001   0.00000  Uiso   1.00
O101   O     0.56108   0.20487   0.25001   0.00000  Uiso   1.00
O102   O     0.43892   0.12846   0.25000   0.00000  Uiso   1.00
O103   O     0.50000   0.20489   0.18453   0.00000  Uiso   1.00
O104   O     0.50000   0.12845   0.31547   0.00000  Uiso   1.00
O105   O     0.50000   0.20489   0.31547   0.00000  Uiso   1.00
O106   O     0.50000   0.12845   0.18453   0.00000  Uiso   1.00
Zn107  Zn    0.50000   0.21771   0.25000   0.00000  Uiso   1.00
Zn108  Zn    0.50000   0.11563   0.25000   0.00000  Uiso   1.00
C109   C     0.75328   0.16667   0.24997   0.00000  Uiso   1.00
C110   C     0.97871   0.20725   0.25786   0.00000  Uiso   1.00
C111   C     0.97869   0.12608   0.24219   0.00000  Uiso   1.00
C112   C     0.68797   0.20725   0.25781   0.00000  Uiso   1.00
C113   C     0.84755   0.20475   0.04705   0.00000  Uiso   1.00
C114   C     0.84760   0.12853   0.45301   0.00000  Uiso   1.00
C115   C     0.81853   0.20472   0.45288   0.00000  Uiso   1.00
C116   C     0.81848   0.12858   0.04706   0.00000  Uiso   1.00
C117   C     0.84741   0.20487   0.09303   0.00000  Uiso   1.00
C118   C     0.84750   0.12844   0.40703   0.00000  Uiso   1.00
C119   C     0.81890   0.20485   0.40690   0.00000  Uiso   1.00
C120   C     0.91339   0.16666   0.25003   0.00000  Uiso   1.00
C121   C     0.81879   0.12847   0.09305   0.00000  Uiso   1.00
C122   C     0.83317   0.16667   0.11601   0.00000  Uiso   1.00
C123   C     0.83327   0.16666   0.38399   0.00000  Uiso   1.00
C124   C     0.83299   0.16665   0.02405   0.00000  Uiso   1.00
C125   C     0.83301   0.16662   0.47595   0.00000  Uiso   1.00
C126   C     0.95753   0.16666   0.25004   0.00000  Uiso   1.00
C127   C     0.70914   0.16667   0.24996   0.00000  Uiso   1.00
C128   C     0.83329   0.16667   0.16390   0.00000  Uiso   1.00
C129   C     0.83335   0.16666   0.33610   0.00000  Uiso   1.00
C130   C     0.85963   0.02399   0.27725   0.00000  Uiso   1.00
C131   C     0.80704   0.30935   0.22276   0.00000  Uiso   1.00
C132   C     0.80704   0.02400   0.22275   0.00000  Uiso   1.00
C133   C     0.85963   0.30933   0.27724   0.00000  Uiso   1.00
C134   C     0.68796   0.12609   0.24214   0.00000  Uiso   1.00
H135   H     0.88063   0.04219   0.29903   0.00000  Uiso   1.00
H136   H     0.85940   0.09917   0.47066   0.00000  Uiso   1.00
H137   H     0.80665   0.23407   0.47042   0.00000  Uiso   1.00
H138   H     0.80661   0.09922   0.02946   0.00000  Uiso   1.00
H139   H     0.85893   0.23444   0.11055   0.00000  Uiso   1.00
H140   H     0.85903   0.09887   0.38955   0.00000  Uiso   1.00
H141   H     0.80747   0.23444   0.38933   0.00000  Uiso   1.00
H142   H     0.80734   0.09891   0.11058   0.00000  Uiso   1.00
H143   H     0.78602   0.29115   0.20099   0.00000  Uiso   1.00
H144   H     0.78603   0.04222   0.20098   0.00000  Uiso   1.00
H145   H     0.88065   0.29112   0.29901   0.00000  Uiso   1.00
H146   H     0.70416   0.09454   0.23575   0.00000  Uiso   1.00
H147   H     0.96251   0.23879   0.26425   0.00000  Uiso   1.00
H148   H     0.96248   0.09452   0.23585   0.00000  Uiso   1.00
H149   H     0.70419   0.23881   0.26415   0.00000  Uiso   1.00
H150   H     0.85938   0.23409   0.02945   0.00000  Uiso   1.00
N151   N     0.83333   0.28573   0.25000   0.00000  Uiso   1.00
N152   N     0.83333   0.04760   0.25000   0.00000  Uiso   1.00
O153   O     0.77226   0.20487   0.25000   0.00000  Uiso   1.00
O154   O     0.89441   0.12846   0.25001   0.00000  Uiso   1.00
O155   O     0.89441   0.20487   0.25001   0.00000  Uiso   1.00
O156   O     0.77226   0.12846   0.25000   0.00000  Uiso   1.00
O157   O     0.83333   0.20489   0.18453   0.00000  Uiso   1.00
O158   O     0.83334   0.12845   0.31547   0.00000  Uiso   1.00
O159   O     0.83334   0.20489   0.31547   0.00000  Uiso   1.00
O160   O     0.83333   0.12845   0.18453   0.00000  Uiso   1.00
Zn161  Zn    0.83333   0.21771   0.25000   0.00000  Uiso   1.00
Zn162  Zn    0.83333   0.11563   0.25000   0.00000  Uiso   1.00
C163   C     0.08661   0.50000   0.24997   0.00000  Uiso   1.00
C164   C     0.31204   0.54058   0.25786   0.00000  Uiso   1.00
C165   C     0.31203   0.45941   0.24219   0.00000  Uiso   1.00
C166   C     0.02131   0.54059   0.25781   0.00000  Uiso   1.00
C167   C     0.18089   0.53808   0.04705   0.00000  Uiso   1.00
C168   C     0.18093   0.46186   0.45301   0.00000  Uiso   1.00
C169   C     0.15187   0.53805   0.45288   0.00000  Uiso   1.00
C170   C     0.15181   0.46191   0.04706   0.00000  Uiso   1.00
C171   C     0.18075   0.53820   0.09303   0.00000  Uiso   1.00
C172   C     0.18083   0.46177   0.40703   0.00000  Uiso   1.00
C173   C     0.15223   0.53818   0.40690   0.00000  Uiso   1.00
C174   C     0.24672   0.50000   0.25003   0.00000  Uiso   1.00
C175   C     0.15213   0.46181   0.09305   0.00000  Uiso   1.00
C176   C     0.16650   0.50000   0.11601   0.00000  Uiso   1.00
C177   C     0.16660   0.49999   0.38399   0.00000  Uiso   1.00
C178   C     0.16632   0.49999   0.02405   0.00000  Uiso   1.00
C179   C     0.16634   0.49995   0.47595   0.00000  Uiso   1.00
C180   C     0.29086   0.49999   0.25004   0.00000  Uiso   1.00
C181   C     0.04247   0.50001   0.24996   0.00000  Uiso   1.00
C182   C     0.16662   0.50000   0.16390   0.00000  Uiso   1.00
C183   C     0.16668   0.50000   0.33610   0.00000  Uiso   1.00
C184   C     0.19296   0.35732   0.27725   0.00000  Uiso   1.00
C185   C     0.14037   0.64268   0.22276   0.00000  Uiso   1.00
C186   C     0.14037   0.35734   0.22275   0.00000  Uiso   1.00
C187   C     0.19296   0.64267   0.27724   0.00000  Uiso   1.00
C188   C     0.02129   0.45942   0.24214   0.00000  Uiso   1.00
H189   H     0.21397   0.37552   0.29903   0.00000  Uiso   1.00
H190   H     0.19274   0.43250   0.47066   0.00000  Uiso   1.00
H191   H     0.13999   0.56741   0.47042   0.00000  Uiso   1.00
H192   H     0.13994   0.43255   0.02946   0.00000  Uiso   1.00
H193   H     0.19226   0.56777   0.11055   0.00000  Uiso   1.00
H194   H     0.19236   0.43220   0.38955   0.00000  Uiso   1.00
H195   H     0.14080   0.56777   0.38933   0.00000  Uiso   1.00
H196   H     0.14067   0.43224   0.11058   0.00000  Uiso   1.00
H197   H     0.11936   0.62448   0.20099   0.00000  Uiso   1.00
H198   H     0.11936   0.37555   0.20098   0.00000  Uiso   1.00
H199   H     0.21398   0.62445   0.29901   0.00000  Uiso   1.00
H200   H     0.03749   0.42787   0.23575   0.00000  Uiso   1.00
H201   H     0.29584   0.57213   0.26425   0.00000  Uiso   1.00
H202   H     0.29581   0.42786   0.23585   0.00000  Uiso   1.00
H203   H     0.03753   0.57214   0.26415   0.00000  Uiso   1.00
H204   H     0.19272   0.56743   0.02945   0.00000  Uiso   1.00
N205   N     0.16667   0.61907   0.25000   0.00000  Uiso   1.00
N206   N     0.16667   0.38093   0.25000   0.00000  Uiso   1.00
O207   O     0.10559   0.53821   0.25000   0.00000  Uiso   1.00
O208   O     0.22774   0.46179   0.25001   0.00000  Uiso   1.00
O209   O     0.22774   0.53821   0.25001   0.00000  Uiso   1.00
O210   O     0.10559   0.46179   0.25000   0.00000  Uiso   1.00
O211   O     0.16666   0.53822   0.18453   0.00000  Uiso   1.00
O212   O     0.16667   0.46178   0.31547   0.00000  Uiso   1.00
O213   O     0.16667   0.53822   0.31547   0.00000  Uiso   1.00
O214   O     0.16666   0.46178   0.18453   0.00000  Uiso   1.00
Zn215  Zn    0.16667   0.55104   0.25000   0.00000  Uiso   1.00
Zn216  Zn    0.16667   0.44896   0.25000   0.00000  Uiso   1.00
C217   C     0.41995   0.50000   0.24997   0.00000  Uiso   1.00
C218   C     0.64538   0.54058   0.25786   0.00000  Uiso   1.00
C219   C     0.64536   0.45941   0.24219   0.00000  Uiso   1.00
C220   C     0.35464   0.54059   0.25781   0.00000  Uiso   1.00
C221   C     0.51422   0.53808   0.04705   0.00000  Uiso   1.00
C222   C     0.51426   0.46186   0.45301   0.00000  Uiso   1.00
C223   C     0.48520   0.53805   0.45288   0.00000  Uiso   1.00
C224   C     0.48514   0.46191   0.04706   0.00000  Uiso   1.00
C225   C     0.51408   0.53820   0.09303   0.00000  Uiso   1.00
C226   C     0.51417   0.46177   0.40703   0.00000  Uiso   1.00
C227   C     0.48556   0.53818   0.40690   0.00000  Uiso   1.00
C228   C     0.58005   0.50000   0.25003   0.00000  Uiso   1.00
C229   C     0.48546   0.46181   0.09305   0.00000  Uiso   1.00
C230   C     0.49984   0.50000   0.11601   0.00000  Uiso   1.00
C231   C     0.49993   0.49999   0.38399   0.00000  Uiso   1.00
C232   C     0.49965   0.49999   0.02405   0.00000  Uiso   1.00
C233   C     0.49967   0.49995   0.47595   0.00000  Uiso   1.00
C234   C     0.62420   0.49999   0.25004   0.00000  Uiso   1.00
C235   C     0.37580   0.50001   0.24996   0.00000  Uiso   1.00
C236   C     0.49995   0.50000   0.16390   0.00000  Uiso   1.00
C237   C     0.50001   0.50000   0.33610   0.00000  Uiso   1.00
C238   C     0.52629   0.35732   0.27725   0.00000  Uiso   1.00
C239   C     0.47370   0.64268   0.22276   0.00000  Uiso   1.00
C240   C     0.47371   0.35734   0.22275   0.00000  Uiso   1.00
C241   C     0.52630   0.64267   0.27724   0.00000  Uiso   1.00
C242   C     0.35462   0.45942   0.24214   0.00000  Uiso   1.00
H243   H     0.54730   0.37552   0.29903   0.00000  Uiso   1.00
H244   H     0.52607   0.43250   0.47066   0.00000  Uiso   1.00
H245   H     0.47332   0.56741   0.47042   0.00000  Uiso   1.00
H246   H     0.47328   0.43255   0.02946   0.00000  Uiso   1.00
H247   H     0.52560   0.56777   0.11055   0.00000  Uiso   1.00
H248   H     0.52570   0.43220   0.38955   0.00000  Uiso   1.00
H249   H     0.47413   0.56777   0.38933   0.00000  Uiso   1.00
H250   H     0.47401   0.43224   0.11058   0.00000  Uiso   1.00
H251   H     0.45269   0.62448   0.20099   0.00000  Uiso   1.00
H252   H     0.45270   0.37555   0.20098   0.00000  Uiso   1.00
H253   H     0.54731   0.62445   0.29901   0.00000  Uiso   1.00
H254   H     0.37083   0.42787   0.23575   0.00000  Uiso   1.00
H255   H     0.62917   0.57213   0.26425   0.00000  Uiso   1.00
H256   H     0.62914   0.42786   0.23585   0.00000  Uiso   1.00
H257   H     0.37086   0.57214   0.26415   0.00000  Uiso   1.00
H258   H     0.52605   0.56743   0.02945   0.00000  Uiso   1.00
N259   N     0.50000   0.61907   0.25000   0.00000  Uiso   1.00
N260   N     0.50000   0.38093   0.25000   0.00000  Uiso   1.00
O261   O     0.43892   0.53821   0.25000   0.00000  Uiso   1.00
O262   O     0.56108   0.46179   0.25001   0.00000  Uiso   1.00
O263   O     0.56108   0.53821   0.25001   0.00000  Uiso   1.00
O264   O     0.43892   0.46179   0.25000   0.00000  Uiso   1.00
O265   O     0.50000   0.53822   0.18453   0.00000  Uiso   1.00
O266   O     0.50000   0.46178   0.31547   0.00000  Uiso   1.00
O267   O     0.50000   0.53822   0.31547   0.00000  Uiso   1.00
O268   O     0.50000   0.46178   0.18453   0.00000  Uiso   1.00
Zn269  Zn    0.50000   0.55104   0.25000   0.00000  Uiso   1.00
Zn270  Zn    0.50000   0.44896   0.25000   0.00000  Uiso   1.00
C271   C     0.75328   0.50000   0.24997   0.00000  Uiso   1.00
C272   C     0.97871   0.54058   0.25786   0.00000  Uiso   1.00
C273   C     0.97869   0.45941   0.24219   0.00000  Uiso   1.00
C274   C     0.68797   0.54059   0.25781   0.00000  Uiso   1.00
C275   C     0.84755   0.53808   0.04705   0.00000  Uiso   1.00
C276   C     0.84760   0.46186   0.45301   0.00000  Uiso   1.00
C277   C     0.81853   0.53805   0.45288   0.00000  Uiso   1.00
C278   C     0.81848   0.46191   0.04706   0.00000  Uiso   1.00
C279   C     0.84741   0.53820   0.09303   0.00000  Uiso   1.00
C280   C     0.84750   0.46177   0.40703   0.00000  Uiso   1.00
C281   C     0.81890   0.53818   0.40690   0.00000  Uiso   1.00
C282   C     0.91339   0.50000   0.25003   0.00000  Uiso   1.00
C283   C     0.81879   0.46181   0.09305   0.00000  Uiso   1.00
C284   C     0.83317   0.50000   0.11601   0.00000  Uiso   1.00
C285   C     0.83327   0.49999   0.38399   0.00000  Uiso   1.00
C286   C     0.83299   0.49999   0.02405   0.00000  Uiso   1.00
C287   C     0.83301   0.49995   0.47595   0.00000  Uiso   1.00
C288   C     0.95753   0.49999   0.25004   0.00000  Uiso   1.00
C289   C     0.70914   0.50001   0.24996   0.00000  Uiso   1.00
C290   C     0.83329   0.50000   0.16390   0.00000  Uiso   1.00
C291   C     0.83335   0.50000   0.33610   0.00000  Uiso   1.00
C292   C     0.85963   0.35732   0.27725   0.00000  Uiso   1.00
C293   C     0.80704   0.64268   0.22276   0.00000  Uiso   1.00
C294   C     0.80704   0.35734   0.22275   0.00000  Uiso   1.00
C295   C     0.85963   0.64267   0.27724   0.00000  Uiso   1.00
C296   C     0.68796   0.45942   0.24214   0.00000  Uiso   1.00
H297   H     0.88063   0.37552   0.29903   0.00000  Uiso   1.00
H298   H     0.85940   0.43250   0.47066   0.00000  Uiso   1.00
H299   H     0.80665   0.56741   0.47042   0.00000  Uiso   1.00
H300   H     0.80661   0.43255   0.02946   0.00000  Uiso   1.00
H301   H     0.85893   0.56777   0.11055   0.00000  Uiso   1.00
H302   H     0.85903   0.43220   0.38955   0.00000  Uiso   1.00
H303   H     0.80747   0.56777   0.38933   0.00000  Uiso   1.00
H304   H     0.80734   0.43224   0.11058   0.00000  Uiso   1.00
H305   H     0.78602   0.62448   0.20099   0.00000  Uiso   1.00
H306   H     0.78603   0.37555   0.20098   0.00000  Uiso   1.00
H307   H     0.88065   0.62445   0.29901   0.00000  Uiso   1.00
H308   H     0.70416   0.42787   0.23575   0.00000  Uiso   1.00
H309   H     0.96251   0.57213   0.26425   0.00000  Uiso   1.00
H310   H     0.96248   0.42786   0.23585   0.00000  Uiso   1.00
H311   H     0.70419   0.57214   0.26415   0.00000  Uiso   1.00
H312   H     0.85938   0.56743   0.02945   0.00000  Uiso   1.00
N313   N     0.83333   0.61907   0.25000   0.00000  Uiso   1.00
N314   N     0.83333   0.38093   0.25000   0.00000  Uiso   1.00
O315   O     0.77226   0.53821   0.25000   0.00000  Uiso   1.00
O316   O     0.89441   0.46179   0.25001   0.00000  Uiso   1.00
O317   O     0.89441   0.53821   0.25001   0.00000  Uiso   1.00
O318   O     0.77226   0.46179   0.25000   0.00000  Uiso   1.00
O319   O     0.83333   0.53822   0.18453   0.00000  Uiso   1.00
O320   O     0.83334   0.46178   0.31547   0.00000  Uiso   1.00
O321   O     0.83334   0.53822   0.31547   0.00000  Uiso   1.00
O322   O     0.83333   0.46178   0.18453   0.00000  Uiso   1.00
Zn323  Zn    0.83333   0.55104   0.25000   0.00000  Uiso   1.00
Zn324  Zn    0.83333   0.44896   0.25000   0.00000  Uiso   1.00
C325   C     0.08661   0.83334   0.24997   0.00000  Uiso   1.00
C326   C     0.31204   0.87391   0.25786   0.00000  Uiso   1.00
C327   C     0.31203   0.79274   0.24219   0.00000  Uiso   1.00
C328   C     0.02131   0.87392   0.25781   0.00000  Uiso   1.00
C329   C     0.18089   0.87142   0.04705   0.00000  Uiso   1.00
C330   C     0.18093   0.79519   0.45301   0.00000  Uiso   1.00
C331   C     0.15187   0.87138   0.45288   0.00000  Uiso   1.00
C332   C     0.15181   0.79524   0.04706   0.00000  Uiso   1.00
C333   C     0.18075   0.87154   0.09303   0.00000  Uiso   1.00
C334   C     0.18083   0.79510   0.40703   0.00000  Uiso   1.00
C335   C     0.15223   0.87152   0.40690   0.00000  Uiso   1.00
C336   C     0.24672   0.83333   0.25003   0.00000  Uiso   1.00
C337   C     0.15213   0.79514   0.09305   0.00000  Uiso   1.00
C338   C     0.16650   0.83333   0.11601   0.00000  Uiso   1.00
C339   C     0.16660   0.83332   0.38399   0.00000  Uiso   1.00
C340   C     0.16632   0.83332   0.02405   0.00000  Uiso   1.00
C341   C     0.16634   0.83328   0.47595   0.00000  Uiso   1.00
C342   C     0.29086   0.83333   0.25004   0.00000  Uiso   1.00
C343   C     0.04247   0.83334   0.24996   0.00000  Uiso   1.00
C344   C     0.16662   0.83333   0.16390   0.00000  Uiso   1.00
C345   C     0.16668   0.83333   0.33610   0.00000  Uiso   1.00
C346   C     0.19296   0.69065   0.27725   0.00000  Uiso   1.00
C347   C     0.14037   0.97602   0.22276   0.00000  Uiso   1.00
C348   C     0.14037   0.69067   0.22275   0.00000  Uiso   1.00
C349   C     0.19296   0.97600   0.27724   0.00000  Uiso   1.00
C350   C     0.02129   0.79275   0.24214   0.00000  Uiso   1.00
H351   H     0.21397   0.70886   0.29903   0.00000  Uiso   1.00
H352   H     0.19274   0.76584   0.47066   0.00000  Uiso   1.00
H353   H     0.13999   0.90074   0.47042   0.00000  Uiso   1.00
H354   H     0.13994   0.76589   0.02946   0.00000  Uiso   1.00
H355   H     0.19226   0.90111   0.11055   0.00000  Uiso   1.00
H356   H     0.19236   0.76554   0.38955   0.00000  Uiso   1.00
H357   H     0.14080   0.90110   0.38933   0.00000  Uiso   1.00
H358   H     0.14067   0.76557   0.11058   0.00000  Uiso   1.00
H359   H     0.11936   0.95782   0.20099   0.00000  Uiso   1.00
H360   H     0.11936   0.70888   0.20098   0.00000  Uiso   1.00
H361   H     0.21398   0.95779   0.29901   0.00000  Uiso   1.00
H362   H     0.03749   0.76121   0.23575   0.00000  Uiso   1.00
H363   H     0.29584   0.90546   0.26425   0.00000  Uiso   1.00
H364   H     0.29581   0.76119   0.23585   0.00000  Uiso   1.00
H365   H     0.03753   0.90548   0.26415   0.00000  Uiso   1.00
H366   H     0.19272   0.90076   0.02945   0.00000  Uiso   1.00
N367   N     0.16667   0.95240   0.25000   0.00000  Uiso   1.00
N368   N     0.16667   0.71427   0.25000   0.00000  Uiso   1.00
O369   O     0.10559   0.87154   0.25000   0.00000  Uiso   1.00
O370   O     0.22774   0.79513   0.25001   0.00000  Uiso   1.00
O371   O     0.22774   0.87154   0.25001   0.00000  Uiso   1.00
O372   O     0.10559   0.79513   0.25000   0.00000  Uiso   1.00
O373   O     0.16666   0.87155   0.18453   0.00000  Uiso   1.00
O374   O     0.16667   0.79511   0.31547   0.00000  Uiso   1.00
O375   O     0.16667   0.87155   0.31547   0.00000  Uiso   1.00
O376   O     0.16666   0.79511   0.18453   0.00000  Uiso   1.00
Zn377  Zn    0.16667   0.88437   0.25000   0.00000  Uiso   1.00
Zn378  Zn    0.16667   0.78229   0.25000   0.00000  Uiso   1.00
C379   C     0.41995   0.83334   0.24997   0.00000  Uiso   1.00
C380   C     0.64538   0.87391   0.25786   0.00000  Uiso   1.00
C381   C     0.64536   0.79274   0.24219   0.00000  Uiso   1.00
C382   C     0.35464   0.87392   0.25781   0.00000  Uiso   1.00
C383   C     0.51422   0.87142   0.04705   0.00000  Uiso   1.00
C384   C     0.51426   0.79519   0.45301   0.00000  Uiso   1.00
C385   C     0.48520   0.87138   0.45288   0.00000  Uiso   1.00
C386   C     0.48514   0.79524   0.04706   0.00000  Uiso   1.00
C387   C     0.51408   0.87154   0.09303   0.00000  Uiso   1.00
C388   C     0.51417   0.79510   0.40703   0.00000  Uiso   1.00
C389   C     0.48556   0.87152   0.40690   0.00000  Uiso   1.00
C390   C     0.58005   0.83333   0.25003   0.00000  Uiso   1.00
C391   C     0.48546   0.79514   0.09305   0.00000  Uiso   1.00
C392   C     0.49984   0.83333   0.11601   0.00000  Uiso   1.00
C393   C     0.49993   0.83332   0.38399   0.00000  Uiso   1.00
C394   C     0.49965   0.83332   0.02405   0.00000  Uiso   1.00
C395   C     0.49967   0.83328   0.47595   0.00000  Uiso   1.00
C396   C     0.62420   0.83333   0.25004   0.00000  Uiso   1.00
C397   C     0.37580   0.83334   0.24996   0.00000  Uiso   1.00
C398   C     0.49995   0.83333   0.16390   0.00000  Uiso   1.00
C399   C     0.50001   0.83333   0.33610   0.00000  Uiso   1.00
C400   C     0.52629   0.69065   0.27725   0.00000  Uiso   1.00
C401   C     0.47370   0.97602   0.22276   0.00000  Uiso   1.00
C402   C     0.47371   0.69067   0.22275   0.00000  Uiso   1.00
C403   C     0.52630   0.97600   0.27724   0.00000  Uiso   1.00
C404   C     0.35462   0.79275   0.24214   0.00000  Uiso   1.00
H405   H     0.54730   0.70886   0.29903   0.00000  Uiso   1.00
H406   H     0.52607   0.76584   0.47066   0.00000  Uiso   1.00
H407   H     0.47332   0.90074   0.47042   0.00000  Uiso   1.00
H408   H     0.47328   0.76589   0.02946   0.00000  Uiso   1.00
H409   H     0.52560   0.90111   0.11055   0.00000  Uiso   1.00
H410   H     0.52570   0.76554   0.38955   0.00000  Uiso   1.00
H411   H     0.47413   0.90110   0.38933   0.00000  Uiso   1.00
H412   H     0.47401   0.76557   0.11058   0.00000  Uiso   1.00
H413   H     0.45269   0.95782   0.20099   0.00000  Uiso   1.00
H414   H     0.45270   0.70888   0.20098   0.00000  Uiso   1.00
H415   H     0.54731   0.95779   0.29901   0.00000  Uiso   1.00
H416   H     0.37083   0.76121   0.23575   0.00000  Uiso   1.00
H417   H     0.62917   0.90546   0.26425   0.00000  Uiso   1.00
H418   H     0.62914   0.76119   0.23585   0.00000  Uiso   1.00
H419   H     0.37086   0.90548   0.26415   0.00000  Uiso   1.00
H420   H     0.52605   0.90076   0.02945   0.00000  Uiso   1.00
N421   N     0.50000   0.95240   0.25000   0.00000  Uiso   1.00
N422   N     0.50000   0.71427   0.25000   0.00000  Uiso   1.00
O423   O     0.43892   0.87154   0.25000   0.00000  Uiso   1.00
O424   O     0.56108   0.79513   0.25001   0.00000  Uiso   1.00
O425   O     0.56108   0.87154   0.25001   0.00000  Uiso   1.00
O426   O     0.43892   0.79513   0.25000   0.00000  Uiso   1.00
O427   O     0.50000   0.87155   0.18453   0.00000  Uiso   1.00
O428   O     0.50000   0.79511   0.31547   0.00000  Uiso   1.00
O429   O     0.50000   0.87155   0.31547   0.00000  Uiso   1.00
O430   O     0.50000   0.79511   0.18453   0.00000  Uiso   1.00
Zn431  Zn    0.50000   0.88437   0.25000   0.00000  Uiso   1.00
Zn432  Zn    0.50000   0.78229   0.25000   0.00000  Uiso   1.00
C433   C     0.75328   0.83334   0.24997   0.00000  Uiso   1.00
C434   C     0.97871   0.87391   0.25786   0.00000  Uiso   1.00
C435   C     0.97869   0.79274   0.24219   0.00000  Uiso   1.00
C436   C     0.68797   0.87392   0.25781   0.00000  Uiso   1.00
C437   C     0.84755   0.87142   0.04705   0.00000  Uiso   1.00
C438   C     0.84760   0.79519   0.45301   0.00000  Uiso   1.00
C439   C     0.81853   0.87138   0.45288   0.00000  Uiso   1.00
C440   C     0.81848   0.79524   0.04706   0.00000  Uiso   1.00
C441   C     0.84741   0.87154   0.09303   0.00000  Uiso   1.00
C442   C     0.84750   0.79510   0.40703   0.00000  Uiso   1.00
C443   C     0.81890   0.87152   0.40690   0.00000  Uiso   1.00
C444   C     0.91339   0.83333   0.25003   0.00000  Uiso   1.00
C445   C     0.81879   0.79514   0.09305   0.00000  Uiso   1.00
C446   C     0.83317   0.83333   0.11601   0.00000  Uiso   1.00
C447   C     0.83327   0.83332   0.38399   0.00000  Uiso   1.00
C448   C     0.83299   0.83332   0.02405   0.00000  Uiso   1.00
C449   C     0.83301   0.83328   0.47595   0.00000  Uiso   1.00
C450   C     0.95753   0.83333   0.25004   0.00000  Uiso   1.00
C451   C     0.70914   0.83334   0.24996   0.00000  Uiso   1.00
C452   C     0.83329   0.83333   0.16390   0.00000  Uiso   1.00
C453   C     0.83335   0.83333   0.33610   0.00000  Uiso   1.00
C454   C     0.85963   0.69065   0.27725   0.00000  Uiso   1.00
C455   C     0.80704   0.97602   0.22276   0.00000  Uiso   1.00
C456   C     0.80704   0.69067   0.22275   0.00000  Uiso   1.00
C457   C     0.85963   0.97600   0.27724   0.00000  Uiso   1.00
C458   C     0.68796   0.79275   0.24214   0.00000  Uiso   1.00
H459   H     0.88063   0.70886   0.29903   0.00000  Uiso   1.00
H460   H     0.85940   0.76584   0.47066   0.00000  Uiso   1.00
H461   H     0.80665   0.90074   0.47042   0.00000  Uiso   1.00
H462   H     0.80661   0.76589   0.02946   0.00000  Uiso   1.00
H463   H     0.85893   0.90111   0.11055   0.00000  Uiso   1.00
H464   H     0.85903   0.76554   0.38955   0.00000  Uiso   1.00
H465   H     0.80747   0.90110   0.38933   0.00000  Uiso   1.00
H466   H     0.80734   0.76557   0.11058   0.00000  Uiso   1.00
H467   H     0.78602   0.95782   0.20099   0.00000  Uiso   1.00
H468   H     0.78603   0.70888   0.20098   0.00000  Uiso   1.00
H469   H     0.88065   0.95779   0.29901   0.00000  Uiso   1.00
H470   H     0.70416   0.76121   0.23575   0.00000  Uiso   1.00
H471   H     0.96251   0.90546   0.26425   0.00000  Uiso   1.00
H472   H     0.96248   0.76119   0.23585   0.00000  Uiso   1.00
H473   H     0.70419   0.90548   0.26415   0.00000  Uiso   1.00
H474   H     0.85938   0.90076   0.02945   0.00000  Uiso   1.00
N475   N     0.83333   0.95240   0.25000   0.00000  Uiso   1.00
N476   N     0.83333   0.71427   0.25000   0.00000  Uiso   1.00
O477   O     0.77226   0.87154   0.25000   0.00000  Uiso   1.00
O478   O     0.89441   0.79513   0.25001   0.00000  Uiso   1.00
O479   O     0.89441   0.87154   0.25001   0.00000  Uiso   1.00
O480   O     0.77226   0.79513   0.25000   0.00000  Uiso   1.00
O481   O     0.83333   0.87155   0.18453   0.00000  Uiso   1.00
O482   O     0.83334   0.79511   0.31547   0.00000  Uiso   1.00
O483   O     0.83334   0.87155   0.31547   0.00000  Uiso   1.00
O484   O     0.83333   0.79511   0.18453   0.00000  Uiso   1.00
Zn485  Zn    0.83333   0.88437   0.25000   0.00000  Uiso   1.00
Zn486  Zn    0.83333   0.78229   0.25000   0.00000  Uiso   1.00
C487   C     0.08661   0.16667   0.74997   0.00000  Uiso   1.00
C488   C     0.31204   0.20725   0.75786   0.00000  Uiso   1.00
C489   C     0.31203   0.12608   0.74219   0.00000  Uiso   1.00
C490   C     0.02131   0.20725   0.75781   0.00000  Uiso   1.00
C491   C     0.18089   0.20475   0.54705   0.00000  Uiso   1.00
C492   C     0.18093   0.12853   0.95301   0.00000  Uiso   1.00
C493   C     0.15187   0.20472   0.95288   0.00000  Uiso   1.00
C494   C     0.15181   0.12858   0.54706   0.00000  Uiso   1.00
C495   C     0.18075   0.20487   0.59303   0.00000  Uiso   1.00
C496   C     0.18083   0.12844   0.90703   0.00000  Uiso   1.00
C497   C     0.15223   0.20485   0.90690   0.00000  Uiso   1.00
C498   C     0.24672   0.16666   0.75003   0.00000  Uiso   1.00
C499   C     0.15213   0.12847   0.59305   0.00000  Uiso   1.00
C500   C     0.16650   0.16667   0.61601   0.00000  Uiso   1.00
C501   C     0.16660   0.16666   0.88399   0.00000  Uiso   1.00
C502   C     0.16632   0.16665   0.52405   0.00000  Uiso   1.00
C503   C     0.16634   0.16662   0.97595   0.00000  Uiso   1.00
C504   C     0.29086   0.16666   0.75004   0.00000  Uiso   1.00
C505   C     0.04247   0.16667   0.74996   0.00000  Uiso   1.00
C506   C     0.16662   0.16667   0.66390   0.00000  Uiso   1.00
C507   C     0.16668   0.16666   0.83610   0.00000  Uiso   1.00
C508   C     0.19296   0.02399   0.77725   0.00000  Uiso   1.00
C509   C     0.14037   0.30935   0.72276   0.00000  Uiso   1.00
C510   C     0.14037   0.02400   0.72275   0.00000  Uiso   1.00
C511   C     0.19296   0.30933   0.77724   0.00000  Uiso   1.00
C512   C     0.02129   0.12609   0.74214   0.00000  Uiso   1.00
H513   H     0.21397   0.04219   0.79903   0.00000  Uiso   1.00
H514   H     0.19274   0.09917   0.97066   0.00000  Uiso   1.00
H515   H     0.13999   0.23407   0.97042   0.00000  Uiso   1.00
H516   H     0.13994   0.09922   0.52946   0.00000  Uiso   1.00
H517   H     0.19226   0.23444   0.61055   0.00000  Uiso   1.00
H518   H     0.19236   0.09887   0.88955   0.00000  Uiso   1.00
H519   H     0.14080   0.23444   0.88933   0.00000  Uiso   1.00
H520   H     0.14067   0.09891   0.61058   0.00000  Uiso   1.00
H521   H     0.11936   0.29115   0.70099   0.00000  Uiso   1.00
H522   H     0.11936   0.04222   0.70098   0.00000  Uiso   1.00
H523   H     0.21398   0.29112   0.79901   0.00000  Uiso   1.00
H524   H     0.03749   0.09454   0.73575   0.00000  Uiso   1.00
H525   H     0.29584   0.23879   0.76425   0.00000  Uiso   1.00
H526   H     0.29581   0.09452   0.73585   0.00000  Uiso   1.00
H527   H     0.03753   0.23881   0.76415   0.00000  Uiso   1.00
H528   H     0.19272   0.23409   0.52945   0.00000  Uiso   1.00
N529   N     0.16667   0.28573   0.75000   0.00000  Uiso   1.00
N530   N     0.16667   0.04760   0.75000   0.00000  Uiso   1.00
O531   O     0.10559   0.20487   0.75000   0.00000  Uiso   1.00
O532   O     0.22774   0.12846   0.75001   0.00000  Uiso   1.00
O533   O     0.22774   0.20487   0.75001   0.00000  Uiso   1.00
O534   O     0.10559   0.12846   0.75000   0.00000  Uiso   1.00
O535   O     0.16666   0.20489   0.68453   0.00000  Uiso   1.00
O536   O     0.16667   0.12845   0.81547   0.00000  Uiso   1.00
O537   O     0.16667   0.20489   0.81547   0.00000  Uiso   1.00
O538   O     0.16666   0.12845   0.68453   0.00000  Uiso   1.00
Zn539  Zn    0.16667   0.21771   0.75000   0.00000  Uiso   1.00
Zn540  Zn    0.16667   0.11563   0.75000   0.00000  Uiso   1.00
C541   C     0.41995   0.16667   0.74997   0.00000  Uiso   1.00
C542   C     0.64538   0.20725   0.75786   0.00000  Uiso   1.00
C543   C     0.64536   0.12608   0.74219   0.00000  Uiso   1.00
C544   C     0.35464   0.20725   0.75781   0.00000  Uiso   1.00
C545   C     0.51422   0.20475   0.54705   0.00000  Uiso   1.00
C546   C     0.51426   0.12853   0.95301   0.00000  Uiso   1.00
C547   C     0.48520   0.20472   0.95288   0.00000  Uiso   1.00
C548   C     0.48514   0.12858   0.54706   0.00000  Uiso   1.00
C549   C     0.51408   0.20487   0.59303   0.00000  Uiso   1.00
C550   C     0.51417   0.12844   0.90703   0.00000  Uiso   1.00
C551   C     0.48556   0.20485   0.90690   0.00000  Uiso   1.00
C552   C     0.58005   0.16666   0.75003   0.00000  Uiso   1.00
C553   C     0.48546   0.12847   0.59305   0.00000  Uiso   1.00
C554   C     0.49984   0.16667   0.61601   0.00000  Uiso   1.00
C555   C     0.49993   0.16666   0.88399   0.00000  Uiso   1.00
C556   C     0.49965   0.16665   0.52405   0.00000  Uiso   1.00
C557   C     0.49967   0.16662   0.97595   0.00000  Uiso   1.00
C558   C     0.62420   0.16666   0.75004   0.00000  Uiso   1.00
C559   C     0.37580   0.16667   0.74996   0.00000  Uiso   1.00
C560   C     0.49995   0.16667   0.66390   0.00000  Uiso   1.00
C561   C     0.50001   0.16666   0.83610   0.00000  Uiso   1.00
C562   C     0.52629   0.02399   0.77725   0.00000  Uiso   1.00
C563   C     0.47370   0.30935   0.72276   0.00000  Uiso   1.00
C564   C     0.47371   0.02400   0.72275   0.00000  Uiso   1.00
C565   C     0.52630   0.30933   0.77724   0.00000  Uiso   1.00
C566   C     0.35462   0.12609   0.74214   0.00000  Uiso   1.00
H567   H     0.54730   0.04219   0.79903   0.00000  Uiso   1.00
H568   H     0.52607   0.09917   0.97066   0.00000  Uiso   1.00
H569   H     0.47332   0.23407   0.97042   0.00000  Uiso   1.00
H570   H     0.47328   0.09922   0.52946   0.00000  Uiso   1.00
H571   H     0.52560   0.23444   0.61055   0.00000  Uiso   1.00
H572   H     0.52570   0.09887   0.88955   0.00000  Uiso   1.00
H573   H     0.47413   0.23444   0.88933   0.00000  Uiso   1.00
H574   H     0.47401   0.09891   0.61058   0.00000  Uiso   1.00
H575   H     0.45269   0.29115   0.70099   0.00000  Uiso   1.00
H576   H     0.45270   0.04222   0.70098   0.00000  Uiso   1.00
H577   H     0.54731   0.29112   0.79901   0.00000  Uiso   1.00
H578   H     0.37083   0.09454   0.73575   0.00000  Uiso   1.00
H579   H     0.62917   0.23879   0.76425   0.00000  Uiso   1.00
H580   H     0.62914   0.09452   0.73585   0.00000  Uiso   1.00
H581   H     0.37086   0.23881   0.76415   0.00000  Uiso   1.00
H582   H     0.52605   0.23409   0.52945   0.00000  Uiso   1.00
N583   N     0.50000   0.28573   0.75000   0.00000  Uiso   1.00
N584   N     0.50000   0.04760   0.75000   0.00000  Uiso   1.00
O585   O     0.43892   0.20487   0.75000   0.00000  Uiso   1.00
O586   O     0.56108   0.12846   0.75001   0.00000  Uiso   1.00
O587   O     0.56108   0.20487   0.75001   0.00000  Uiso   1.00
O588   O     0.43892   0.12846   0.75000   0.00000  Uiso   1.00
O589   O     0.50000   0.20489   0.68453   0.00000  Uiso   1.00
O590   O     0.50000   0.12845   0.81547   0.00000  Uiso   1.00
O591   O     0.50000   0.20489   0.81547   0.00000  Uiso   1.00
O592   O     0.50000   0.12845   0.68453   0.00000  Uiso   1.00
Zn593  Zn    0.50000   0.21771   0.75000   0.00000  Uiso   1.00
Zn594  Zn    0.50000   0.11563   0.75000   0.00000  Uiso   1.00
C595   C     0.75328   0.16667   0.74997   0.00000  Uiso   1.00
C596   C     0.97871   0.20725   0.75786   0.00000  Uiso   1.00
C597   C     0.97869   0.12608   0.74219   0.00000  Uiso   1.00
C598   C     0.68797   0.20725   0.75781   0.00000  Uiso   1.00
C599   C     0.84755   0.20475   0.54705   0.00000  Uiso   1.00
C600   C     0.84760   0.12853   0.95301   0.00000  Uiso   1.00
C601   C     0.81853   0.20472   0.95288   0.00000  Uiso   1.00
C602   C     0.81848   0.12858   0.54706   0.00000  Uiso   1.00
C603   C     0.84741   0.20487   0.59303   0.00000  Uiso   1.00
C604   C     0.84750   0.12844   0.90703   0.00000  Uiso   1.00
C605   C     0.81890   0.20485   0.90690   0.00000  Uiso   1.00
C606   C     0.91339   0.16666   0.75003   0.00000  Uiso   1.00
C607   C     0.81879   0.12847   0.59305   0.00000  Uiso   1.00
C608   C     0.83317   0.16667   0.61601   0.00000  Uiso   1.00
C609   C     0.83327   0.16666   0.88399   0.00000  Uiso   1.00
C610   C     0.83299   0.16665   0.52405   0.00000  Uiso   1.00
C611   C     0.83301   0.16662   0.97595   0.00000  Uiso   1.00
C612   C     0.95753   0.16666   0.75004   0.00000  Uiso   1.00
C613   C     0.70914   0.16667   0.74996   0.00000  Uiso   1.00
C614   C     0.83329   0.16667   0.66390   0.00000  Uiso   1.00
C615   C     0.83335   0.16666   0.83610   0.00000  Uiso   1.00
C616   C     0.85963   0.02399   0.77725   0.00000  Uiso   1.00
C617   C     0.80704   0.30935   0.72276   0.00000  Uiso   1.00
C618   C     0.80704   0.02400   0.72275   0.00000  Uiso   1.00
C619   C     0.85963   0.30933   0.77724   0.00000  Uiso   1.00
C620   C     0.68796   0.12609   0.74214   0.00000  Uiso   1.00
H621   H     0.88063   0.04219   0.79903   0.00000  Uiso   1.00
H622   H     0.85940   0.09917   0.97066   0.00000  Uiso   1.00
H623   H     0.80665   0.23407   0.97042   0.00000  Uiso   1.00
H624   H     0.80661   0.09922   0.52946   0.00000  Uiso   1.00
H625   H     0.85893   0.23444   0.61055   0.00000  Uiso   1.00
H626   H     0.85903   0.09887   0.88955   0.00000  Uiso   1.00
H627   H     0.80747   0.23444   0.88933   0.00000  Uiso   1.00
H628   H     0.80734   0.09891   0.61058   0.00000  Uiso   1.00
H629   H     0.78602   0.29115   0.70099   0.00000  Uiso   1.00
H630   H     0.78603   0.04222   0.70098   0.00000  Uiso   1.00
H631   H     0.88065   0.29112   0.79901   0.00000  Uiso   1.00
H632   H     0.70416   0.09454   0.73575   0.00000  Uiso   1.00
H633   H     0.96251   0.23879   0.76425   0.00000  Uiso   1.00
H634   H     0.96248   0.09452   0.73585   0.00000  Uiso   1.00
H635   H     0.70419   0.23881   0.76415   0.00000  Uiso   1.00
H636   H     0.85938   0.23409   0.52945   0.00000  Uiso   1.00
N637   N     0.83333   0.28573   0.75000   0.00000  Uiso   1.00
N638   N     0.83333   0.04760   0.75000   0.00000  Uiso   1.00
O639   O     0.77226   0.20487   0.75000   0.00000  Uiso   1.00
O640   O     0.89441   0.12846   0.75001   0.00000  Uiso   1.00
O641   O     0.89441   0.20487   0.75001   0.00000  Uiso   1.00
O642   O     0.77226   0.12846   0.75000   0.00000  Uiso   1.00
O643   O     0.83333   0.20489   0.68453   0.00000  Uiso   1.00
O644   O     0.83334   0.12845   0.81547   0.00000  Uiso   1.00
O645   O     0.83334   0.20489   0.81547   0.00000  Uiso   1.00
O646   O     0.83333   0.12845   0.68453   0.00000  Uiso   1.00
Zn647  Zn    0.83333   0.21771   0.75000   0.00000  Uiso   1.00
Zn648  Zn    0.83333   0.11563   0.75000   0.00000  Uiso   1.00
C649   C     0.08661   0.50000   0.74997   0.00000  Uiso   1.00
C650   C     0.31204   0.54058   0.75786   0.00000  Uiso   1.00
C651   C     0.31203   0.45941   0.74219   0.00000  Uiso   1.00
C652   C     0.02131   0.54059   0.75781   0.00000  Uiso   1.00
C653   C     0.18089   0.53808   0.54705   0.00000  Uiso   1.00
C654   C     0.18093   0.46186   0.95301   0.00000  Uiso   1.00
C655   C     0.15187   0.53805   0.95288   0.00000  Uiso   1.00
C656   C     0.15181   0.46191   0.54706   0.00000  Uiso   1.00
C657   C     0.18075   0.53820   0.59303   0.00000  Uiso   1.00
C658   C     0.18083   0.46177   0.90703   0.00000  Uiso   1.00
C659   C     0.15223   0.53818   0.90690   0.00000  Uiso   1.00
C660   C     0.24672   0.50000   0.75003   0.00000  Uiso   1.00
C661   C     0.15213   0.46181   0.59305   0.00000  Uiso   1.00
C662   C     0.16650   0.50000   0.61601   0.00000  Uiso   1.00
C663   C     0.16660   0.49999   0.88399   0.00000  Uiso   1.00
C664   C     0.16632   0.49999   0.52405   0.00000  Uiso   1.00
C665   C     0.16634   0.49995   0.97595   0.00000  Uiso   1.00
C666   C     0.29086   0.49999   0.75004   0.00000  Uiso   1.00
C667   C     0.04247   0.50001   0.74996   0.00000  Uiso   1.00
C668   C     0.16662   0.50000   0.66390   0.00000  Uiso   1.00
C669   C     0.16668   0.50000   0.83610   0.00000  Uiso   1.00
C670   C     0.19296   0.35732   0.77725   0.00000  Uiso   1.00
C671   C     0.14037   0.64268   0.72276   0.00000  Uiso   1.00
C672   C     0.14037   0.35734   0.72275   0.00000  Uiso   1.00
C673   C     0.19296   0.64267   0.77724   0.00000  Uiso   1.00
C674   C     0.02129   0.45942   0.74214   0.00000  Uiso   1.00
H675   H     0.21397   0.37552   0.79903   0.00000  Uiso   1.00
H676   H     0.19274   0.43250   0.97066   0.00000  Uiso   1.00
H677   H     0.13999   0.56741   0.97042   0.00000  Uiso   1.00
H678   H     0.13994   0.43255   0.52946   0.00000  Uiso   1.00
H679   H     0.19226   0.56777   0.61055   0.00000  Uiso   1.00
H680   H     0.19236   0.43220   0.88955   0.00000  Uiso   1.00
H681   H     0.14080   0.56777   0.88933   0.00000  Uiso   1.00
H682   H     0.14067   0.43224   0.61058   0.00000  Uiso   1.00
H683   H     0.11936   0.62448   0.70099   0.00000  Uiso   1.00
H684   H     0.11936   0.37555   0.70098   0.00000  Uiso   1.00
H685   H     0.21398   0.62445   0.79901   0.00000  Uiso   1.00
H686   H     0.03749   0.42787   0.73575   0.00000  Uiso   1.00
H687   H     0.29584   0.57213   0.76425   0.00000  Uiso   1.00
H688   H     0.29581   0.42786   0.73585   0.00000  Uiso   1.00
H689   H     0.03753   0.57214   0.76415   0.00000  Uiso   1.00
H690   H     0.19272   0.56743   0.52945   0.00000  Uiso   1.00
N691   N     0.16667   0.61907   0.75000   0.00000  Uiso   1.00
N692   N     0.16667   0.38093   0.75000   0.00000  Uiso   1.00
O693   O     0.10559   0.53821   0.75000   0.00000  Uiso   1.00
O694   O     0.22774   0.46179   0.75001   0.00000  Uiso   1.00
O695   O     0.22774   0.53821   0.75001   0.00000  Uiso   1.00
O696   O     0.10559   0.46179   0.75000   0.00000  Uiso   1.00
O697   O     0.16666   0.53822   0.68453   0.00000  Uiso   1.00
O698   O     0.16667   0.46178   0.81547   0.00000  Uiso   1.00
O699   O     0.16667   0.53822   0.81547   0.00000  Uiso   1.00
O700   O     0.16666   0.46178   0.68453   0.00000  Uiso   1.00
Zn701  Zn    0.16667   0.55104   0.75000   0.00000  Uiso   1.00
Zn702  Zn    0.16667   0.44896   0.75000   0.00000  Uiso   1.00
C703   C     0.41995   0.50000   0.74997   0.00000  Uiso   1.00
C704   C     0.64538   0.54058   0.75786   0.00000  Uiso   1.00
C705   C     0.64536   0.45941   0.74219   0.00000  Uiso   1.00
C706   C     0.35464   0.54059   0.75781   0.00000  Uiso   1.00
C707   C     0.51422   0.53808   0.54705   0.00000  Uiso   1.00
C708   C     0.51426   0.46186   0.95301   0.00000  Uiso   1.00
C709   C     0.48520   0.53805   0.95288   0.00000  Uiso   1.00
C710   C     0.48514   0.46191   0.54706   0.00000  Uiso   1.00
C711   C     0.51408   0.53820   0.59303   0.00000  Uiso   1.00
C712   C     0.51417   0.46177   0.90703   0.00000  Uiso   1.00
C713   C     0.48556   0.53818   0.90690   0.00000  Uiso   1.00
C714   C     0.58005   0.50000   0.75003   0.00000  Uiso   1.00
C715   C     0.48546   0.46181   0.59305   0.00000  Uiso   1.00
C716   C     0.49984   0.50000   0.61601   0.00000  Uiso   1.00
C717   C     0.49993   0.49999   0.88399   0.00000  Uiso   1.00
C718   C     0.49965   0.49999   0.52405   0.00000  Uiso   1.00
C719   C     0.49967   0.49995   0.97595   0.00000  Uiso   1.00
C720   C     0.62420   0.49999   0.75004   0.00000  Uiso   1.00
C721   C     0.37580   0.50001   0.74996   0.00000  Uiso   1.00
C722   C     0.49995   0.50000   0.66390   0.00000  Uiso   1.00
C723   C     0.50001   0.50000   0.83610   0.00000  Uiso   1.00
C724   C     0.52629   0.35732   0.77725   0.00000  Uiso   1.00
C725   C     0.47370   0.64268   0.72276   0.00000  Uiso   1.00
C726   C     0.47371   0.35734   0.72275   0.00000  Uiso   1.00
C727   C     0.52630   0.64267   0.77724   0.00000  Uiso   1.00
C728   C     0.35462   0.45942   0.74214   0.00000  Uiso   1.00
H729   H     0.54730   0.37552   0.79903   0.00000  Uiso   1.00
H730   H     0.52607   0.43250   0.97066   0.00000  Uiso   1.00
H731   H     0.47332   0.56741   0.97042   0.00000  Uiso   1.00
H732   H     0.47328   0.43255   0.52946   0.00000  Uiso   1.00
H733   H     0.52560   0.56777   0.61055   0.00000  Uiso   1.00
H734   H     0.52570   0.43220   0.88955   0.00000  Uiso   1.00
H735   H     0.47413   0.56777   0.88933   0.00000  Uiso   1.00
H736   H     0.47401   0.43224   0.61058   0.00000  Uiso   1.00
H737   H     0.45269   0.62448   0.70099   0.00000  Uiso   1.00
H738   H     0.45270   0.37555   0.70098   0.00000  Uiso   1.00
H739   H     0.54731   0.62445   0.79901   0.00000  Uiso   1.00
H740   H     0.37083   0.42787   0.73575   0.00000  Uiso   1.00
H741   H     0.62917   0.57213   0.76425   0.00000  Uiso   1.00
H742   H     0.62914   0.42786   0.73585   0.00000  Uiso   1.00
H743   H     0.37086   0.57214   0.76415   0.00000  Uiso   1.00
H744   H     0.52605   0.56743   0.52945   0.00000  Uiso   1.00
N745   N     0.50000   0.61907   0.75000   0.00000  Uiso   1.00
N746   N     0.50000   0.38093   0.75000   0.00000  Uiso   1.00
O747   O     0.43892   0.53821   0.75000   0.00000  Uiso   1.00
O748   O     0.56108   0.46179   0.75001   0.00000  Uiso   1.00
O749   O     0.56108   0.53821   0.75001   0.00000  Uiso   1.00
O750   O     0.43892   0.46179   0.75000   0.00000  Uiso   1.00
O751   O     0.50000   0.53822   0.68453   0.00000  Uiso   1.00
O752   O     0.50000   0.46178   0.81547   0.00000  Uiso   1.00
O753   O     0.50000   0.53822   0.81547   0.00000  Uiso   1.00
O754   O     0.50000   0.46178   0.68453   0.00000  Uiso   1.00
Zn755  Zn    0.50000   0.55104   0.75000   0.00000  Uiso   1.00
Zn756  Zn    0.50000   0.44896   0.75000   0.00000  Uiso   1.00
C757   C     0.75328   0.50000   0.74997   0.00000  Uiso   1.00
C758   C     0.97871   0.54058   0.75786   0.00000  Uiso   1.00
C759   C     0.97869   0.45941   0.74219   0.00000  Uiso   1.00
C760   C     0.68797   0.54059   0.75781   0.00000  Uiso   1.00
C761   C     0.84755   0.53808   0.54705   0.00000  Uiso   1.00
C762   C     0.84760   0.46186   0.95301   0.00000  Uiso   1.00
C763   C     0.81853   0.53805   0.95288   0.00000  Uiso   1.00
C764   C     0.81848   0.46191   0.54706   0.00000  Uiso   1.00
C765   C     0.84741   0.53820   0.59303   0.00000  Uiso   1.00
C766   C     0.84750   0.46177   0.90703   0.00000  Uiso   1.00
C767   C     0.81890   0.53818   0.90690   0.00000  Uiso   1.00
C768   C     0.91339   0.50000   0.75003   0.00000  Uiso   1.00
C769   C     0.81879   0.46181   0.59305   0.00000  Uiso   1.00
C770   C     0.83317   0.50000   0.61601   0.00000  Uiso   1.00
C771   C     0.83327   0.49999   0.88399   0.00000  Uiso   1.00
C772   C     0.83299   0.49999   0.52405   0.00000  Uiso   1.00
C773   C     0.83301   0.49995   0.97595   0.00000  Uiso   1.00
C774   C     0.95753   0.49999   0.75004   0.00000  Uiso   1.00
C775   C     0.70914   0.50001   0.74996   0.00000  Uiso   1.00
C776   C     0.83329   0.50000   0.66390   0.00000  Uiso   1.00
C777   C     0.83335   0.50000   0.83610   0.00000  Uiso   1.00
C778   C     0.85963   0.35732   0.77725   0.00000  Uiso   1.00
C779   C     0.80704   0.64268   0.72276   0.00000  Uiso   1.00
C780   C     0.80704   0.35734   0.72275   0.00000  Uiso   1.00
C781   C     0.85963   0.64267   0.77724   0.00000  Uiso   1.00
C782   C     0.68796   0.45942   0.74214   0.00000  Uiso   1.00
H783   H     0.88063   0.37552   0.79903   0.00000  Uiso   1.00
H784   H     0.85940   0.43250   0.97066   0.00000  Uiso   1.00
H785   H     0.80665   0.56741   0.97042   0.00000  Uiso   1.00
H786   H     0.80661   0.43255   0.52946   0.00000  Uiso   1.00
H787   H     0.85893   0.56777   0.61055   0.00000  Uiso   1.00
H788   H     0.85903   0.43220   0.88955   0.00000  Uiso   1.00
H789   H     0.80747   0.56777   0.88933   0.00000  Uiso   1.00
H790   H     0.80734   0.43224   0.61058   0.00000  Uiso   1.00
H791   H     0.78602   0.62448   0.70099   0.00000  Uiso   1.00
H792   H     0.78603   0.37555   0.70098   0.00000  Uiso   1.00
H793   H     0.88065   0.62445   0.79901   0.00000  Uiso   1.00
H794   H     0.70416   0.42787   0.73575   0.00000  Uiso   1.00
H795   H     0.96251   0.57213   0.76425   0.00000  Uiso   1.00
H796   H     0.96248   0.42786   0.73585   0.00000  Uiso   1.00
H797   H     0.70419   0.57214   0.76415   0.00000  Uiso   1.00
H798   H     0.85938   0.56743   0.52945   0.00000  Uiso   1.00
N799   N     0.83333   0.61907   0.75000   0.00000  Uiso   1.00
N800   N     0.83333   0.38093   0.75000   0.00000  Uiso   1.00
O801   O     0.77226   0.53821   0.75000   0.00000  Uiso   1.00
O802   O     0.89441   0.46179   0.75001   0.00000  Uiso   1.00
O803   O     0.89441   0.53821   0.75001   0.00000  Uiso   1.00
O804   O     0.77226   0.46179   0.75000   0.00000  Uiso   1.00
O805   O     0.83333   0.53822   0.68453   0.00000  Uiso   1.00
O806   O     0.83334   0.46178   0.81547   0.00000  Uiso   1.00
O807   O     0.83334   0.53822   0.81547   0.00000  Uiso   1.00
O808   O     0.83333   0.46178   0.68453   0.00000  Uiso   1.00
Zn809  Zn    0.83333   0.55104   0.75000   0.00000  Uiso   1.00
Zn810  Zn    0.83333   0.44896   0.75000   0.00000  Uiso   1.00
C811   C     0.08661   0.83334   0.74997   0.00000  Uiso   1.00
C812   C     0.31204   0.87391   0.75786   0.00000  Uiso   1.00
C813   C     0.31203   0.79274   0.74219   0.00000  Uiso   1.00
C814   C     0.02131   0.87392   0.75781   0.00000  Uiso   1.00
C815   C     0.18089   0.87142   0.54705   0.00000  Uiso   1.00
C816   C     0.18093   0.79519   0.95301   0.00000  Uiso   1.00
C817   C     0.15187   0.87138   0.95288   0.00000  Uiso   1.00
C818   C     0.15181   0.79524   0.54706   0.00000  Uiso   1.00
C819   C     0.18075   0.87154   0.59303   0.00000  Uiso   1.00
C820   C     0.18083   0.79510   0.90703   0.00000  Uiso   1.00
C821   C     0.15223   0.87152   0.90690   0.00000  Uiso   1.00
C822   C     0.24672   0.83333   0.75003   0.00000  Uiso   1.00
C823   C     0.15213   0.79514   0.59305   0.00000  Uiso   1.00
C824   C     0.16650   0.83333   0.61601   0.00000  Uiso   1.00
C825   C     0.16660   0.83332   0.88399   0.00000  Uiso   1.00
C826   C     0.16632   0.83332   0.52405   0.00000  Uiso   1.00
C827   C     0.16634   0.83328   0.97595   0.00000  Uiso   1.00
C828   C     0.29086   0.83333   0.75004   0.00000  Uiso   1.00
C829   C     0.04247   0.83334   0.74996   0.00000  Uiso   1.00
C830   C     0.16662   0.83333   0.66390   0.00000  Uiso   1.00
C831   C     0.16668   0.83333   0.83610   0.00000  Uiso   1.00
C832   C     0.19296   0.69065   0.77725   0.00000  Uiso   1.00
C833   C     0.14037   0.97602   0.72276   0.00000  Uiso   1.00
C834   C     0.14037   0.69067   0.72275   0.00000  Uiso   1.00
C835   C     0.19296   0.97600   0.77724   0.00000  Uiso   1.00
C836   C     0.02129   0.79275   0.74214   0.00000  Uiso   1.00
H837   H     0.21397   0.70886   0.79903   0.00000  Uiso   1.00
H838   H     0.19274   0.76584   0.97066   0.00000  Uiso   1.00
H839   H     0.13999   0.90074   0.97042   0.00000  Uiso   1.00
H840   H     0.13994   0.76589   0.52946   0.00000  Uiso   1.00
H841   H     0.19226   0.90111   0.61055   0.00000  Uiso   1.00
H842   H     0.19236   0.76554   0.88955   0.00000  Uiso   1.00
H843   H     0.14080   0.90110   0.88933   0.00000  Uiso   1.00
H844   H     0.14067   0.76557   0.61058   0.00000  Uiso   1.00
H845   H     0.11936   0.95782   0.70099   0.00000  Uiso   1.00
H846   H     0.11936   0.70888   0.70098   0.00000  Uiso   1.00
H847   H     0.21398   0.95779   0.79901   0.00000  Uiso   1.00
H848   H     0.03749   0.76121   0.73575   0.00000  Uiso   1.00
H849   H     0.29584   0.90546   0.76425   0.00000  Uiso   1.00
H850   H     0.29581   0.76119   0.73585   0.00000  Uiso   1.00
H851   H     0.03753   0.90548   0.76415   0.00000  Uiso   1.00
H852   H     0.19272   0.90076   0.52945   0.00000  Uiso   1.00
N853   N     0.16667   0.95240   0.75000   0.00000  Uiso   1.00
N854   N     0.16667   0.71427   0.75000   0.00000  Uiso   1.00
O855   O     0.10559   0.87154   0.75000   0.00000  Uiso   1.00
O856   O     0.22774   0.79513   0.75001   0.00000  Uiso   1.00
O857   O     0.22774   0.87154   0.75001   0.00000  Uiso   1.00
O858   O     0.10559   0.79513   0.75000   0.00000  Uiso   1.00
O859   O     0.16666   0.87155   0.68453   0.00000  Uiso   1.00
O860   O     0.16667   0.79511   0.81547   0.00000  Uiso   1.00
O861   O     0.16667   0.87155   0.81547   0.00000  Uiso   1.00
O862   O     0.16666   0.79511   0.68453   0.00000  Uiso   1.00
Zn863  Zn    0.16667   0.88437   0.75000   0.00000  Uiso   1.00
Zn864  Zn    0.16667   0.78229   0.75000   0.00000  Uiso   1.00
C865   C     0.41995   0.83334   0.74997   0.00000  Uiso   1.00
C866   C     0.64538   0.87391   0.75786   0.00000  Uiso   1.00
C867   C     0.64536   0.79274   0.74219   0.00000  Uiso   1.00
C868   C     0.35464   0.87392   0.75781   0.00000  Uiso   1.00
C869   C     0.51422   0.87142   0.54705   0.00000  Uiso   1.00
C870   C     0.51426   0.79519   0.95301   0.00000  Uiso   1.00
C871   C     0.48520   0.87138   0.95288   0.00000  Uiso   1.00
C872   C     0.48514   0.79524   0.54706   0.00000  Uiso   1.00
C873   C     0.51408   0.87154   0.59303   0.00000  Uiso   1.00
C874   C     0.51417   0.79510   0.90703   0.00000  Uiso   1.00
C875   C     0.48556   0.87152   0.90690   0.00000  Uiso   1.00
C876   C     0.58005   0.83333   0.75003   0.00000  Uiso   1.00
C877   C     0.48546   0.79514   0.59305   0.00000  Uiso   1.00
C878   C     0.49984   0.83333   0.61601   0.00000  Uiso   1.00
C879   C     0.49993   0.83332   0.88399   0.00000  Uiso   1.00
C880   C     0.49965   0.83332   0.52405   0.00000  Uiso   1.00
C881   C     0.49967   0.83328   0.97595   0.00000  Uiso   1.00
C882   C     0.62420   0.83333   0.75004   0.00000  Uiso   1.00
C883   C     0.37580   0.83334   0.74996   0.00000  Uiso   1.00
C884   C     0.49995   0.83333   0.66390   0.00000  Uiso   1.00
C885   C     0.50001   0.83333   0.83610   0.00000  Uiso   1.00
C886   C     0.52629   0.69065   0.77725   0.00000  Uiso   1.00
C887   C     0.47370   0.97602   0.72276   0.00000  Uiso   1.00
C888   C     0.47371   0.69067   0.72275   0.00000  Uiso   1.00
C889   C     0.52630   0.97600   0.77724   0.00000  Uiso   1.00
C890   C     0.35462   0.79275   0.74214   0.00000  Uiso   1.00
H891   H     0.54730   0.70886   0.79903   0.00000  Uiso   1.00
H892   H     0.52607   0.76584   0.97066   0.00000  Uiso   1.00
H893   H     0.47332   0.90074   0.97042   0.00000  Uiso   1.00
H894   H     0.47328   0.76589   0.52946   0.00000  Uiso   1.00
H895   H     0.52560   0.90111   0.61055   0.00000  Uiso   1.00
H896   H     0.52570   0.76554   0.88955   0.00000  Uiso   1.00
H897   H     0.47413   0.90110   0.88933   0.00000  Uiso   1.00
H898   H     0.47401   0.76557   0.61058   0.00000  Uiso   1.00
H899   H     0.45269   0.95782   0.70099   0.00000  Uiso   1.00
H900   H     0.45270   0.70888   0.70098   0.00000  Uiso   1.00
H901   H     0.54731   0.95779   0.79901   0.00000  Uiso   1.00
H902   H     0.37083   0.76121   0.73575   0.00000  Uiso   1.00
H903   H     0.62917   0.90546   0.76425   0.00000  Uiso   1.00
H904   H     0.62914   0.76119   0.73585   0.00000  Uiso   1.00
H905   H     0.37086   0.90548   0.76415   0.00000  Uiso   1.00
H906   H     0.52605   0.90076   0.52945   0.00000  Uiso   1.00
N907   N     0.50000   0.95240   0.75000   0.00000  Uiso   1.00
N908   N     0.50000   0.71427   0.75000   0.00000  Uiso   1.00
O909   O     0.43892   0.87154   0.75000   0.00000  Uiso   1.00
O910   O     0.56108   0.79513   0.75001   0.00000  Uiso   1.00
O911   O     0.56108   0.87154   0.75001   0.00000  Uiso   1.00
O912   O     0.43892   0.79513   0.75000   0.00000  Uiso   1.00
O913   O     0.50000   0.87155   0.68453   0.00000  Uiso   1.00
O914   O     0.50000   0.79511   0.81547   0.00000  Uiso   1.00
O915   O     0.50000   0.87155   0.81547   0.00000  Uiso   1.00
O916   O     0.50000   0.79511   0.68453   0.00000  Uiso   1.00
Zn917  Zn    0.50000   0.88437   0.75000   0.00000  Uiso   1.00
Zn918  Zn    0.50000   0.78229   0.75000   0.00000  Uiso   1.00
C919   C     0.75328   0.83334   0.74997   0.00000  Uiso   1.00
C920   C     0.97871   0.87391   0.75786   0.00000  Uiso   1.00
C921   C     0.97869   0.79274   0.74219   0.00000  Uiso   1.00
C922   C     0.68797   0.87392   0.75781   0.00000  Uiso   1.00
C923   C     0.84755   0.87142   0.54705   0.00000  Uiso   1.00
C924   C     0.84760   0.79519   0.95301   0.00000  Uiso   1.00
C925   C     0.81853   0.87138   0.95288   0.00000  Uiso   1.00
C926   C     0.81848   0.79524   0.54706   0.00000  Uiso   1.00
C927   C     0.84741   0.87154   0.59303   0.00000  Uiso   1.00
C928   C     0.84750   0.79510   0.90703   0.00000  Uiso   1.00
C929   C     0.81890   0.87152   0.90690   0.00000  Uiso   1.00
C930   C     0.91339   0.83333   0.75003   0.00000  Uiso   1.00
C931   C     0.81879   0.79514   0.59305   0.00000  Uiso   1.00
C932   C     0.83317   0.83333   0.61601   0.00000  Uiso   1.00
C933   C     0.83327   0.83332   0.88399   0.00000  Uiso   1.00
C934   C     0.83299   0.83332   0.52405   0.00000  Uiso   1.00
C935   C     0.83301   0.83328   0.97595   0.00000  Uiso   1.00
C936   C     0.95753   0.83333   0.75004   0.00000  Uiso   1.00
C937   C     0.70914   0.83334   0.74996   0.00000  Uiso   1.00
C938   C     0.83329   0.83333   0.66390   0.00000  Uiso   1.00
C939   C     0.83335   0.83333   0.83610   0.00000  Uiso   1.00
C940   C     0.85963   0.69065   0.77725   0.00000  Uiso   1.00
C941   C     0.80704   0.97602   0.72276   0.00000  Uiso   1.00
C942   C     0.80704   0.69067   0.72275   0.00000  Uiso   1.00
C943   C     0.85963   0.97600   0.77724   0.00000  Uiso   1.00
C944   C     0.68796   0.79275   0.74214   0.00000  Uiso   1.00
H945   H     0.88063   0.70886   0.79903   0.00000  Uiso   1.00
H946   H     0.85940   0.76584   0.97066   0.00000  Uiso   1.00
H947   H     0.80665   0.90074   0.97042   0.00000  Uiso   1.00
H948   H     0.80661   0.76589   0.52946   0.00000  Uiso   1.00
H949   H     0.85893   0.90111   0.61055   0.00000  Uiso   1.00
H950   H     0.85903   0.76554   0.88955   0.00000  Uiso   1.00
H951   H     0.80747   0.90110   0.88933   0.00000  Uiso   1.00
H952   H     0.80734   0.76557   0.61058   0.00000  Uiso   1.00
H953   H     0.78602   0.95782   0.70099   0.00000  Uiso   1.00
H954   H     0.78603   0.70888   0.70098   0.00000  Uiso   1.00
H955   H     0.88065   0.95779   0.79901   0.00000  Uiso   1.00
H956   H     0.70416   0.76121   0.73575   0.00000  Uiso   1.00
H957   H     0.96251   0.90546   0.76425   0.00000  Uiso   1.00
H958   H     0.96248   0.76119   0.73585   0.00000  Uiso   1.00
H959   H     0.70419   0.90548   0.76415   0.00000  Uiso   1.00
H960   H     0.85938   0.90076   0.52945   0.00000  Uiso   1.00
N961   N     0.83333   0.95240   0.75000   0.00000  Uiso   1.00
N962   N     0.83333   0.71427   0.75000   0.00000  Uiso   1.00
O963   O     0.77226   0.87154   0.75000   0.00000  Uiso   1.00
O964   O     0.89441   0.79513   0.75001   0.00000  Uiso   1.00
O965   O     0.89441   0.87154   0.75001   0.00000  Uiso   1.00
O966   O     0.77226   0.79513   0.75000   0.00000  Uiso   1.00
O967   O     0.83333   0.87155   0.68453   0.00000  Uiso   1.00
O968   O     0.83334   0.79511   0.81547   0.00000  Uiso   1.00
O969   O     0.83334   0.87155   0.81547   0.00000  Uiso   1.00
O970   O     0.83333   0.79511   0.68453   0.00000  Uiso   1.00
Zn971  Zn    0.83333   0.88437   0.75000   0.00000  Uiso   1.00
Zn972  Zn    0.83333   0.78229   0.75000   0.00000  Uiso   1.00
loop_
_geom_bond_atom_site_label_1
_geom_bond_atom_site_label_2
_geom_bond_distance
_geom_bond_site_symmetry_2
_ccdc_geom_bond_type
C1     O48     1.282   .     A
C1     C19     1.420   .     S
C1     O45     1.282   .     A
C2     C18     1.397   .     A
C2     H39     1.084   .     S
C2     C58     1.370   .     S
C3     H40     1.084   .     S
C3     C18     1.397   .     A
C3     C80     1.370   .     S
C4     H41     1.084   .     S
C4     C19     1.397   .     A
C4     C110    1.370   1_455 S
C5     C9      1.380   .     A
C5     H42     1.083   .     S
C5     C16     1.399   .     A
C6     C10     1.380   .     A
C6     C17     1.399   .     A
C6     H28     1.083   .     S
C7     H29     1.083   .     S
C7     C11     1.380   .     A
C7     C17     1.399   .     A
C8     C13     1.381   .     A
C8     H30     1.083   .     S
C8     C16     1.399   .     A
C9     C14     1.399   .     A
C9     H31     1.084   .     S
C10    H32     1.084   .     S
C10    C15     1.399   .     A
C11    H33     1.084   .     S
C11    C15     1.399   .     A
C12    O47     1.282   .     A
C12    O46     1.282   .     A
C12    C18     1.420   .     S
C13    H34     1.084   .     S
C13    C14     1.399   .     A
C14    C20     1.437   .     S
C15    C21     1.437   .     S
C16    C503    1.444   1_554 S
C17    C502    1.444   .     S
C19    C26     1.397   .     A
C20    O52     1.286   .     A
C20    O49     1.286   .     A
C21    O51     1.286   .     A
C21    O50     1.286   .     A
C22    H27     1.082   .     S
C22    N44     1.366   .     A
C22    C349    1.416   1_545 S
C23    H35     1.082   .     S
C23    N43     1.366   .     A
C23    C186    1.416   .     S
C24    H36     1.082   .     S
C24    N44     1.366   .     A
C24    C347    1.416   1_545 S
C25    N43     1.366   .     A
C25    H37     1.082   .     S
C25    C184    1.416   .     S
C26    H38     1.084   .     S
C26    C111    1.370   1_455 S
N43    Zn53    2.007   .     S
N44    Zn54    2.007   .     S
O45    Zn53    2.000   .     S
O46    Zn54    2.000   .     S
O47    Zn53    2.000   .     S
O48    Zn54    2.000   .     S
O49    Zn53    2.001   .     S
O50    Zn54    2.001   .     S
O51    Zn53    2.001   .     S
O52    Zn54    2.001   .     S
C55    O102    1.282   .     A
C55    C73     1.420   .     S
C55    O99     1.282   .     A
C56    C72     1.397   .     A
C56    H93     1.084   .     S
C56    C112    1.370   .     S
C57    H94     1.084   .     S
C57    C72     1.397   .     A
C57    C134    1.370   .     S
C58    H95     1.084   .     S
C58    C73     1.397   .     A
C59    C63     1.380   .     A
C59    H96     1.083   .     S
C59    C70     1.399   .     A
C60    C64     1.380   .     A
C60    C71     1.399   .     A
C60    H82     1.083   .     S
C61    H83     1.083   .     S
C61    C65     1.380   .     A
C61    C71     1.399   .     A
C62    C67     1.381   .     A
C62    H84     1.083   .     S
C62    C70     1.399   .     A
C63    C68     1.399   .     A
C63    H85     1.084   .     S
C64    H86     1.084   .     S
C64    C69     1.399   .     A
C65    H87     1.084   .     S
C65    C69     1.399   .     A
C66    O101    1.282   .     A
C66    O100    1.282   .     A
C66    C72     1.420   .     S
C67    H88     1.084   .     S
C67    C68     1.399   .     A
C68    C74     1.437   .     S
C69    C75     1.437   .     S
C70    C557    1.444   1_554 S
C71    C556    1.444   .     S
C73    C80     1.397   .     A
C74    O106    1.286   .     A
C74    O103    1.286   .     A
C75    O105    1.286   .     A
C75    O104    1.286   .     A
C76    H81     1.082   .     S
C76    N98     1.366   .     A
C76    C403    1.416   1_545 S
C77    H89     1.082   .     S
C77    N97     1.366   .     A
C77    C240    1.416   .     S
C78    H90     1.082   .     S
C78    N98     1.366   .     A
C78    C401    1.416   1_545 S
C79    N97     1.366   .     A
C79    H91     1.082   .     S
C79    C238    1.416   .     S
C80    H92     1.084   .     S
N97    Zn107   2.007   .     S
N98    Zn108   2.007   .     S
O99    Zn107   2.000   .     S
O100   Zn108   2.000   .     S
O101   Zn107   2.000   .     S
O102   Zn108   2.000   .     S
O103   Zn107   2.001   .     S
O104   Zn108   2.001   .     S
O105   Zn107   2.001   .     S
O106   Zn108   2.001   .     S
C109   O156    1.282   .     A
C109   C127    1.420   .     S
C109   O153    1.282   .     A
C110   C126    1.397   .     A
C110   H147    1.084   .     S
C110   C4      1.370   1_655 S
C111   H148    1.084   .     S
C111   C126    1.397   .     A
C111   C26     1.370   1_655 S
C112   H149    1.084   .     S
C112   C127    1.397   .     A
C113   C117    1.380   .     A
C113   H150    1.083   .     S
C113   C124    1.399   .     A
C114   C118    1.380   .     A
C114   C125    1.399   .     A
C114   H136    1.083   .     S
C115   H137    1.083   .     S
C115   C119    1.380   .     A
C115   C125    1.399   .     A
C116   C121    1.381   .     A
C116   H138    1.083   .     S
C116   C124    1.399   .     A
C117   C122    1.399   .     A
C117   H139    1.084   .     S
C118   H140    1.084   .     S
C118   C123    1.399   .     A
C119   H141    1.084   .     S
C119   C123    1.399   .     A
C120   O155    1.282   .     A
C120   O154    1.282   .     A
C120   C126    1.420   .     S
C121   H142    1.084   .     S
C121   C122    1.399   .     A
C122   C128    1.437   .     S
C123   C129    1.437   .     S
C124   C611    1.444   1_554 S
C125   C610    1.444   .     S
C127   C134    1.397   .     A
C128   O160    1.286   .     A
C128   O157    1.286   .     A
C129   O159    1.286   .     A
C129   O158    1.286   .     A
C130   H135    1.082   .     S
C130   N152    1.366   .     A
C130   C457    1.416   1_545 S
C131   H143    1.082   .     S
C131   N151    1.366   .     A
C131   C294    1.416   .     S
C132   H144    1.082   .     S
C132   N152    1.366   .     A
C132   C455    1.416   1_545 S
C133   N151    1.366   .     A
C133   H145    1.082   .     S
C133   C292    1.416   .     S
C134   H146    1.084   .     S
N151   Zn161   2.007   .     S
N152   Zn162   2.007   .     S
O153   Zn161   2.000   .     S
O154   Zn162   2.000   .     S
O155   Zn161   2.000   .     S
O156   Zn162   2.000   .     S
O157   Zn161   2.001   .     S
O158   Zn162   2.001   .     S
O159   Zn161   2.001   .     S
O160   Zn162   2.001   .     S
C163   O210    1.282   .     A
C163   C181    1.420   .     S
C163   O207    1.282   .     A
C164   C180    1.397   .     A
C164   H201    1.084   .     S
C164   C220    1.370   .     S
C165   H202    1.084   .     S
C165   C180    1.397   .     A
C165   C242    1.370   .     S
C166   H203    1.084   .     S
C166   C181    1.397   .     A
C166   C272    1.370   1_455 S
C167   C171    1.380   .     A
C167   H204    1.083   .     S
C167   C178    1.399   .     A
C168   C172    1.380   .     A
C168   C179    1.399   .     A
C168   H190    1.083   .     S
C169   H191    1.083   .     S
C169   C173    1.380   .     A
C169   C179    1.399   .     A
C170   C175    1.381   .     A
C170   H192    1.083   .     S
C170   C178    1.399   .     A
C171   C176    1.399   .     A
C171   H193    1.084   .     S
C172   H194    1.084   .     S
C172   C177    1.399   .     A
C173   H195    1.084   .     S
C173   C177    1.399   .     A
C174   O209    1.282   .     A
C174   O208    1.282   .     A
C174   C180    1.420   .     S
C175   H196    1.084   .     S
C175   C176    1.399   .     A
C176   C182    1.437   .     S
C177   C183    1.437   .     S
C178   C665    1.444   1_554 S
C179   C664    1.444   .     S
C181   C188    1.397   .     A
C182   O214    1.286   .     A
C182   O211    1.286   .     A
C183   O213    1.286   .     A
C183   O212    1.286   .     A
C184   H189    1.082   .     S
C184   N206    1.366   .     A
C185   H197    1.082   .     S
C185   N205    1.366   .     A
C185   C348    1.416   .     S
C186   H198    1.082   .     S
C186   N206    1.366   .     A
C187   N205    1.366   .     A
C187   H199    1.082   .     S
C187   C346    1.416   .     S
C188   H200    1.084   .     S
C188   C273    1.370   1_455 S
N205   Zn215   2.007   .     S
N206   Zn216   2.007   .     S
O207   Zn215   2.000   .     S
O208   Zn216   2.000   .     S
O209   Zn215   2.000   .     S
O210   Zn216   2.000   .     S
O211   Zn215   2.001   .     S
O212   Zn216   2.001   .     S
O213   Zn215   2.001   .     S
O214   Zn216   2.001   .     S
C217   O264    1.282   .     A
C217   C235    1.420   .     S
C217   O261    1.282   .     A
C218   C234    1.397   .     A
C218   H255    1.084   .     S
C218   C274    1.370   .     S
C219   H256    1.084   .     S
C219   C234    1.397   .     A
C219   C296    1.370   .     S
C220   H257    1.084   .     S
C220   C235    1.397   .     A
C221   C225    1.380   .     A
C221   H258    1.083   .     S
C221   C232    1.399   .     A
C222   C226    1.380   .     A
C222   C233    1.399   .     A
C222   H244    1.083   .     S
C223   H245    1.083   .     S
C223   C227    1.380   .     A
C223   C233    1.399   .     A
C224   C229    1.381   .     A
C224   H246    1.083   .     S
C224   C232    1.399   .     A
C225   C230    1.399   .     A
C225   H247    1.084   .     S
C226   H248    1.084   .     S
C226   C231    1.399   .     A
C227   H249    1.084   .     S
C227   C231    1.399   .     A
C228   O263    1.282   .     A
C228   O262    1.282   .     A
C228   C234    1.420   .     S
C229   H250    1.084   .     S
C229   C230    1.399   .     A
C230   C236    1.437   .     S
C231   C237    1.437   .     S
C232   C719    1.444   1_554 S
C233   C718    1.444   .     S
C235   C242    1.397   .     A
C236   O268    1.286   .     A
C236   O265    1.286   .     A
C237   O267    1.286   .     A
C237   O266    1.286   .     A
C238   H243    1.082   .     S
C238   N260    1.366   .     A
C239   H251    1.082   .     S
C239   N259    1.366   .     A
C239   C402    1.416   .     S
C240   H252    1.082   .     S
C240   N260    1.366   .     A
C241   N259    1.366   .     A
C241   H253    1.082   .     S
C241   C400    1.416   .     S
C242   H254    1.084   .     S
N259   Zn269   2.007   .     S
N260   Zn270   2.007   .     S
O261   Zn269   2.000   .     S
O262   Zn270   2.000   .     S
O263   Zn269   2.000   .     S
O264   Zn270   2.000   .     S
O265   Zn269   2.001   .     S
O266   Zn270   2.001   .     S
O267   Zn269   2.001   .     S
O268   Zn270   2.001   .     S
C271   O318    1.282   .     A
C271   C289    1.420   .     S
C271   O315    1.282   .     A
C272   C288    1.397   .     A
C272   H309    1.084   .     S
C272   C166    1.370   1_655 S
C273   H310    1.084   .     S
C273   C288    1.397   .     A
C273   C188    1.370   1_655 S
C274   H311    1.084   .     S
C274   C289    1.397   .     A
C275   C279    1.380   .     A
C275   H312    1.083   .     S
C275   C286    1.399   .     A
C276   C280    1.380   .     A
C276   C287    1.399   .     A
C276   H298    1.083   .     S
C277   H299    1.083   .     S
C277   C281    1.380   .     A
C277   C287    1.399   .     A
C278   C283    1.381   .     A
C278   H300    1.083   .     S
C278   C286    1.399   .     A
C279   C284    1.399   .     A
C279   H301    1.084   .     S
C280   H302    1.084   .     S
C280   C285    1.399   .     A
C281   H303    1.084   .     S
C281   C285    1.399   .     A
C282   O317    1.282   .     A
C282   O316    1.282   .     A
C282   C288    1.420   .     S
C283   H304    1.084   .     S
C283   C284    1.399   .     A
C284   C290    1.437   .     S
C285   C291    1.437   .     S
C286   C773    1.444   1_554 S
C287   C772    1.444   .     S
C289   C296    1.397   .     A
C290   O322    1.286   .     A
C290   O319    1.286   .     A
C291   O321    1.286   .     A
C291   O320    1.286   .     A
C292   H297    1.082   .     S
C292   N314    1.366   .     A
C293   H305    1.082   .     S
C293   N313    1.366   .     A
C293   C456    1.416   .     S
C294   H306    1.082   .     S
C294   N314    1.366   .     A
C295   N313    1.366   .     A
C295   H307    1.082   .     S
C295   C454    1.416   .     S
C296   H308    1.084   .     S
N313   Zn323   2.007   .     S
N314   Zn324   2.007   .     S
O315   Zn323   2.000   .     S
O316   Zn324   2.000   .     S
O317   Zn323   2.000   .     S
O318   Zn324   2.000   .     S
O319   Zn323   2.001   .     S
O320   Zn324   2.001   .     S
O321   Zn323   2.001   .     S
O322   Zn324   2.001   .     S
C325   O372    1.282   .     A
C325   C343    1.420   .     S
C325   O369    1.282   .     A
C326   C342    1.397   .     A
C326   H363    1.084   .     S
C326   C382    1.370   .     S
C327   H364    1.084   .     S
C327   C342    1.397   .     A
C327   C404    1.370   .     S
C328   H365    1.084   .     S
C328   C343    1.397   .     A
C328   C434    1.370   1_455 S
C329   C333    1.380   .     A
C329   H366    1.083   .     S
C329   C340    1.399   .     A
C330   C334    1.380   .     A
C330   C341    1.399   .     A
C330   H352    1.083   .     S
C331   H353    1.083   .     S
C331   C335    1.380   .     A
C331   C341    1.399   .     A
C332   C337    1.381   .     A
C332   H354    1.083   .     S
C332   C340    1.399   .     A
C333   C338    1.399   .     A
C333   H355    1.084   .     S
C334   H356    1.084   .     S
C334   C339    1.399   .     A
C335   H357    1.084   .     S
C335   C339    1.399   .     A
C336   O371    1.282   .     A
C336   O370    1.282   .     A
C336   C342    1.420   .     S
C337   H358    1.084   .     S
C337   C338    1.399   .     A
C338   C344    1.437   .     S
C339   C345    1.437   .     S
C340   C827    1.444   1_554 S
C341   C826    1.444   .     S
C343   C350    1.397   .     A
C344   O376    1.286   .     A
C344   O373    1.286   .     A
C345   O375    1.286   .     A
C345   O374    1.286   .     A
C346   H351    1.082   .     S
C346   N368    1.366   .     A
C347   H359    1.082   .     S
C347   N367    1.366   .     A
C347   C24     1.416   1_565 S
C348   H360    1.082   .     S
C348   N368    1.366   .     A
C349   N367    1.366   .     A
C349   H361    1.082   .     S
C349   C22     1.416   1_565 S
C350   H362    1.084   .     S
C350   C435    1.370   1_455 S
N367   Zn377   2.007   .     S
N368   Zn378   2.007   .     S
O369   Zn377   2.000   .     S
O370   Zn378   2.000   .     S
O371   Zn377   2.000   .     S
O372   Zn378   2.000   .     S
O373   Zn377   2.001   .     S
O374   Zn378   2.001   .     S
O375   Zn377   2.001   .     S
O376   Zn378   2.001   .     S
C379   O426    1.282   .     A
C379   C397    1.420   .     S
C379   O423    1.282   .     A
C380   C396    1.397   .     A
C380   H417    1.084   .     S
C380   C436    1.370   .     S
C381   H418    1.084   .     S
C381   C396    1.397   .     A
C381   C458    1.370   .     S
C382   H419    1.084   .     S
C382   C397    1.397   .     A
C383   C387    1.380   .     A
C383   H420    1.083   .     S
C383   C394    1.399   .     A
C384   C388    1.380   .     A
C384   C395    1.399   .     A
C384   H406    1.083   .     S
C385   H407    1.083   .     S
C385   C389    1.380   .     A
C385   C395    1.399   .     A
C386   C391    1.381   .     A
C386   H408    1.083   .     S
C386   C394    1.399   .     A
C387   C392    1.399   .     A
C387   H409    1.084   .     S
C388   H410    1.084   .     S
C388   C393    1.399   .     A
C389   H411    1.084   .     S
C389   C393    1.399   .     A
C390   O425    1.282   .     A
C390   O424    1.282   .     A
C390   C396    1.420   .     S
C391   H412    1.084   .     S
C391   C392    1.399   .     A
C392   C398    1.437   .     S
C393   C399    1.437   .     S
C394   C881    1.444   1_554 S
C395   C880    1.444   .     S
C397   C404    1.397   .     A
C398   O430    1.286   .     A
C398   O427    1.286   .     A
C399   O429    1.286   .     A
C399   O428    1.286   .     A
C400   H405    1.082   .     S
C400   N422    1.366   .     A
C401   H413    1.082   .     S
C401   N421    1.366   .     A
C401   C78     1.416   1_565 S
C402   H414    1.082   .     S
C402   N422    1.366   .     A
C403   N421    1.366   .     A
C403   H415    1.082   .     S
C403   C76     1.416   1_565 S
C404   H416    1.084   .     S
N421   Zn431   2.007   .     S
N422   Zn432   2.007   .     S
O423   Zn431   2.000   .     S
O424   Zn432   2.000   .     S
O425   Zn431   2.000   .     S
O426   Zn432   2.000   .     S
O427   Zn431   2.001   .     S
O428   Zn432   2.001   .     S
O429   Zn431   2.001   .     S
O430   Zn432   2.001   .     S
C433   O480    1.282   .     A
C433   C451    1.420   .     S
C433   O477    1.282   .     A
C434   C450    1.397   .     A
C434   H471    1.084   .     S
C434   C328    1.370   1_655 S
C435   H472    1.084   .     S
C435   C450    1.397   .     A
C435   C350    1.370   1_655 S
C436   H473    1.084   .     S
C436   C451    1.397   .     A
C437   C441    1.380   .     A
C437   H474    1.083   .     S
C437   C448    1.399   .     A
C438   C442    1.380   .     A
C438   C449    1.399   .     A
C438   H460    1.083   .     S
C439   H461    1.083   .     S
C439   C443    1.380   .     A
C439   C449    1.399   .     A
C440   C445    1.381   .     A
C440   H462    1.083   .     S
C440   C448    1.399   .     A
C441   C446    1.399   .     A
C441   H463    1.084   .     S
C442   H464    1.084   .     S
C442   C447    1.399   .     A
C443   H465    1.084   .     S
C443   C447    1.399   .     A
C444   O479    1.282   .     A
C444   O478    1.282   .     A
C444   C450    1.420   .     S
C445   H466    1.084   .     S
C445   C446    1.399   .     A
C446   C452    1.437   .     S
C447   C453    1.437   .     S
C448   C935    1.444   1_554 S
C449   C934    1.444   .     S
C451   C458    1.397   .     A
C452   O484    1.286   .     A
C452   O481    1.286   .     A
C453   O483    1.286   .     A
C453   O482    1.286   .     A
C454   H459    1.082   .     S
C454   N476    1.366   .     A
C455   H467    1.082   .     S
C455   N475    1.366   .     A
C455   C132    1.416   1_565 S
C456   H468    1.082   .     S
C456   N476    1.366   .     A
C457   N475    1.366   .     A
C457   H469    1.082   .     S
C457   C130    1.416   1_565 S
C458   H470    1.084   .     S
N475   Zn485   2.007   .     S
N476   Zn486   2.007   .     S
O477   Zn485   2.000   .     S
O478   Zn486   2.000   .     S
O479   Zn485   2.000   .     S
O480   Zn486   2.000   .     S
O481   Zn485   2.001   .     S
O482   Zn486   2.001   .     S
O483   Zn485   2.001   .     S
O484   Zn486   2.001   .     S
C487   O534    1.282   .     A
C487   C505    1.420   .     S
C487   O531    1.282   .     A
C488   C504    1.397   .     A
C488   H525    1.084   .     S
C488   C544    1.370   .     S
C489   H526    1.084   .     S
C489   C504    1.397   .     A
C489   C566    1.370   .     S
C490   H527    1.084   .     S
C490   C505    1.397   .     A
C490   C596    1.370   1_455 S
C491   C495    1.380   .     A
C491   H528    1.083   .     S
C491   C502    1.399   .     A
C492   C496    1.380   .     A
C492   C503    1.399   .     A
C492   H514    1.083   .     S
C493   H515    1.083   .     S
C493   C497    1.380   .     A
C493   C503    1.399   .     A
C494   C499    1.381   .     A
C494   H516    1.083   .     S
C494   C502    1.399   .     A
C495   C500    1.399   .     A
C495   H517    1.084   .     S
C496   H518    1.084   .     S
C496   C501    1.399   .     A
C497   H519    1.084   .     S
C497   C501    1.399   .     A
C498   O533    1.282   .     A
C498   O532    1.282   .     A
C498   C504    1.420   .     S
C499   H520    1.084   .     S
C499   C500    1.399   .     A
C500   C506    1.437   .     S
C501   C507    1.437   .     S
C503   C16     1.444   1_556 S
C505   C512    1.397   .     A
C506   O538    1.286   .     A
C506   O535    1.286   .     A
C507   O537    1.286   .     A
C507   O536    1.286   .     A
C508   H513    1.082   .     S
C508   N530    1.366   .     A
C508   C835    1.416   1_545 S
C509   H521    1.082   .     S
C509   N529    1.366   .     A
C509   C672    1.416   .     S
C510   H522    1.082   .     S
C510   N530    1.366   .     A
C510   C833    1.416   1_545 S
C511   N529    1.366   .     A
C511   H523    1.082   .     S
C511   C670    1.416   .     S
C512   H524    1.084   .     S
C512   C597    1.370   1_455 S
N529   Zn539   2.007   .     S
N530   Zn540   2.007   .     S
O531   Zn539   2.000   .     S
O532   Zn540   2.000   .     S
O533   Zn539   2.000   .     S
O534   Zn540   2.000   .     S
O535   Zn539   2.001   .     S
O536   Zn540   2.001   .     S
O537   Zn539   2.001   .     S
O538   Zn540   2.001   .     S
C541   O588    1.282   .     A
C541   C559    1.420   .     S
C541   O585    1.282   .     A
C542   C558    1.397   .     A
C542   H579    1.084   .     S
C542   C598    1.370   .     S
C543   H580    1.084   .     S
C543   C558    1.397   .     A
C543   C620    1.370   .     S
C544   H581    1.084   .     S
C544   C559    1.397   .     A
C545   C549    1.380   .     A
C545   H582    1.083   .     S
C545   C556    1.399   .     A
C546   C550    1.380   .     A
C546   C557    1.399   .     A
C546   H568    1.083   .     S
C547   H569    1.083   .     S
C547   C551    1.380   .     A
C547   C557    1.399   .     A
C548   C553    1.381   .     A
C548   H570    1.083   .     S
C548   C556    1.399   .     A
C549   C554    1.399   .     A
C549   H571    1.084   .     S
C550   H572    1.084   .     S
C550   C555    1.399   .     A
C551   H573    1.084   .     S
C551   C555    1.399   .     A
C552   O587    1.282   .     A
C552   O586    1.282   .     A
C552   C558    1.420   .     S
C553   H574    1.084   .     S
C553   C554    1.399   .     A
C554   C560    1.437   .     S
C555   C561    1.437   .     S
C557   C70     1.444   1_556 S
C559   C566    1.397   .     A
C560   O592    1.286   .     A
C560   O589    1.286   .     A
C561   O591    1.286   .     A
C561   O590    1.286   .     A
C562   H567    1.082   .     S
C562   N584    1.366   .     A
C562   C889    1.416   1_545 S
C563   H575    1.082   .     S
C563   N583    1.366   .     A
C563   C726    1.416   .     S
C564   H576    1.082   .     S
C564   N584    1.366   .     A
C564   C887    1.416   1_545 S
C565   N583    1.366   .     A
C565   H577    1.082   .     S
C565   C724    1.416   .     S
C566   H578    1.084   .     S
N583   Zn593   2.007   .     S
N584   Zn594   2.007   .     S
O585   Zn593   2.000   .     S
O586   Zn594   2.000   .     S
O587   Zn593   2.000   .     S
O588   Zn594   2.000   .     S
O589   Zn593   2.001   .     S
O590   Zn594   2.001   .     S
O591   Zn593   2.001   .     S
O592   Zn594   2.001   .     S
C595   O642    1.282   .     A
C595   C613    1.420   .     S
C595   O639    1.282   .     A
C596   C612    1.397   .     A
C596   H633    1.084   .     S
C596   C490    1.370   1_655 S
C597   H634    1.084   .     S
C597   C612    1.397   .     A
C597   C512    1.370   1_655 S
C598   H635    1.084   .     S
C598   C613    1.397   .     A
C599   C603    1.380   .     A
C599   H636    1.083   .     S
C599   C610    1.399   .     A
C600   C604    1.380   .     A
C600   C611    1.399   .     A
C600   H622    1.083   .     S
C601   H623    1.083   .     S
C601   C605    1.380   .     A
C601   C611    1.399   .     A
C602   C607    1.381   .     A
C602   H624    1.083   .     S
C602   C610    1.399   .     A
C603   C608    1.399   .     A
C603   H625    1.084   .     S
C604   H626    1.084   .     S
C604   C609    1.399   .     A
C605   H627    1.084   .     S
C605   C609    1.399   .     A
C606   O641    1.282   .     A
C606   O640    1.282   .     A
C606   C612    1.420   .     S
C607   H628    1.084   .     S
C607   C608    1.399   .     A
C608   C614    1.437   .     S
C609   C615    1.437   .     S
C611   C124    1.444   1_556 S
C613   C620    1.397   .     A
C614   O646    1.286   .     A
C614   O643    1.286   .     A
C615   O645    1.286   .     A
C615   O644    1.286   .     A
C616   H621    1.082   .     S
C616   N638    1.366   .     A
C616   C943    1.416   1_545 S
C617   H629    1.082   .     S
C617   N637    1.366   .     A
C617   C780    1.416   .     S
C618   H630    1.082   .     S
C618   N638    1.366   .     A
C618   C941    1.416   1_545 S
C619   N637    1.366   .     A
C619   H631    1.082   .     S
C619   C778    1.416   .     S
C620   H632    1.084   .     S
N637   Zn647   2.007   .     S
N638   Zn648   2.007   .     S
O639   Zn647   2.000   .     S
O640   Zn648   2.000   .     S
O641   Zn647   2.000   .     S
O642   Zn648   2.000   .     S
O643   Zn647   2.001   .     S
O644   Zn648   2.001   .     S
O645   Zn647   2.001   .     S
O646   Zn648   2.001   .     S
C649   O696    1.282   .     A
C649   C667    1.420   .     S
C649   O693    1.282   .     A
C650   C666    1.397   .     A
C650   H687    1.084   .     S
C650   C706    1.370   .     S
C651   H688    1.084   .     S
C651   C666    1.397   .     A
C651   C728    1.370   .     S
C652   H689    1.084   .     S
C652   C667    1.397   .     A
C652   C758    1.370   1_455 S
C653   C657    1.380   .     A
C653   H690    1.083   .     S
C653   C664    1.399   .     A
C654   C658    1.380   .     A
C654   C665    1.399   .     A
C654   H676    1.083   .     S
C655   H677    1.083   .     S
C655   C659    1.380   .     A
C655   C665    1.399   .     A
C656   C661    1.381   .     A
C656   H678    1.083   .     S
C656   C664    1.399   .     A
C657   C662    1.399   .     A
C657   H679    1.084   .     S
C658   H680    1.084   .     S
C658   C663    1.399   .     A
C659   H681    1.084   .     S
C659   C663    1.399   .     A
C660   O695    1.282   .     A
C660   O694    1.282   .     A
C660   C666    1.420   .     S
C661   H682    1.084   .     S
C661   C662    1.399   .     A
C662   C668    1.437   .     S
C663   C669    1.437   .     S
C665   C178    1.444   1_556 S
C667   C674    1.397   .     A
C668   O700    1.286   .     A
C668   O697    1.286   .     A
C669   O699    1.286   .     A
C669   O698    1.286   .     A
C670   H675    1.082   .     S
C670   N692    1.366   .     A
C671   H683    1.082   .     S
C671   N691    1.366   .     A
C671   C834    1.416   .     S
C672   H684    1.082   .     S
C672   N692    1.366   .     A
C673   N691    1.366   .     A
C673   H685    1.082   .     S
C673   C832    1.416   .     S
C674   H686    1.084   .     S
C674   C759    1.370   1_455 S
N691   Zn701   2.007   .     S
N692   Zn702   2.007   .     S
O693   Zn701   2.000   .     S
O694   Zn702   2.000   .     S
O695   Zn701   2.000   .     S
O696   Zn702   2.000   .     S
O697   Zn701   2.001   .     S
O698   Zn702   2.001   .     S
O699   Zn701   2.001   .     S
O700   Zn702   2.001   .     S
C703   O750    1.282   .     A
C703   C721    1.420   .     S
C703   O747    1.282   .     A
C704   C720    1.397   .     A
C704   H741    1.084   .     S
C704   C760    1.370   .     S
C705   H742    1.084   .     S
C705   C720    1.397   .     A
C705   C782    1.370   .     S
C706   H743    1.084   .     S
C706   C721    1.397   .     A
C707   C711    1.380   .     A
C707   H744    1.083   .     S
C707   C718    1.399   .     A
C708   C712    1.380   .     A
C708   C719    1.399   .     A
C708   H730    1.083   .     S
C709   H731    1.083   .     S
C709   C713    1.380   .     A
C709   C719    1.399   .     A
C710   C715    1.381   .     A
C710   H732    1.083   .     S
C710   C718    1.399   .     A
C711   C716    1.399   .     A
C711   H733    1.084   .     S
C712   H734    1.084   .     S
C712   C717    1.399   .     A
C713   H735    1.084   .     S
C713   C717    1.399   .     A
C714   O749    1.282   .     A
C714   O748    1.282   .     A
C714   C720    1.420   .     S
C715   H736    1.084   .     S
C715   C716    1.399   .     A
C716   C722    1.437   .     S
C717   C723    1.437   .     S
C719   C232    1.444   1_556 S
C721   C728    1.397   .     A
C722   O754    1.286   .     A
C722   O751    1.286   .     A
C723   O753    1.286   .     A
C723   O752    1.286   .     A
C724   H729    1.082   .     S
C724   N746    1.366   .     A
C725   H737    1.082   .     S
C725   N745    1.366   .     A
C725   C888    1.416   .     S
C726   H738    1.082   .     S
C726   N746    1.366   .     A
C727   N745    1.366   .     A
C727   H739    1.082   .     S
C727   C886    1.416   .     S
C728   H740    1.084   .     S
N745   Zn755   2.007   .     S
N746   Zn756   2.007   .     S
O747   Zn755   2.000   .     S
O748   Zn756   2.000   .     S
O749   Zn755   2.000   .     S
O750   Zn756   2.000   .     S
O751   Zn755   2.001   .     S
O752   Zn756   2.001   .     S
O753   Zn755   2.001   .     S
O754   Zn756   2.001   .     S
C757   O804    1.282   .     A
C757   C775    1.420   .     S
C757   O801    1.282   .     A
C758   C774    1.397   .     A
C758   H795    1.084   .     S
C758   C652    1.370   1_655 S
C759   H796    1.084   .     S
C759   C774    1.397   .     A
C759   C674    1.370   1_655 S
C760   H797    1.084   .     S
C760   C775    1.397   .     A
C761   C765    1.380   .     A
C761   H798    1.083   .     S
C761   C772    1.399   .     A
C762   C766    1.380   .     A
C762   C773    1.399   .     A
C762   H784    1.083   .     S
C763   H785    1.083   .     S
C763   C767    1.380   .     A
C763   C773    1.399   .     A
C764   C769    1.381   .     A
C764   H786    1.083   .     S
C764   C772    1.399   .     A
C765   C770    1.399   .     A
C765   H787    1.084   .     S
C766   H788    1.084   .     S
C766   C771    1.399   .     A
C767   H789    1.084   .     S
C767   C771    1.399   .     A
C768   O803    1.282   .     A
C768   O802    1.282   .     A
C768   C774    1.420   .     S
C769   H790    1.084   .     S
C769   C770    1.399   .     A
C770   C776    1.437   .     S
C771   C777    1.437   .     S
C773   C286    1.444   1_556 S
C775   C782    1.397   .     A
C776   O808    1.286   .     A
C776   O805    1.286   .     A
C777   O807    1.286   .     A
C777   O806    1.286   .     A
C778   H783    1.082   .     S
C778   N800    1.366   .     A
C779   H791    1.082   .     S
C779   N799    1.366   .     A
C779   C942    1.416   .     S
C780   H792    1.082   .     S
C780   N800    1.366   .     A
C781   N799    1.366   .     A
C781   H793    1.082   .     S
C781   C940    1.416   .     S
C782   H794    1.084   .     S
N799   Zn809   2.007   .     S
N800   Zn810   2.007   .     S
O801   Zn809   2.000   .     S
O802   Zn810   2.000   .     S
O803   Zn809   2.000   .     S
O804   Zn810   2.000   .     S
O805   Zn809   2.001   .     S
O806   Zn810   2.001   .     S
O807   Zn809   2.001   .     S
O808   Zn810   2.001   .     S
C811   O858    1.282   .     A
C811   C829    1.420   .     S
C811   O855    1.282   .     A
C812   C828    1.397   .     A
C812   H849    1.084   .     S
C812   C868    1.370   .     S
C813   H850    1.084   .     S
C813   C828    1.397   .     A
C813   C890    1.370   .     S
C814   H851    1.084   .     S
C814   C829    1.397   .     A
C814   C920    1.370   1_455 S
C815   C819    1.380   .     A
C815   H852    1.083   .     S
C815   C826    1.399   .     A
C816   C820    1.380   .     A
C816   C827    1.399   .     A
C816   H838    1.083   .     S
C817   H839    1.083   .     S
C817   C821    1.380   .     A
C817   C827    1.399   .     A
C818   C823    1.381   .     A
C818   H840    1.083   .     S
C818   C826    1.399   .     A
C819   C824    1.399   .     A
C819   H841    1.084   .     S
C820   H842    1.084   .     S
C820   C825    1.399   .     A
C821   H843    1.084   .     S
C821   C825    1.399   .     A
C822   O857    1.282   .     A
C822   O856    1.282   .     A
C822   C828    1.420   .     S
C823   H844    1.084   .     S
C823   C824    1.399   .     A
C824   C830    1.437   .     S
C825   C831    1.437   .     S
C827   C340    1.444   1_556 S
C829   C836    1.397   .     A
C830   O862    1.286   .     A
C830   O859    1.286   .     A
C831   O861    1.286   .     A
C831   O860    1.286   .     A
C832   H837    1.082   .     S
C832   N854    1.366   .     A
C833   H845    1.082   .     S
C833   N853    1.366   .     A
C833   C510    1.416   1_565 S
C834   H846    1.082   .     S
C834   N854    1.366   .     A
C835   N853    1.366   .     A
C835   H847    1.082   .     S
C835   C508    1.416   1_565 S
C836   H848    1.084   .     S
C836   C921    1.370   1_455 S
N853   Zn863   2.007   .     S
N854   Zn864   2.007   .     S
O855   Zn863   2.000   .     S
O856   Zn864   2.000   .     S
O857   Zn863   2.000   .     S
O858   Zn864   2.000   .     S
O859   Zn863   2.001   .     S
O860   Zn864   2.001   .     S
O861   Zn863   2.001   .     S
O862   Zn864   2.001   .     S
C865   O912    1.282   .     A
C865   C883    1.420   .     S
C865   O909    1.282   .     A
C866   C882    1.397   .     A
C866   H903    1.084   .     S
C866   C922    1.370   .     S
C867   H904    1.084   .     S
C867   C882    1.397   .     A
C867   C944    1.370   .     S
C868   H905    1.084   .     S
C868   C883    1.397   .     A
C869   C873    1.380   .     A
C869   H906    1.083   .     S
C869   C880    1.399   .     A
C870   C874    1.380   .     A
C870   C881    1.399   .     A
C870   H892    1.083   .     S
C871   H893    1.083   .     S
C871   C875    1.380   .     A
C871   C881    1.399   .     A
C872   C877    1.381   .     A
C872   H894    1.083   .     S
C872   C880    1.399   .     A
C873   C878    1.399   .     A
C873   H895    1.084   .     S
C874   H896    1.084   .     S
C874   C879    1.399   .     A
C875   H897    1.084   .     S
C875   C879    1.399   .     A
C876   O911    1.282   .     A
C876   O910    1.282   .     A
C876   C882    1.420   .     S
C877   H898    1.084   .     S
C877   C878    1.399   .     A
C878   C884    1.437   .     S
C879   C885    1.437   .     S
C881   C394    1.444   1_556 S
C883   C890    1.397   .     A
C884   O916    1.286   .     A
C884   O913    1.286   .     A
C885   O915    1.286   .     A
C885   O914    1.286   .     A
C886   H891    1.082   .     S
C886   N908    1.366   .     A
C887   H899    1.082   .     S
C887   N907    1.366   .     A
C887   C564    1.416   1_565 S
C888   H900    1.082   .     S
C888   N908    1.366   .     A
C889   N907    1.366   .     A
C889   H901    1.082   .     S
C889   C562    1.416   1_565 S
C890   H902    1.084   .     S
N907   Zn917   2.007   .     S
N908   Zn918   2.007   .     S
O909   Zn917   2.000   .     S
O910   Zn918   2.000   .     S
O911   Zn917   2.000   .     S
O912   Zn918   2.000   .     S
O913   Zn917   2.001   .     S
O914   Zn918   2.001   .     S
O915   Zn917   2.001   .     S
O916   Zn918   2.001   .     S
C919   O966    1.282   .     A
C919   C937    1.420   .     S
C919   O963    1.282   .     A
C920   C936    1.397   .     A
C920   H957    1.084   .     S
C920   C814    1.370   1_655 S
C921   H958    1.084   .     S
C921   C936    1.397   .     A
C921   C836    1.370   1_655 S
C922   H959    1.084   .     S
C922   C937    1.397   .     A
C923   C927    1.380   .     A
C923   H960    1.083   .     S
C923   C934    1.399   .     A
C924   C928    1.380   .     A
C924   C935    1.399   .     A
C924   H946    1.083   .     S
C925   H947    1.083   .     S
C925   C929    1.380   .     A
C925   C935    1.399   .     A
C926   C931    1.381   .     A
C926   H948    1.083   .     S
C926   C934    1.399   .     A
C927   C932    1.399   .     A
C927   H949    1.084   .     S
C928   H950    1.084   .     S
C928   C933    1.399   .     A
C929   H951    1.084   .     S
C929   C933    1.399   .     A
C930   O965    1.282   .     A
C930   O964    1.282   .     A
C930   C936    1.420   .     S
C931   H952    1.084   .     S
C931   C932    1.399   .     A
C932   C938    1.437   .     S
C933   C939    1.437   .     S
C935   C448    1.444   1_556 S
C937   C944    1.397   .     A
C938   O970    1.286   .     A
C938   O967    1.286   .     A
C939   O969    1.286   .     A
C939   O968    1.286   .     A
C940   H945    1.082   .     S
C940   N962    1.366   .     A
C941   H953    1.082   .     S
C941   N961    1.366   .     A
C941   C618    1.416   1_565 S
C942   H954    1.082   .     S
C942   N962    1.366   .     A
C943   N961    1.366   .     A
C943   H955    1.082   .     S
C943   C616    1.416   1_565 S
C944   H956    1.084   .     S
N961   Zn971   2.007   .     S
N962   Zn972   2.007   .     S
O963   Zn971   2.000   .     S
O964   Zn972   2.000   .     S
O965   Zn971   2.000   .     S
O966   Zn972   2.000   .     S
O967   Zn971   2.001   .     S
O968   Zn972   2.001   .     S
O969   Zn971   2.001   .     S
O970   Zn972   2.001   .     S
