data_str_m3_o2_o10_pcu_sym.95
_audit_creation_date              2020-01-03
_audit_creation_method            'Materials Studio'
_symmetry_space_group_name_H-M    'P1'
_symmetry_Int_Tables_number       1
_symmetry_cell_setting            triclinic
loop_
_symmetry_equiv_pos_as_xyz
  x,y,z
_cell_length_a                    25.6470
_cell_length_b                    29.6404
_cell_length_c                    28.5595
_cell_angle_alpha                 87.8266
_cell_angle_beta                  97.1170
_cell_angle_gamma                 92.1373
loop_
_atom_site_label
_atom_site_type_symbol
_atom_site_fract_x
_atom_site_fract_y
_atom_site_fract_z
_atom_site_U_iso_or_equiv
_atom_site_adp_type
_atom_site_occupancy
C1     C     0.16874   0.16395   0.25092   0.00000  Uiso   1.00
C2     C     0.12786   0.23020   0.44549   0.00000  Uiso   1.00
C3     C     0.17046   0.24812   0.02726   0.00000  Uiso   1.00
C4     C     0.17058   0.24888   0.47407   0.00000  Uiso   1.00
C5     C     0.06724   0.24882   0.23804   0.00000  Uiso   1.00
C6     C     0.26609   0.25153   0.26188   0.00000  Uiso   1.00
C7     C     0.01246   0.24443   0.23231   0.00000  Uiso   1.00
C8     C     0.32085   0.25650   0.26729   0.00000  Uiso   1.00
C9     C     0.15505   0.04111   0.27588   0.00000  Uiso   1.00
C10    C     0.15016   0.45728   0.21756   0.00000  Uiso   1.00
C11    C     0.14791   0.08682   0.27713   0.00000  Uiso   1.00
C12    C     0.16737   0.33617   0.24927   0.00000  Uiso   1.00
C13    C     0.14145   0.41104   0.21855   0.00000  Uiso   1.00
C14    C     0.17895   0.11664   0.25312   0.00000  Uiso   1.00
C15    C     0.17560   0.38418   0.24817   0.00000  Uiso   1.00
C16    C     0.21937   0.10121   0.22979   0.00000  Uiso   1.00
C17    C     0.22001   0.40281   0.27484   0.00000  Uiso   1.00
C18    C     0.22703   0.05507   0.22823   0.00000  Uiso   1.00
C19    C     0.22975   0.44937   0.27374   0.00000  Uiso   1.00
C20    C     0.19329   0.02501   0.25045   0.00000  Uiso   1.00
C21    C     0.19327   0.47662   0.24572   0.00000  Uiso   1.00
C22    C     0.26879   0.03966   0.20206   0.00000  Uiso   1.00
C23    C     0.14200   0.21479   0.05148   0.00000  Uiso   1.00
C24    C     0.32175   0.04976   0.21816   0.00000  Uiso   1.00
C25    C     0.02797   0.03691   0.19235   0.00000  Uiso   1.00
C26    C     0.01494   0.01406   0.15038   0.00000  Uiso   1.00
C27    C     0.29559   0.00443   0.13391   0.00000  Uiso   1.00
C28    C     0.25588   0.01732   0.15957   0.00000  Uiso   1.00
C29    C     0.27806   0.46793   0.30145   0.00000  Uiso   1.00
C30    C     0.32721   0.45130   0.29494   0.00000  Uiso   1.00
C31    C     0.03977   0.46786   0.32105   0.00000  Uiso   1.00
C32    C     0.03715   0.00133   0.35375   0.00000  Uiso   1.00
C33    C     0.32181   0.01770   0.36093   0.00000  Uiso   1.00
C34    C     0.21164   0.26886   0.45076   0.00000  Uiso   1.00
C35    C     0.27570   0.00086   0.33524   0.00000  Uiso   1.00
C36    C     0.22822   0.31709   0.12953   0.00000  Uiso   1.00
C37    C     0.28174   0.31009   0.14362   0.00000  Uiso   1.00
C38    C     0.31423   0.34473   0.16423   0.00000  Uiso   1.00
C39    C     0.29378   0.38704   0.16928   0.00000  Uiso   1.00
C40    C     0.24105   0.39477   0.15326   0.00000  Uiso   1.00
C41    C     0.20844   0.36013   0.13295   0.00000  Uiso   1.00
C42    C     0.08012   0.20609   0.37131   0.00000  Uiso   1.00
C43    C     0.08517   0.16258   0.35512   0.00000  Uiso   1.00
C44    C     0.04041   0.13528   0.34165   0.00000  Uiso   1.00
C45    C     0.14020   0.21663   0.10056   0.00000  Uiso   1.00
C46    C     0.32381   0.15039   0.34607   0.00000  Uiso   1.00
C47    C     0.31852   0.19253   0.36468   0.00000  Uiso   1.00
C48    C     0.02957   0.22047   0.37678   0.00000  Uiso   1.00
C49    C     0.20866   0.26937   0.40089   0.00000  Uiso   1.00
C50    C     0.19582   0.28207   0.10367   0.00000  Uiso   1.00
C51    C     0.12631   0.23014   0.39607   0.00000  Uiso   1.00
C52    C     0.19734   0.28181   0.05456   0.00000  Uiso   1.00
H53    H     0.32615   0.23002   0.20011   0.00000  Uiso   1.00
H54    H     0.24631   0.28360   0.47066   0.00000  Uiso   1.00
H55    H     0.11812   0.19079   0.11820   0.00000  Uiso   1.00
H56    H     0.24062   0.28492   0.38401   0.00000  Uiso   1.00
H57    H     0.21941   0.30845   0.03798   0.00000  Uiso   1.00
H58    H     0.09480   0.21537   0.46143   0.00000  Uiso   1.00
H59    H     0.33230   0.06757   0.25057   0.00000  Uiso   1.00
H60    H     0.06866   0.04499   0.20465   0.00000  Uiso   1.00
H61    H     0.04563   0.00412   0.13045   0.00000  Uiso   1.00
H62    H     0.28550   0.48704   0.10121   0.00000  Uiso   1.00
H63    H     0.21512   0.01034   0.14614   0.00000  Uiso   1.00
H64    H     0.00723   0.27124   0.29926   0.00000  Uiso   1.00
H65    H     0.33002   0.42550   0.26964   0.00000  Uiso   1.00
H66    H     0.07732   0.45455   0.31598   0.00000  Uiso   1.00
H67    H     0.07279   0.01433   0.37376   0.00000  Uiso   1.00
H68    H     0.31976   0.04325   0.38668   0.00000  Uiso   1.00
H69    H     0.23833   0.01309   0.34227   0.00000  Uiso   1.00
H70    H     0.29836   0.27810   0.13769   0.00000  Uiso   1.00
H71    H     0.02205   0.33899   0.17554   0.00000  Uiso   1.00
H72    H     0.31897   0.41402   0.18476   0.00000  Uiso   1.00
H73    H     0.22528   0.42757   0.15648   0.00000  Uiso   1.00
H74    H     0.16782   0.36675   0.12008   0.00000  Uiso   1.00
H75    H     0.12944   0.01804   0.29331   0.00000  Uiso   1.00
H76    H     0.12370   0.14875   0.35608   0.00000  Uiso   1.00
H77    H     0.04417   0.10150   0.32989   0.00000  Uiso   1.00
H78    H     0.28940   0.12881   0.33663   0.00000  Uiso   1.00
H79    H     0.28010   0.20317   0.37061   0.00000  Uiso   1.00
H80    H     0.02477   0.25260   0.39232   0.00000  Uiso   1.00
H81    H     0.12239   0.47829   0.19592   0.00000  Uiso   1.00
H82    H     0.11657   0.09865   0.29456   0.00000  Uiso   1.00
H83    H     0.10771   0.39631   0.19713   0.00000  Uiso   1.00
H84    H     0.24401   0.12505   0.21195   0.00000  Uiso   1.00
H85    H     0.24702   0.38093   0.29642   0.00000  Uiso   1.00
H86    H     0.12151   0.18691   0.03302   0.00000  Uiso   1.00
N87    N     0.16667   0.24999   0.12623   0.00000  Uiso   1.00
N88    N     0.16667   0.25001   0.37376   0.00000  Uiso   1.00
O89    O     0.16667   0.18454   0.28974   0.00000  Uiso   1.00
O90    O     0.16666   0.31547   0.21026   0.00000  Uiso   1.00
O91    O     0.16667   0.18453   0.21026   0.00000  Uiso   1.00
O92    O     0.16666   0.31547   0.28974   0.00000  Uiso   1.00
O93    O     0.09058   0.25000   0.28044   0.00000  Uiso   1.00
O94    O     0.24275   0.25000   0.21955   0.00000  Uiso   1.00
O95    O     0.09058   0.25000   0.20096   0.00000  Uiso   1.00
O96    O     0.24275   0.25001   0.29903   0.00000  Uiso   1.00
Zn97   Zn    0.16667   0.25001   0.30307   0.00000  Uiso   1.00
Zn98   Zn    0.16667   0.25000   0.19693   0.00000  Uiso   1.00
C99    C     0.50207   0.16395   0.25092   0.00000  Uiso   1.00
C100   C     0.46119   0.23020   0.44549   0.00000  Uiso   1.00
C101   C     0.50380   0.24812   0.02726   0.00000  Uiso   1.00
C102   C     0.50392   0.24888   0.47407   0.00000  Uiso   1.00
C103   C     0.40057   0.24882   0.23804   0.00000  Uiso   1.00
C104   C     0.59943   0.25153   0.26188   0.00000  Uiso   1.00
C105   C     0.34579   0.24443   0.23231   0.00000  Uiso   1.00
C106   C     0.65419   0.25650   0.26729   0.00000  Uiso   1.00
C107   C     0.48838   0.04111   0.27588   0.00000  Uiso   1.00
C108   C     0.48349   0.45728   0.21756   0.00000  Uiso   1.00
C109   C     0.48124   0.08682   0.27713   0.00000  Uiso   1.00
C110   C     0.50070   0.33617   0.24927   0.00000  Uiso   1.00
C111   C     0.47478   0.41104   0.21855   0.00000  Uiso   1.00
C112   C     0.51228   0.11664   0.25312   0.00000  Uiso   1.00
C113   C     0.50893   0.38418   0.24817   0.00000  Uiso   1.00
C114   C     0.55270   0.10121   0.22979   0.00000  Uiso   1.00
C115   C     0.55335   0.40281   0.27484   0.00000  Uiso   1.00
C116   C     0.56036   0.05507   0.22823   0.00000  Uiso   1.00
C117   C     0.56308   0.44937   0.27374   0.00000  Uiso   1.00
C118   C     0.52662   0.02501   0.25045   0.00000  Uiso   1.00
C119   C     0.52660   0.47662   0.24572   0.00000  Uiso   1.00
C120   C     0.60213   0.03966   0.20206   0.00000  Uiso   1.00
C121   C     0.47533   0.21479   0.05148   0.00000  Uiso   1.00
C122   C     0.65508   0.04976   0.21816   0.00000  Uiso   1.00
C123   C     0.36130   0.03691   0.19235   0.00000  Uiso   1.00
C124   C     0.34828   0.01406   0.15038   0.00000  Uiso   1.00
C125   C     0.62892   0.00443   0.13391   0.00000  Uiso   1.00
C126   C     0.58921   0.01732   0.15957   0.00000  Uiso   1.00
C127   C     0.61139   0.46793   0.30145   0.00000  Uiso   1.00
C128   C     0.66054   0.45130   0.29494   0.00000  Uiso   1.00
C129   C     0.37310   0.46786   0.32105   0.00000  Uiso   1.00
C130   C     0.37049   0.00133   0.35375   0.00000  Uiso   1.00
C131   C     0.65514   0.01770   0.36093   0.00000  Uiso   1.00
C132   C     0.54497   0.26886   0.45076   0.00000  Uiso   1.00
C133   C     0.60903   0.00086   0.33524   0.00000  Uiso   1.00
C134   C     0.56156   0.31709   0.12953   0.00000  Uiso   1.00
C135   C     0.61508   0.31009   0.14362   0.00000  Uiso   1.00
C136   C     0.64756   0.34473   0.16423   0.00000  Uiso   1.00
C137   C     0.62711   0.38704   0.16928   0.00000  Uiso   1.00
C138   C     0.57438   0.39477   0.15326   0.00000  Uiso   1.00
C139   C     0.54177   0.36013   0.13295   0.00000  Uiso   1.00
C140   C     0.41345   0.20609   0.37131   0.00000  Uiso   1.00
C141   C     0.41850   0.16258   0.35512   0.00000  Uiso   1.00
C142   C     0.37374   0.13528   0.34165   0.00000  Uiso   1.00
C143   C     0.47353   0.21663   0.10056   0.00000  Uiso   1.00
C144   C     0.65714   0.15039   0.34607   0.00000  Uiso   1.00
C145   C     0.65185   0.19253   0.36468   0.00000  Uiso   1.00
C146   C     0.36290   0.22047   0.37678   0.00000  Uiso   1.00
C147   C     0.54199   0.26937   0.40089   0.00000  Uiso   1.00
C148   C     0.52915   0.28207   0.10367   0.00000  Uiso   1.00
C149   C     0.45965   0.23014   0.39607   0.00000  Uiso   1.00
C150   C     0.53067   0.28181   0.05456   0.00000  Uiso   1.00
H151   H     0.65948   0.23002   0.20011   0.00000  Uiso   1.00
H152   H     0.57964   0.28360   0.47066   0.00000  Uiso   1.00
H153   H     0.45145   0.19079   0.11820   0.00000  Uiso   1.00
H154   H     0.57396   0.28492   0.38401   0.00000  Uiso   1.00
H155   H     0.55274   0.30845   0.03798   0.00000  Uiso   1.00
H156   H     0.42814   0.21537   0.46143   0.00000  Uiso   1.00
H157   H     0.66564   0.06757   0.25057   0.00000  Uiso   1.00
H158   H     0.40199   0.04499   0.20465   0.00000  Uiso   1.00
H159   H     0.37897   0.00412   0.13045   0.00000  Uiso   1.00
H160   H     0.61883   0.48704   0.10121   0.00000  Uiso   1.00
H161   H     0.54846   0.01034   0.14614   0.00000  Uiso   1.00
H162   H     0.34056   0.27124   0.29926   0.00000  Uiso   1.00
H163   H     0.66335   0.42550   0.26964   0.00000  Uiso   1.00
H164   H     0.41065   0.45455   0.31598   0.00000  Uiso   1.00
H165   H     0.40612   0.01433   0.37376   0.00000  Uiso   1.00
H166   H     0.65309   0.04325   0.38668   0.00000  Uiso   1.00
H167   H     0.57166   0.01309   0.34227   0.00000  Uiso   1.00
H168   H     0.63169   0.27810   0.13769   0.00000  Uiso   1.00
H169   H     0.35538   0.33899   0.17554   0.00000  Uiso   1.00
H170   H     0.65230   0.41402   0.18476   0.00000  Uiso   1.00
H171   H     0.55862   0.42757   0.15648   0.00000  Uiso   1.00
H172   H     0.50115   0.36675   0.12008   0.00000  Uiso   1.00
H173   H     0.46278   0.01804   0.29331   0.00000  Uiso   1.00
H174   H     0.45703   0.14875   0.35608   0.00000  Uiso   1.00
H175   H     0.37750   0.10150   0.32989   0.00000  Uiso   1.00
H176   H     0.62273   0.12881   0.33663   0.00000  Uiso   1.00
H177   H     0.61343   0.20317   0.37061   0.00000  Uiso   1.00
H178   H     0.35810   0.25260   0.39232   0.00000  Uiso   1.00
H179   H     0.45573   0.47829   0.19592   0.00000  Uiso   1.00
H180   H     0.44990   0.09865   0.29456   0.00000  Uiso   1.00
H181   H     0.44104   0.39631   0.19713   0.00000  Uiso   1.00
H182   H     0.57734   0.12505   0.21195   0.00000  Uiso   1.00
H183   H     0.58035   0.38093   0.29642   0.00000  Uiso   1.00
H184   H     0.45485   0.18691   0.03302   0.00000  Uiso   1.00
N185   N     0.50000   0.24999   0.12623   0.00000  Uiso   1.00
N186   N     0.50000   0.25001   0.37376   0.00000  Uiso   1.00
O187   O     0.50000   0.18454   0.28974   0.00000  Uiso   1.00
O188   O     0.50000   0.31547   0.21026   0.00000  Uiso   1.00
O189   O     0.50000   0.18453   0.21026   0.00000  Uiso   1.00
O190   O     0.50000   0.31547   0.28974   0.00000  Uiso   1.00
O191   O     0.42392   0.25000   0.28044   0.00000  Uiso   1.00
O192   O     0.57608   0.25000   0.21955   0.00000  Uiso   1.00
O193   O     0.42392   0.25000   0.20096   0.00000  Uiso   1.00
O194   O     0.57608   0.25001   0.29903   0.00000  Uiso   1.00
Zn195  Zn    0.50000   0.25001   0.30307   0.00000  Uiso   1.00
Zn196  Zn    0.50000   0.25000   0.19693   0.00000  Uiso   1.00
C197   C     0.83540   0.16395   0.25092   0.00000  Uiso   1.00
C198   C     0.79453   0.23020   0.44549   0.00000  Uiso   1.00
C199   C     0.83713   0.24812   0.02726   0.00000  Uiso   1.00
C200   C     0.83725   0.24888   0.47407   0.00000  Uiso   1.00
C201   C     0.73390   0.24882   0.23804   0.00000  Uiso   1.00
C202   C     0.93276   0.25153   0.26188   0.00000  Uiso   1.00
C203   C     0.67913   0.24443   0.23231   0.00000  Uiso   1.00
C204   C     0.98752   0.25650   0.26729   0.00000  Uiso   1.00
C205   C     0.82171   0.04111   0.27588   0.00000  Uiso   1.00
C206   C     0.81682   0.45728   0.21756   0.00000  Uiso   1.00
C207   C     0.81458   0.08682   0.27713   0.00000  Uiso   1.00
C208   C     0.83404   0.33617   0.24927   0.00000  Uiso   1.00
C209   C     0.80812   0.41104   0.21855   0.00000  Uiso   1.00
C210   C     0.84561   0.11664   0.25312   0.00000  Uiso   1.00
C211   C     0.84226   0.38418   0.24817   0.00000  Uiso   1.00
C212   C     0.88604   0.10121   0.22979   0.00000  Uiso   1.00
C213   C     0.88668   0.40281   0.27484   0.00000  Uiso   1.00
C214   C     0.89369   0.05507   0.22823   0.00000  Uiso   1.00
C215   C     0.89641   0.44937   0.27374   0.00000  Uiso   1.00
C216   C     0.85995   0.02501   0.25045   0.00000  Uiso   1.00
C217   C     0.85994   0.47662   0.24572   0.00000  Uiso   1.00
C218   C     0.93546   0.03966   0.20206   0.00000  Uiso   1.00
C219   C     0.80867   0.21479   0.05148   0.00000  Uiso   1.00
C220   C     0.98842   0.04976   0.21816   0.00000  Uiso   1.00
C221   C     0.69464   0.03691   0.19235   0.00000  Uiso   1.00
C222   C     0.68161   0.01406   0.15038   0.00000  Uiso   1.00
C223   C     0.96225   0.00443   0.13391   0.00000  Uiso   1.00
C224   C     0.92254   0.01732   0.15957   0.00000  Uiso   1.00
C225   C     0.94473   0.46793   0.30145   0.00000  Uiso   1.00
C226   C     0.99387   0.45130   0.29494   0.00000  Uiso   1.00
C227   C     0.70644   0.46786   0.32105   0.00000  Uiso   1.00
C228   C     0.70382   0.00133   0.35375   0.00000  Uiso   1.00
C229   C     0.98847   0.01770   0.36093   0.00000  Uiso   1.00
C230   C     0.87830   0.26886   0.45076   0.00000  Uiso   1.00
C231   C     0.94236   0.00086   0.33524   0.00000  Uiso   1.00
C232   C     0.89489   0.31709   0.12953   0.00000  Uiso   1.00
C233   C     0.94841   0.31009   0.14362   0.00000  Uiso   1.00
C234   C     0.98090   0.34473   0.16423   0.00000  Uiso   1.00
C235   C     0.96044   0.38704   0.16928   0.00000  Uiso   1.00
C236   C     0.90771   0.39477   0.15326   0.00000  Uiso   1.00
C237   C     0.87510   0.36013   0.13295   0.00000  Uiso   1.00
C238   C     0.74678   0.20609   0.37131   0.00000  Uiso   1.00
C239   C     0.75184   0.16258   0.35512   0.00000  Uiso   1.00
C240   C     0.70707   0.13528   0.34165   0.00000  Uiso   1.00
C241   C     0.80687   0.21663   0.10056   0.00000  Uiso   1.00
C242   C     0.99047   0.15039   0.34607   0.00000  Uiso   1.00
C243   C     0.98519   0.19253   0.36468   0.00000  Uiso   1.00
C244   C     0.69623   0.22047   0.37678   0.00000  Uiso   1.00
C245   C     0.87533   0.26937   0.40089   0.00000  Uiso   1.00
C246   C     0.86248   0.28207   0.10367   0.00000  Uiso   1.00
C247   C     0.79298   0.23014   0.39607   0.00000  Uiso   1.00
C248   C     0.86401   0.28181   0.05456   0.00000  Uiso   1.00
H249   H     0.99282   0.23002   0.20011   0.00000  Uiso   1.00
H250   H     0.91298   0.28360   0.47066   0.00000  Uiso   1.00
H251   H     0.78478   0.19079   0.11820   0.00000  Uiso   1.00
H252   H     0.90729   0.28492   0.38401   0.00000  Uiso   1.00
H253   H     0.88608   0.30845   0.03798   0.00000  Uiso   1.00
H254   H     0.76147   0.21537   0.46143   0.00000  Uiso   1.00
H255   H     0.99897   0.06757   0.25057   0.00000  Uiso   1.00
H256   H     0.73532   0.04499   0.20465   0.00000  Uiso   1.00
H257   H     0.71230   0.00412   0.13045   0.00000  Uiso   1.00
H258   H     0.95216   0.48704   0.10121   0.00000  Uiso   1.00
H259   H     0.88179   0.01034   0.14614   0.00000  Uiso   1.00
H260   H     0.67389   0.27124   0.29926   0.00000  Uiso   1.00
H261   H     0.99668   0.42550   0.26964   0.00000  Uiso   1.00
H262   H     0.74399   0.45455   0.31598   0.00000  Uiso   1.00
H263   H     0.73946   0.01433   0.37376   0.00000  Uiso   1.00
H264   H     0.98642   0.04325   0.38668   0.00000  Uiso   1.00
H265   H     0.90500   0.01309   0.34227   0.00000  Uiso   1.00
H266   H     0.96502   0.27810   0.13769   0.00000  Uiso   1.00
H267   H     0.68871   0.33899   0.17554   0.00000  Uiso   1.00
H268   H     0.98564   0.41402   0.18476   0.00000  Uiso   1.00
H269   H     0.89195   0.42757   0.15648   0.00000  Uiso   1.00
H270   H     0.83449   0.36675   0.12008   0.00000  Uiso   1.00
H271   H     0.79611   0.01804   0.29331   0.00000  Uiso   1.00
H272   H     0.79037   0.14875   0.35608   0.00000  Uiso   1.00
H273   H     0.71083   0.10150   0.32989   0.00000  Uiso   1.00
H274   H     0.95607   0.12881   0.33663   0.00000  Uiso   1.00
H275   H     0.94677   0.20317   0.37061   0.00000  Uiso   1.00
H276   H     0.69143   0.25260   0.39232   0.00000  Uiso   1.00
H277   H     0.78906   0.47829   0.19592   0.00000  Uiso   1.00
H278   H     0.78324   0.09865   0.29456   0.00000  Uiso   1.00
H279   H     0.77438   0.39631   0.19713   0.00000  Uiso   1.00
H280   H     0.91067   0.12505   0.21195   0.00000  Uiso   1.00
H281   H     0.91369   0.38093   0.29642   0.00000  Uiso   1.00
H282   H     0.78818   0.18691   0.03302   0.00000  Uiso   1.00
N283   N     0.83333   0.24999   0.12623   0.00000  Uiso   1.00
N284   N     0.83333   0.25001   0.37376   0.00000  Uiso   1.00
O285   O     0.83334   0.18454   0.28974   0.00000  Uiso   1.00
O286   O     0.83333   0.31547   0.21026   0.00000  Uiso   1.00
O287   O     0.83334   0.18453   0.21026   0.00000  Uiso   1.00
O288   O     0.83333   0.31547   0.28974   0.00000  Uiso   1.00
O289   O     0.75725   0.25000   0.28044   0.00000  Uiso   1.00
O290   O     0.90942   0.25000   0.21955   0.00000  Uiso   1.00
O291   O     0.75725   0.25000   0.20096   0.00000  Uiso   1.00
O292   O     0.90942   0.25001   0.29903   0.00000  Uiso   1.00
Zn293  Zn    0.83333   0.25001   0.30307   0.00000  Uiso   1.00
Zn294  Zn    0.83333   0.25000   0.19693   0.00000  Uiso   1.00
C295   C     0.16874   0.66395   0.25092   0.00000  Uiso   1.00
C296   C     0.12786   0.73020   0.44549   0.00000  Uiso   1.00
C297   C     0.17046   0.74812   0.02726   0.00000  Uiso   1.00
C298   C     0.17058   0.74888   0.47407   0.00000  Uiso   1.00
C299   C     0.06724   0.74882   0.23804   0.00000  Uiso   1.00
C300   C     0.26609   0.75153   0.26188   0.00000  Uiso   1.00
C301   C     0.01246   0.74443   0.23231   0.00000  Uiso   1.00
C302   C     0.32085   0.75650   0.26729   0.00000  Uiso   1.00
C303   C     0.15505   0.54111   0.27588   0.00000  Uiso   1.00
C304   C     0.15016   0.95728   0.21756   0.00000  Uiso   1.00
C305   C     0.14791   0.58682   0.27713   0.00000  Uiso   1.00
C306   C     0.16737   0.83617   0.24927   0.00000  Uiso   1.00
C307   C     0.14145   0.91104   0.21855   0.00000  Uiso   1.00
C308   C     0.17895   0.61664   0.25312   0.00000  Uiso   1.00
C309   C     0.17560   0.88418   0.24817   0.00000  Uiso   1.00
C310   C     0.21937   0.60121   0.22979   0.00000  Uiso   1.00
C311   C     0.22001   0.90281   0.27484   0.00000  Uiso   1.00
C312   C     0.22703   0.55507   0.22823   0.00000  Uiso   1.00
C313   C     0.22975   0.94937   0.27374   0.00000  Uiso   1.00
C314   C     0.19329   0.52501   0.25045   0.00000  Uiso   1.00
C315   C     0.19327   0.97662   0.24572   0.00000  Uiso   1.00
C316   C     0.26879   0.53966   0.20206   0.00000  Uiso   1.00
C317   C     0.14200   0.71479   0.05148   0.00000  Uiso   1.00
C318   C     0.32175   0.54976   0.21816   0.00000  Uiso   1.00
C319   C     0.02797   0.53691   0.19235   0.00000  Uiso   1.00
C320   C     0.01494   0.51406   0.15038   0.00000  Uiso   1.00
C321   C     0.29559   0.50443   0.13391   0.00000  Uiso   1.00
C322   C     0.25588   0.51732   0.15957   0.00000  Uiso   1.00
C323   C     0.27806   0.96793   0.30145   0.00000  Uiso   1.00
C324   C     0.32721   0.95130   0.29494   0.00000  Uiso   1.00
C325   C     0.03977   0.96786   0.32105   0.00000  Uiso   1.00
C326   C     0.03715   0.50133   0.35375   0.00000  Uiso   1.00
C327   C     0.32181   0.51770   0.36093   0.00000  Uiso   1.00
C328   C     0.21164   0.76886   0.45076   0.00000  Uiso   1.00
C329   C     0.27570   0.50086   0.33524   0.00000  Uiso   1.00
C330   C     0.22822   0.81709   0.12953   0.00000  Uiso   1.00
C331   C     0.28174   0.81009   0.14362   0.00000  Uiso   1.00
C332   C     0.31423   0.84473   0.16423   0.00000  Uiso   1.00
C333   C     0.29378   0.88704   0.16928   0.00000  Uiso   1.00
C334   C     0.24105   0.89477   0.15326   0.00000  Uiso   1.00
C335   C     0.20844   0.86013   0.13295   0.00000  Uiso   1.00
C336   C     0.08012   0.70609   0.37131   0.00000  Uiso   1.00
C337   C     0.08517   0.66258   0.35512   0.00000  Uiso   1.00
C338   C     0.04041   0.63528   0.34165   0.00000  Uiso   1.00
C339   C     0.14020   0.71663   0.10056   0.00000  Uiso   1.00
C340   C     0.32381   0.65039   0.34607   0.00000  Uiso   1.00
C341   C     0.31852   0.69253   0.36468   0.00000  Uiso   1.00
C342   C     0.02957   0.72047   0.37678   0.00000  Uiso   1.00
C343   C     0.20866   0.76937   0.40089   0.00000  Uiso   1.00
C344   C     0.19582   0.78207   0.10367   0.00000  Uiso   1.00
C345   C     0.12631   0.73014   0.39607   0.00000  Uiso   1.00
C346   C     0.19734   0.78181   0.05456   0.00000  Uiso   1.00
H347   H     0.32615   0.73002   0.20011   0.00000  Uiso   1.00
H348   H     0.24631   0.78360   0.47066   0.00000  Uiso   1.00
H349   H     0.11812   0.69079   0.11820   0.00000  Uiso   1.00
H350   H     0.24062   0.78492   0.38401   0.00000  Uiso   1.00
H351   H     0.21941   0.80845   0.03798   0.00000  Uiso   1.00
H352   H     0.09480   0.71537   0.46143   0.00000  Uiso   1.00
H353   H     0.33230   0.56757   0.25057   0.00000  Uiso   1.00
H354   H     0.06866   0.54499   0.20465   0.00000  Uiso   1.00
H355   H     0.04563   0.50412   0.13045   0.00000  Uiso   1.00
H356   H     0.28550   0.98704   0.10121   0.00000  Uiso   1.00
H357   H     0.21512   0.51034   0.14614   0.00000  Uiso   1.00
H358   H     0.00723   0.77124   0.29926   0.00000  Uiso   1.00
H359   H     0.33002   0.92550   0.26964   0.00000  Uiso   1.00
H360   H     0.07732   0.95455   0.31598   0.00000  Uiso   1.00
H361   H     0.07279   0.51433   0.37376   0.00000  Uiso   1.00
H362   H     0.31976   0.54325   0.38668   0.00000  Uiso   1.00
H363   H     0.23833   0.51309   0.34227   0.00000  Uiso   1.00
H364   H     0.29836   0.77810   0.13769   0.00000  Uiso   1.00
H365   H     0.02205   0.83899   0.17554   0.00000  Uiso   1.00
H366   H     0.31897   0.91402   0.18476   0.00000  Uiso   1.00
H367   H     0.22528   0.92757   0.15648   0.00000  Uiso   1.00
H368   H     0.16782   0.86675   0.12008   0.00000  Uiso   1.00
H369   H     0.12944   0.51804   0.29331   0.00000  Uiso   1.00
H370   H     0.12370   0.64875   0.35608   0.00000  Uiso   1.00
H371   H     0.04417   0.60150   0.32989   0.00000  Uiso   1.00
H372   H     0.28940   0.62881   0.33663   0.00000  Uiso   1.00
H373   H     0.28010   0.70317   0.37061   0.00000  Uiso   1.00
H374   H     0.02477   0.75260   0.39232   0.00000  Uiso   1.00
H375   H     0.12239   0.97829   0.19592   0.00000  Uiso   1.00
H376   H     0.11657   0.59865   0.29456   0.00000  Uiso   1.00
H377   H     0.10771   0.89631   0.19713   0.00000  Uiso   1.00
H378   H     0.24401   0.62505   0.21195   0.00000  Uiso   1.00
H379   H     0.24702   0.88093   0.29642   0.00000  Uiso   1.00
H380   H     0.12151   0.68691   0.03302   0.00000  Uiso   1.00
N381   N     0.16667   0.74999   0.12623   0.00000  Uiso   1.00
N382   N     0.16667   0.75001   0.37376   0.00000  Uiso   1.00
O383   O     0.16667   0.68454   0.28974   0.00000  Uiso   1.00
O384   O     0.16666   0.81547   0.21026   0.00000  Uiso   1.00
O385   O     0.16667   0.68453   0.21026   0.00000  Uiso   1.00
O386   O     0.16666   0.81547   0.28974   0.00000  Uiso   1.00
O387   O     0.09058   0.75000   0.28044   0.00000  Uiso   1.00
O388   O     0.24275   0.75000   0.21955   0.00000  Uiso   1.00
O389   O     0.09058   0.75000   0.20096   0.00000  Uiso   1.00
O390   O     0.24275   0.75001   0.29903   0.00000  Uiso   1.00
Zn391  Zn    0.16667   0.75001   0.30307   0.00000  Uiso   1.00
Zn392  Zn    0.16667   0.75000   0.19693   0.00000  Uiso   1.00
C393   C     0.50207   0.66395   0.25092   0.00000  Uiso   1.00
C394   C     0.46119   0.73020   0.44549   0.00000  Uiso   1.00
C395   C     0.50380   0.74812   0.02726   0.00000  Uiso   1.00
C396   C     0.50392   0.74888   0.47407   0.00000  Uiso   1.00
C397   C     0.40057   0.74882   0.23804   0.00000  Uiso   1.00
C398   C     0.59943   0.75153   0.26188   0.00000  Uiso   1.00
C399   C     0.34579   0.74443   0.23231   0.00000  Uiso   1.00
C400   C     0.65419   0.75650   0.26729   0.00000  Uiso   1.00
C401   C     0.48838   0.54111   0.27588   0.00000  Uiso   1.00
C402   C     0.48349   0.95728   0.21756   0.00000  Uiso   1.00
C403   C     0.48124   0.58682   0.27713   0.00000  Uiso   1.00
C404   C     0.50070   0.83617   0.24927   0.00000  Uiso   1.00
C405   C     0.47478   0.91104   0.21855   0.00000  Uiso   1.00
C406   C     0.51228   0.61664   0.25312   0.00000  Uiso   1.00
C407   C     0.50893   0.88418   0.24817   0.00000  Uiso   1.00
C408   C     0.55270   0.60121   0.22979   0.00000  Uiso   1.00
C409   C     0.55335   0.90281   0.27484   0.00000  Uiso   1.00
C410   C     0.56036   0.55507   0.22823   0.00000  Uiso   1.00
C411   C     0.56308   0.94937   0.27374   0.00000  Uiso   1.00
C412   C     0.52662   0.52501   0.25045   0.00000  Uiso   1.00
C413   C     0.52660   0.97662   0.24572   0.00000  Uiso   1.00
C414   C     0.60213   0.53966   0.20206   0.00000  Uiso   1.00
C415   C     0.47533   0.71479   0.05148   0.00000  Uiso   1.00
C416   C     0.65508   0.54976   0.21816   0.00000  Uiso   1.00
C417   C     0.36130   0.53691   0.19235   0.00000  Uiso   1.00
C418   C     0.34828   0.51406   0.15038   0.00000  Uiso   1.00
C419   C     0.62892   0.50443   0.13391   0.00000  Uiso   1.00
C420   C     0.58921   0.51732   0.15957   0.00000  Uiso   1.00
C421   C     0.61139   0.96793   0.30145   0.00000  Uiso   1.00
C422   C     0.66054   0.95130   0.29494   0.00000  Uiso   1.00
C423   C     0.37310   0.96786   0.32105   0.00000  Uiso   1.00
C424   C     0.37049   0.50133   0.35375   0.00000  Uiso   1.00
C425   C     0.65514   0.51770   0.36093   0.00000  Uiso   1.00
C426   C     0.54497   0.76886   0.45076   0.00000  Uiso   1.00
C427   C     0.60903   0.50086   0.33524   0.00000  Uiso   1.00
C428   C     0.56156   0.81709   0.12953   0.00000  Uiso   1.00
C429   C     0.61508   0.81009   0.14362   0.00000  Uiso   1.00
C430   C     0.64756   0.84473   0.16423   0.00000  Uiso   1.00
C431   C     0.62711   0.88704   0.16928   0.00000  Uiso   1.00
C432   C     0.57438   0.89477   0.15326   0.00000  Uiso   1.00
C433   C     0.54177   0.86013   0.13295   0.00000  Uiso   1.00
C434   C     0.41345   0.70609   0.37131   0.00000  Uiso   1.00
C435   C     0.41850   0.66258   0.35512   0.00000  Uiso   1.00
C436   C     0.37374   0.63528   0.34165   0.00000  Uiso   1.00
C437   C     0.47353   0.71663   0.10056   0.00000  Uiso   1.00
C438   C     0.65714   0.65039   0.34607   0.00000  Uiso   1.00
C439   C     0.65185   0.69253   0.36468   0.00000  Uiso   1.00
C440   C     0.36290   0.72047   0.37678   0.00000  Uiso   1.00
C441   C     0.54199   0.76937   0.40089   0.00000  Uiso   1.00
C442   C     0.52915   0.78207   0.10367   0.00000  Uiso   1.00
C443   C     0.45965   0.73014   0.39607   0.00000  Uiso   1.00
C444   C     0.53067   0.78181   0.05456   0.00000  Uiso   1.00
H445   H     0.65948   0.73002   0.20011   0.00000  Uiso   1.00
H446   H     0.57964   0.78360   0.47066   0.00000  Uiso   1.00
H447   H     0.45145   0.69079   0.11820   0.00000  Uiso   1.00
H448   H     0.57396   0.78492   0.38401   0.00000  Uiso   1.00
H449   H     0.55274   0.80845   0.03798   0.00000  Uiso   1.00
H450   H     0.42814   0.71537   0.46143   0.00000  Uiso   1.00
H451   H     0.66564   0.56757   0.25057   0.00000  Uiso   1.00
H452   H     0.40199   0.54499   0.20465   0.00000  Uiso   1.00
H453   H     0.37897   0.50412   0.13045   0.00000  Uiso   1.00
H454   H     0.61883   0.98704   0.10121   0.00000  Uiso   1.00
H455   H     0.54846   0.51034   0.14614   0.00000  Uiso   1.00
H456   H     0.34056   0.77124   0.29926   0.00000  Uiso   1.00
H457   H     0.66335   0.92550   0.26964   0.00000  Uiso   1.00
H458   H     0.41065   0.95455   0.31598   0.00000  Uiso   1.00
H459   H     0.40612   0.51433   0.37376   0.00000  Uiso   1.00
H460   H     0.65309   0.54325   0.38668   0.00000  Uiso   1.00
H461   H     0.57166   0.51309   0.34227   0.00000  Uiso   1.00
H462   H     0.63169   0.77810   0.13769   0.00000  Uiso   1.00
H463   H     0.35538   0.83899   0.17554   0.00000  Uiso   1.00
H464   H     0.65230   0.91402   0.18476   0.00000  Uiso   1.00
H465   H     0.55862   0.92757   0.15648   0.00000  Uiso   1.00
H466   H     0.50115   0.86675   0.12008   0.00000  Uiso   1.00
H467   H     0.46278   0.51804   0.29331   0.00000  Uiso   1.00
H468   H     0.45703   0.64875   0.35608   0.00000  Uiso   1.00
H469   H     0.37750   0.60150   0.32989   0.00000  Uiso   1.00
H470   H     0.62273   0.62881   0.33663   0.00000  Uiso   1.00
H471   H     0.61343   0.70317   0.37061   0.00000  Uiso   1.00
H472   H     0.35810   0.75260   0.39232   0.00000  Uiso   1.00
H473   H     0.45573   0.97829   0.19592   0.00000  Uiso   1.00
H474   H     0.44990   0.59865   0.29456   0.00000  Uiso   1.00
H475   H     0.44104   0.89631   0.19713   0.00000  Uiso   1.00
H476   H     0.57734   0.62505   0.21195   0.00000  Uiso   1.00
H477   H     0.58035   0.88093   0.29642   0.00000  Uiso   1.00
H478   H     0.45485   0.68691   0.03302   0.00000  Uiso   1.00
N479   N     0.50000   0.74999   0.12623   0.00000  Uiso   1.00
N480   N     0.50000   0.75001   0.37376   0.00000  Uiso   1.00
O481   O     0.50000   0.68454   0.28974   0.00000  Uiso   1.00
O482   O     0.50000   0.81547   0.21026   0.00000  Uiso   1.00
O483   O     0.50000   0.68453   0.21026   0.00000  Uiso   1.00
O484   O     0.50000   0.81547   0.28974   0.00000  Uiso   1.00
O485   O     0.42392   0.75000   0.28044   0.00000  Uiso   1.00
O486   O     0.57608   0.75000   0.21955   0.00000  Uiso   1.00
O487   O     0.42392   0.75000   0.20096   0.00000  Uiso   1.00
O488   O     0.57608   0.75001   0.29903   0.00000  Uiso   1.00
Zn489  Zn    0.50000   0.75001   0.30307   0.00000  Uiso   1.00
Zn490  Zn    0.50000   0.75000   0.19693   0.00000  Uiso   1.00
C491   C     0.83540   0.66395   0.25092   0.00000  Uiso   1.00
C492   C     0.79453   0.73020   0.44549   0.00000  Uiso   1.00
C493   C     0.83713   0.74812   0.02726   0.00000  Uiso   1.00
C494   C     0.83725   0.74888   0.47407   0.00000  Uiso   1.00
C495   C     0.73390   0.74882   0.23804   0.00000  Uiso   1.00
C496   C     0.93276   0.75153   0.26188   0.00000  Uiso   1.00
C497   C     0.67913   0.74443   0.23231   0.00000  Uiso   1.00
C498   C     0.98752   0.75650   0.26729   0.00000  Uiso   1.00
C499   C     0.82171   0.54111   0.27588   0.00000  Uiso   1.00
C500   C     0.81682   0.95728   0.21756   0.00000  Uiso   1.00
C501   C     0.81458   0.58682   0.27713   0.00000  Uiso   1.00
C502   C     0.83404   0.83617   0.24927   0.00000  Uiso   1.00
C503   C     0.80812   0.91104   0.21855   0.00000  Uiso   1.00
C504   C     0.84561   0.61664   0.25312   0.00000  Uiso   1.00
C505   C     0.84226   0.88418   0.24817   0.00000  Uiso   1.00
C506   C     0.88604   0.60121   0.22979   0.00000  Uiso   1.00
C507   C     0.88668   0.90281   0.27484   0.00000  Uiso   1.00
C508   C     0.89369   0.55507   0.22823   0.00000  Uiso   1.00
C509   C     0.89641   0.94937   0.27374   0.00000  Uiso   1.00
C510   C     0.85995   0.52501   0.25045   0.00000  Uiso   1.00
C511   C     0.85994   0.97662   0.24572   0.00000  Uiso   1.00
C512   C     0.93546   0.53966   0.20206   0.00000  Uiso   1.00
C513   C     0.80867   0.71479   0.05148   0.00000  Uiso   1.00
C514   C     0.98842   0.54976   0.21816   0.00000  Uiso   1.00
C515   C     0.69464   0.53691   0.19235   0.00000  Uiso   1.00
C516   C     0.68161   0.51406   0.15038   0.00000  Uiso   1.00
C517   C     0.96225   0.50443   0.13391   0.00000  Uiso   1.00
C518   C     0.92254   0.51732   0.15957   0.00000  Uiso   1.00
C519   C     0.94473   0.96793   0.30145   0.00000  Uiso   1.00
C520   C     0.99387   0.95130   0.29494   0.00000  Uiso   1.00
C521   C     0.70644   0.96786   0.32105   0.00000  Uiso   1.00
C522   C     0.70382   0.50133   0.35375   0.00000  Uiso   1.00
C523   C     0.98847   0.51770   0.36093   0.00000  Uiso   1.00
C524   C     0.87830   0.76886   0.45076   0.00000  Uiso   1.00
C525   C     0.94236   0.50086   0.33524   0.00000  Uiso   1.00
C526   C     0.89489   0.81709   0.12953   0.00000  Uiso   1.00
C527   C     0.94841   0.81009   0.14362   0.00000  Uiso   1.00
C528   C     0.98090   0.84473   0.16423   0.00000  Uiso   1.00
C529   C     0.96044   0.88704   0.16928   0.00000  Uiso   1.00
C530   C     0.90771   0.89477   0.15326   0.00000  Uiso   1.00
C531   C     0.87510   0.86013   0.13295   0.00000  Uiso   1.00
C532   C     0.74678   0.70609   0.37131   0.00000  Uiso   1.00
C533   C     0.75184   0.66258   0.35512   0.00000  Uiso   1.00
C534   C     0.70707   0.63528   0.34165   0.00000  Uiso   1.00
C535   C     0.80687   0.71663   0.10056   0.00000  Uiso   1.00
C536   C     0.99047   0.65039   0.34607   0.00000  Uiso   1.00
C537   C     0.98519   0.69253   0.36468   0.00000  Uiso   1.00
C538   C     0.69623   0.72047   0.37678   0.00000  Uiso   1.00
C539   C     0.87533   0.76937   0.40089   0.00000  Uiso   1.00
C540   C     0.86248   0.78207   0.10367   0.00000  Uiso   1.00
C541   C     0.79298   0.73014   0.39607   0.00000  Uiso   1.00
C542   C     0.86401   0.78181   0.05456   0.00000  Uiso   1.00
H543   H     0.99282   0.73002   0.20011   0.00000  Uiso   1.00
H544   H     0.91298   0.78360   0.47066   0.00000  Uiso   1.00
H545   H     0.78478   0.69079   0.11820   0.00000  Uiso   1.00
H546   H     0.90729   0.78492   0.38401   0.00000  Uiso   1.00
H547   H     0.88608   0.80845   0.03798   0.00000  Uiso   1.00
H548   H     0.76147   0.71537   0.46143   0.00000  Uiso   1.00
H549   H     0.99897   0.56757   0.25057   0.00000  Uiso   1.00
H550   H     0.73532   0.54499   0.20465   0.00000  Uiso   1.00
H551   H     0.71230   0.50412   0.13045   0.00000  Uiso   1.00
H552   H     0.95216   0.98704   0.10121   0.00000  Uiso   1.00
H553   H     0.88179   0.51034   0.14614   0.00000  Uiso   1.00
H554   H     0.67389   0.77124   0.29926   0.00000  Uiso   1.00
H555   H     0.99668   0.92550   0.26964   0.00000  Uiso   1.00
H556   H     0.74399   0.95455   0.31598   0.00000  Uiso   1.00
H557   H     0.73946   0.51433   0.37376   0.00000  Uiso   1.00
H558   H     0.98642   0.54325   0.38668   0.00000  Uiso   1.00
H559   H     0.90500   0.51309   0.34227   0.00000  Uiso   1.00
H560   H     0.96502   0.77810   0.13769   0.00000  Uiso   1.00
H561   H     0.68871   0.83899   0.17554   0.00000  Uiso   1.00
H562   H     0.98564   0.91402   0.18476   0.00000  Uiso   1.00
H563   H     0.89195   0.92757   0.15648   0.00000  Uiso   1.00
H564   H     0.83449   0.86675   0.12008   0.00000  Uiso   1.00
H565   H     0.79611   0.51804   0.29331   0.00000  Uiso   1.00
H566   H     0.79037   0.64875   0.35608   0.00000  Uiso   1.00
H567   H     0.71083   0.60150   0.32989   0.00000  Uiso   1.00
H568   H     0.95607   0.62881   0.33663   0.00000  Uiso   1.00
H569   H     0.94677   0.70317   0.37061   0.00000  Uiso   1.00
H570   H     0.69143   0.75260   0.39232   0.00000  Uiso   1.00
H571   H     0.78906   0.97829   0.19592   0.00000  Uiso   1.00
H572   H     0.78324   0.59865   0.29456   0.00000  Uiso   1.00
H573   H     0.77438   0.89631   0.19713   0.00000  Uiso   1.00
H574   H     0.91067   0.62505   0.21195   0.00000  Uiso   1.00
H575   H     0.91369   0.88093   0.29642   0.00000  Uiso   1.00
H576   H     0.78818   0.68691   0.03302   0.00000  Uiso   1.00
N577   N     0.83333   0.74999   0.12623   0.00000  Uiso   1.00
N578   N     0.83333   0.75001   0.37376   0.00000  Uiso   1.00
O579   O     0.83334   0.68454   0.28974   0.00000  Uiso   1.00
O580   O     0.83333   0.81547   0.21026   0.00000  Uiso   1.00
O581   O     0.83334   0.68453   0.21026   0.00000  Uiso   1.00
O582   O     0.83333   0.81547   0.28974   0.00000  Uiso   1.00
O583   O     0.75725   0.75000   0.28044   0.00000  Uiso   1.00
O584   O     0.90942   0.75000   0.21955   0.00000  Uiso   1.00
O585   O     0.75725   0.75000   0.20096   0.00000  Uiso   1.00
O586   O     0.90942   0.75001   0.29903   0.00000  Uiso   1.00
Zn587  Zn    0.83333   0.75001   0.30307   0.00000  Uiso   1.00
Zn588  Zn    0.83333   0.75000   0.19693   0.00000  Uiso   1.00
C589   C     0.16874   0.16395   0.75092   0.00000  Uiso   1.00
C590   C     0.12786   0.23020   0.94549   0.00000  Uiso   1.00
C591   C     0.17046   0.24812   0.52726   0.00000  Uiso   1.00
C592   C     0.17058   0.24888   0.97407   0.00000  Uiso   1.00
C593   C     0.06724   0.24882   0.73804   0.00000  Uiso   1.00
C594   C     0.26609   0.25153   0.76188   0.00000  Uiso   1.00
C595   C     0.01246   0.24443   0.73231   0.00000  Uiso   1.00
C596   C     0.32085   0.25650   0.76729   0.00000  Uiso   1.00
C597   C     0.15505   0.04111   0.77588   0.00000  Uiso   1.00
C598   C     0.15016   0.45728   0.71756   0.00000  Uiso   1.00
C599   C     0.14791   0.08682   0.77713   0.00000  Uiso   1.00
C600   C     0.16737   0.33617   0.74927   0.00000  Uiso   1.00
C601   C     0.14145   0.41104   0.71855   0.00000  Uiso   1.00
C602   C     0.17895   0.11664   0.75312   0.00000  Uiso   1.00
C603   C     0.17560   0.38418   0.74817   0.00000  Uiso   1.00
C604   C     0.21937   0.10121   0.72979   0.00000  Uiso   1.00
C605   C     0.22001   0.40281   0.77484   0.00000  Uiso   1.00
C606   C     0.22703   0.05507   0.72823   0.00000  Uiso   1.00
C607   C     0.22975   0.44937   0.77374   0.00000  Uiso   1.00
C608   C     0.19329   0.02501   0.75045   0.00000  Uiso   1.00
C609   C     0.19327   0.47662   0.74572   0.00000  Uiso   1.00
C610   C     0.26879   0.03966   0.70206   0.00000  Uiso   1.00
C611   C     0.14200   0.21479   0.55148   0.00000  Uiso   1.00
C612   C     0.32175   0.04976   0.71816   0.00000  Uiso   1.00
C613   C     0.02797   0.03691   0.69235   0.00000  Uiso   1.00
C614   C     0.01494   0.01406   0.65038   0.00000  Uiso   1.00
C615   C     0.29559   0.00443   0.63391   0.00000  Uiso   1.00
C616   C     0.25588   0.01732   0.65957   0.00000  Uiso   1.00
C617   C     0.27806   0.46793   0.80145   0.00000  Uiso   1.00
C618   C     0.32721   0.45130   0.79494   0.00000  Uiso   1.00
C619   C     0.03977   0.46786   0.82105   0.00000  Uiso   1.00
C620   C     0.03715   0.00133   0.85375   0.00000  Uiso   1.00
C621   C     0.32181   0.01770   0.86093   0.00000  Uiso   1.00
C622   C     0.21164   0.26886   0.95076   0.00000  Uiso   1.00
C623   C     0.27570   0.00086   0.83524   0.00000  Uiso   1.00
C624   C     0.22822   0.31709   0.62953   0.00000  Uiso   1.00
C625   C     0.28174   0.31009   0.64362   0.00000  Uiso   1.00
C626   C     0.31423   0.34473   0.66423   0.00000  Uiso   1.00
C627   C     0.29378   0.38704   0.66928   0.00000  Uiso   1.00
C628   C     0.24105   0.39477   0.65326   0.00000  Uiso   1.00
C629   C     0.20844   0.36013   0.63295   0.00000  Uiso   1.00
C630   C     0.08012   0.20609   0.87131   0.00000  Uiso   1.00
C631   C     0.08517   0.16258   0.85512   0.00000  Uiso   1.00
C632   C     0.04041   0.13528   0.84165   0.00000  Uiso   1.00
C633   C     0.14020   0.21663   0.60056   0.00000  Uiso   1.00
C634   C     0.32381   0.15039   0.84607   0.00000  Uiso   1.00
C635   C     0.31852   0.19253   0.86468   0.00000  Uiso   1.00
C636   C     0.02957   0.22047   0.87678   0.00000  Uiso   1.00
C637   C     0.20866   0.26937   0.90089   0.00000  Uiso   1.00
C638   C     0.19582   0.28207   0.60367   0.00000  Uiso   1.00
C639   C     0.12631   0.23014   0.89607   0.00000  Uiso   1.00
C640   C     0.19734   0.28181   0.55456   0.00000  Uiso   1.00
H641   H     0.32615   0.23002   0.70011   0.00000  Uiso   1.00
H642   H     0.24631   0.28360   0.97066   0.00000  Uiso   1.00
H643   H     0.11812   0.19079   0.61820   0.00000  Uiso   1.00
H644   H     0.24062   0.28492   0.88401   0.00000  Uiso   1.00
H645   H     0.21941   0.30845   0.53798   0.00000  Uiso   1.00
H646   H     0.09480   0.21537   0.96143   0.00000  Uiso   1.00
H647   H     0.33230   0.06757   0.75057   0.00000  Uiso   1.00
H648   H     0.06866   0.04499   0.70465   0.00000  Uiso   1.00
H649   H     0.04563   0.00412   0.63045   0.00000  Uiso   1.00
H650   H     0.28550   0.48704   0.60121   0.00000  Uiso   1.00
H651   H     0.21512   0.01034   0.64614   0.00000  Uiso   1.00
H652   H     0.00723   0.27124   0.79926   0.00000  Uiso   1.00
H653   H     0.33002   0.42550   0.76964   0.00000  Uiso   1.00
H654   H     0.07732   0.45455   0.81598   0.00000  Uiso   1.00
H655   H     0.07279   0.01433   0.87376   0.00000  Uiso   1.00
H656   H     0.31976   0.04325   0.88668   0.00000  Uiso   1.00
H657   H     0.23833   0.01309   0.84227   0.00000  Uiso   1.00
H658   H     0.29836   0.27810   0.63769   0.00000  Uiso   1.00
H659   H     0.02205   0.33899   0.67554   0.00000  Uiso   1.00
H660   H     0.31897   0.41402   0.68476   0.00000  Uiso   1.00
H661   H     0.22528   0.42757   0.65648   0.00000  Uiso   1.00
H662   H     0.16782   0.36675   0.62008   0.00000  Uiso   1.00
H663   H     0.12944   0.01804   0.79331   0.00000  Uiso   1.00
H664   H     0.12370   0.14875   0.85608   0.00000  Uiso   1.00
H665   H     0.04417   0.10150   0.82989   0.00000  Uiso   1.00
H666   H     0.28940   0.12881   0.83663   0.00000  Uiso   1.00
H667   H     0.28010   0.20317   0.87061   0.00000  Uiso   1.00
H668   H     0.02477   0.25260   0.89232   0.00000  Uiso   1.00
H669   H     0.12239   0.47829   0.69592   0.00000  Uiso   1.00
H670   H     0.11657   0.09865   0.79456   0.00000  Uiso   1.00
H671   H     0.10771   0.39631   0.69713   0.00000  Uiso   1.00
H672   H     0.24401   0.12505   0.71195   0.00000  Uiso   1.00
H673   H     0.24702   0.38093   0.79642   0.00000  Uiso   1.00
H674   H     0.12151   0.18691   0.53302   0.00000  Uiso   1.00
N675   N     0.16667   0.24999   0.62623   0.00000  Uiso   1.00
N676   N     0.16667   0.25001   0.87376   0.00000  Uiso   1.00
O677   O     0.16667   0.18454   0.78974   0.00000  Uiso   1.00
O678   O     0.16666   0.31547   0.71026   0.00000  Uiso   1.00
O679   O     0.16667   0.18453   0.71026   0.00000  Uiso   1.00
O680   O     0.16666   0.31547   0.78974   0.00000  Uiso   1.00
O681   O     0.09058   0.25000   0.78044   0.00000  Uiso   1.00
O682   O     0.24275   0.25000   0.71955   0.00000  Uiso   1.00
O683   O     0.09058   0.25000   0.70096   0.00000  Uiso   1.00
O684   O     0.24275   0.25001   0.79903   0.00000  Uiso   1.00
Zn685  Zn    0.16667   0.25001   0.80307   0.00000  Uiso   1.00
Zn686  Zn    0.16667   0.25000   0.69693   0.00000  Uiso   1.00
C687   C     0.50207   0.16395   0.75092   0.00000  Uiso   1.00
C688   C     0.46119   0.23020   0.94549   0.00000  Uiso   1.00
C689   C     0.50380   0.24812   0.52726   0.00000  Uiso   1.00
C690   C     0.50392   0.24888   0.97407   0.00000  Uiso   1.00
C691   C     0.40057   0.24882   0.73804   0.00000  Uiso   1.00
C692   C     0.59943   0.25153   0.76188   0.00000  Uiso   1.00
C693   C     0.34579   0.24443   0.73231   0.00000  Uiso   1.00
C694   C     0.65419   0.25650   0.76729   0.00000  Uiso   1.00
C695   C     0.48838   0.04111   0.77588   0.00000  Uiso   1.00
C696   C     0.48349   0.45728   0.71756   0.00000  Uiso   1.00
C697   C     0.48124   0.08682   0.77713   0.00000  Uiso   1.00
C698   C     0.50070   0.33617   0.74927   0.00000  Uiso   1.00
C699   C     0.47478   0.41104   0.71855   0.00000  Uiso   1.00
C700   C     0.51228   0.11664   0.75312   0.00000  Uiso   1.00
C701   C     0.50893   0.38418   0.74817   0.00000  Uiso   1.00
C702   C     0.55270   0.10121   0.72979   0.00000  Uiso   1.00
C703   C     0.55335   0.40281   0.77484   0.00000  Uiso   1.00
C704   C     0.56036   0.05507   0.72823   0.00000  Uiso   1.00
C705   C     0.56308   0.44937   0.77374   0.00000  Uiso   1.00
C706   C     0.52662   0.02501   0.75045   0.00000  Uiso   1.00
C707   C     0.52660   0.47662   0.74572   0.00000  Uiso   1.00
C708   C     0.60213   0.03966   0.70206   0.00000  Uiso   1.00
C709   C     0.47533   0.21479   0.55148   0.00000  Uiso   1.00
C710   C     0.65508   0.04976   0.71816   0.00000  Uiso   1.00
C711   C     0.36130   0.03691   0.69235   0.00000  Uiso   1.00
C712   C     0.34828   0.01406   0.65038   0.00000  Uiso   1.00
C713   C     0.62892   0.00443   0.63391   0.00000  Uiso   1.00
C714   C     0.58921   0.01732   0.65957   0.00000  Uiso   1.00
C715   C     0.61139   0.46793   0.80145   0.00000  Uiso   1.00
C716   C     0.66054   0.45130   0.79494   0.00000  Uiso   1.00
C717   C     0.37310   0.46786   0.82105   0.00000  Uiso   1.00
C718   C     0.37049   0.00133   0.85375   0.00000  Uiso   1.00
C719   C     0.65514   0.01770   0.86093   0.00000  Uiso   1.00
C720   C     0.54497   0.26886   0.95076   0.00000  Uiso   1.00
C721   C     0.60903   0.00086   0.83524   0.00000  Uiso   1.00
C722   C     0.56156   0.31709   0.62953   0.00000  Uiso   1.00
C723   C     0.61508   0.31009   0.64362   0.00000  Uiso   1.00
C724   C     0.64756   0.34473   0.66423   0.00000  Uiso   1.00
C725   C     0.62711   0.38704   0.66928   0.00000  Uiso   1.00
C726   C     0.57438   0.39477   0.65326   0.00000  Uiso   1.00
C727   C     0.54177   0.36013   0.63295   0.00000  Uiso   1.00
C728   C     0.41345   0.20609   0.87131   0.00000  Uiso   1.00
C729   C     0.41850   0.16258   0.85512   0.00000  Uiso   1.00
C730   C     0.37374   0.13528   0.84165   0.00000  Uiso   1.00
C731   C     0.47353   0.21663   0.60056   0.00000  Uiso   1.00
C732   C     0.65714   0.15039   0.84607   0.00000  Uiso   1.00
C733   C     0.65185   0.19253   0.86468   0.00000  Uiso   1.00
C734   C     0.36290   0.22047   0.87678   0.00000  Uiso   1.00
C735   C     0.54199   0.26937   0.90089   0.00000  Uiso   1.00
C736   C     0.52915   0.28207   0.60367   0.00000  Uiso   1.00
C737   C     0.45965   0.23014   0.89607   0.00000  Uiso   1.00
C738   C     0.53067   0.28181   0.55456   0.00000  Uiso   1.00
H739   H     0.65948   0.23002   0.70011   0.00000  Uiso   1.00
H740   H     0.57964   0.28360   0.97066   0.00000  Uiso   1.00
H741   H     0.45145   0.19079   0.61820   0.00000  Uiso   1.00
H742   H     0.57396   0.28492   0.88401   0.00000  Uiso   1.00
H743   H     0.55274   0.30845   0.53798   0.00000  Uiso   1.00
H744   H     0.42814   0.21537   0.96143   0.00000  Uiso   1.00
H745   H     0.66564   0.06757   0.75057   0.00000  Uiso   1.00
H746   H     0.40199   0.04499   0.70465   0.00000  Uiso   1.00
H747   H     0.37897   0.00412   0.63045   0.00000  Uiso   1.00
H748   H     0.61883   0.48704   0.60121   0.00000  Uiso   1.00
H749   H     0.54846   0.01034   0.64614   0.00000  Uiso   1.00
H750   H     0.34056   0.27124   0.79926   0.00000  Uiso   1.00
H751   H     0.66335   0.42550   0.76964   0.00000  Uiso   1.00
H752   H     0.41065   0.45455   0.81598   0.00000  Uiso   1.00
H753   H     0.40612   0.01433   0.87376   0.00000  Uiso   1.00
H754   H     0.65309   0.04325   0.88668   0.00000  Uiso   1.00
H755   H     0.57166   0.01309   0.84227   0.00000  Uiso   1.00
H756   H     0.63169   0.27810   0.63769   0.00000  Uiso   1.00
H757   H     0.35538   0.33899   0.67554   0.00000  Uiso   1.00
H758   H     0.65230   0.41402   0.68476   0.00000  Uiso   1.00
H759   H     0.55862   0.42757   0.65648   0.00000  Uiso   1.00
H760   H     0.50115   0.36675   0.62008   0.00000  Uiso   1.00
H761   H     0.46278   0.01804   0.79331   0.00000  Uiso   1.00
H762   H     0.45703   0.14875   0.85608   0.00000  Uiso   1.00
H763   H     0.37750   0.10150   0.82989   0.00000  Uiso   1.00
H764   H     0.62273   0.12881   0.83663   0.00000  Uiso   1.00
H765   H     0.61343   0.20317   0.87061   0.00000  Uiso   1.00
H766   H     0.35810   0.25260   0.89232   0.00000  Uiso   1.00
H767   H     0.45573   0.47829   0.69592   0.00000  Uiso   1.00
H768   H     0.44990   0.09865   0.79456   0.00000  Uiso   1.00
H769   H     0.44104   0.39631   0.69713   0.00000  Uiso   1.00
H770   H     0.57734   0.12505   0.71195   0.00000  Uiso   1.00
H771   H     0.58035   0.38093   0.79642   0.00000  Uiso   1.00
H772   H     0.45485   0.18691   0.53302   0.00000  Uiso   1.00
N773   N     0.50000   0.24999   0.62623   0.00000  Uiso   1.00
N774   N     0.50000   0.25001   0.87376   0.00000  Uiso   1.00
O775   O     0.50000   0.18454   0.78974   0.00000  Uiso   1.00
O776   O     0.50000   0.31547   0.71026   0.00000  Uiso   1.00
O777   O     0.50000   0.18453   0.71026   0.00000  Uiso   1.00
O778   O     0.50000   0.31547   0.78974   0.00000  Uiso   1.00
O779   O     0.42392   0.25000   0.78044   0.00000  Uiso   1.00
O780   O     0.57608   0.25000   0.71955   0.00000  Uiso   1.00
O781   O     0.42392   0.25000   0.70096   0.00000  Uiso   1.00
O782   O     0.57608   0.25001   0.79903   0.00000  Uiso   1.00
Zn783  Zn    0.50000   0.25001   0.80307   0.00000  Uiso   1.00
Zn784  Zn    0.50000   0.25000   0.69693   0.00000  Uiso   1.00
C785   C     0.83540   0.16395   0.75092   0.00000  Uiso   1.00
C786   C     0.79453   0.23020   0.94549   0.00000  Uiso   1.00
C787   C     0.83713   0.24812   0.52726   0.00000  Uiso   1.00
C788   C     0.83725   0.24888   0.97407   0.00000  Uiso   1.00
C789   C     0.73390   0.24882   0.73804   0.00000  Uiso   1.00
C790   C     0.93276   0.25153   0.76188   0.00000  Uiso   1.00
C791   C     0.67913   0.24443   0.73231   0.00000  Uiso   1.00
C792   C     0.98752   0.25650   0.76729   0.00000  Uiso   1.00
C793   C     0.82171   0.04111   0.77588   0.00000  Uiso   1.00
C794   C     0.81682   0.45728   0.71756   0.00000  Uiso   1.00
C795   C     0.81458   0.08682   0.77713   0.00000  Uiso   1.00
C796   C     0.83404   0.33617   0.74927   0.00000  Uiso   1.00
C797   C     0.80812   0.41104   0.71855   0.00000  Uiso   1.00
C798   C     0.84561   0.11664   0.75312   0.00000  Uiso   1.00
C799   C     0.84226   0.38418   0.74817   0.00000  Uiso   1.00
C800   C     0.88604   0.10121   0.72979   0.00000  Uiso   1.00
C801   C     0.88668   0.40281   0.77484   0.00000  Uiso   1.00
C802   C     0.89369   0.05507   0.72823   0.00000  Uiso   1.00
C803   C     0.89641   0.44937   0.77374   0.00000  Uiso   1.00
C804   C     0.85995   0.02501   0.75045   0.00000  Uiso   1.00
C805   C     0.85994   0.47662   0.74572   0.00000  Uiso   1.00
C806   C     0.93546   0.03966   0.70206   0.00000  Uiso   1.00
C807   C     0.80867   0.21479   0.55148   0.00000  Uiso   1.00
C808   C     0.98842   0.04976   0.71816   0.00000  Uiso   1.00
C809   C     0.69464   0.03691   0.69235   0.00000  Uiso   1.00
C810   C     0.68161   0.01406   0.65038   0.00000  Uiso   1.00
C811   C     0.96225   0.00443   0.63391   0.00000  Uiso   1.00
C812   C     0.92254   0.01732   0.65957   0.00000  Uiso   1.00
C813   C     0.94473   0.46793   0.80145   0.00000  Uiso   1.00
C814   C     0.99387   0.45130   0.79494   0.00000  Uiso   1.00
C815   C     0.70644   0.46786   0.82105   0.00000  Uiso   1.00
C816   C     0.70382   0.00133   0.85375   0.00000  Uiso   1.00
C817   C     0.98847   0.01770   0.86093   0.00000  Uiso   1.00
C818   C     0.87830   0.26886   0.95076   0.00000  Uiso   1.00
C819   C     0.94236   0.00086   0.83524   0.00000  Uiso   1.00
C820   C     0.89489   0.31709   0.62953   0.00000  Uiso   1.00
C821   C     0.94841   0.31009   0.64362   0.00000  Uiso   1.00
C822   C     0.98090   0.34473   0.66423   0.00000  Uiso   1.00
C823   C     0.96044   0.38704   0.66928   0.00000  Uiso   1.00
C824   C     0.90771   0.39477   0.65326   0.00000  Uiso   1.00
C825   C     0.87510   0.36013   0.63295   0.00000  Uiso   1.00
C826   C     0.74678   0.20609   0.87131   0.00000  Uiso   1.00
C827   C     0.75184   0.16258   0.85512   0.00000  Uiso   1.00
C828   C     0.70707   0.13528   0.84165   0.00000  Uiso   1.00
C829   C     0.80687   0.21663   0.60056   0.00000  Uiso   1.00
C830   C     0.99047   0.15039   0.84607   0.00000  Uiso   1.00
C831   C     0.98519   0.19253   0.86468   0.00000  Uiso   1.00
C832   C     0.69623   0.22047   0.87678   0.00000  Uiso   1.00
C833   C     0.87533   0.26937   0.90089   0.00000  Uiso   1.00
C834   C     0.86248   0.28207   0.60367   0.00000  Uiso   1.00
C835   C     0.79298   0.23014   0.89607   0.00000  Uiso   1.00
C836   C     0.86401   0.28181   0.55456   0.00000  Uiso   1.00
H837   H     0.99282   0.23002   0.70011   0.00000  Uiso   1.00
H838   H     0.91298   0.28360   0.97066   0.00000  Uiso   1.00
H839   H     0.78478   0.19079   0.61820   0.00000  Uiso   1.00
H840   H     0.90729   0.28492   0.88401   0.00000  Uiso   1.00
H841   H     0.88608   0.30845   0.53798   0.00000  Uiso   1.00
H842   H     0.76147   0.21537   0.96143   0.00000  Uiso   1.00
H843   H     0.99897   0.06757   0.75057   0.00000  Uiso   1.00
H844   H     0.73532   0.04499   0.70465   0.00000  Uiso   1.00
H845   H     0.71230   0.00412   0.63045   0.00000  Uiso   1.00
H846   H     0.95216   0.48704   0.60121   0.00000  Uiso   1.00
H847   H     0.88179   0.01034   0.64614   0.00000  Uiso   1.00
H848   H     0.67389   0.27124   0.79926   0.00000  Uiso   1.00
H849   H     0.99668   0.42550   0.76964   0.00000  Uiso   1.00
H850   H     0.74399   0.45455   0.81598   0.00000  Uiso   1.00
H851   H     0.73946   0.01433   0.87376   0.00000  Uiso   1.00
H852   H     0.98642   0.04325   0.88668   0.00000  Uiso   1.00
H853   H     0.90500   0.01309   0.84227   0.00000  Uiso   1.00
H854   H     0.96502   0.27810   0.63769   0.00000  Uiso   1.00
H855   H     0.68871   0.33899   0.67554   0.00000  Uiso   1.00
H856   H     0.98564   0.41402   0.68476   0.00000  Uiso   1.00
H857   H     0.89195   0.42757   0.65648   0.00000  Uiso   1.00
H858   H     0.83449   0.36675   0.62008   0.00000  Uiso   1.00
H859   H     0.79611   0.01804   0.79331   0.00000  Uiso   1.00
H860   H     0.79037   0.14875   0.85608   0.00000  Uiso   1.00
H861   H     0.71083   0.10150   0.82989   0.00000  Uiso   1.00
H862   H     0.95607   0.12881   0.83663   0.00000  Uiso   1.00
H863   H     0.94677   0.20317   0.87061   0.00000  Uiso   1.00
H864   H     0.69143   0.25260   0.89232   0.00000  Uiso   1.00
H865   H     0.78906   0.47829   0.69592   0.00000  Uiso   1.00
H866   H     0.78324   0.09865   0.79456   0.00000  Uiso   1.00
H867   H     0.77438   0.39631   0.69713   0.00000  Uiso   1.00
H868   H     0.91067   0.12505   0.71195   0.00000  Uiso   1.00
H869   H     0.91369   0.38093   0.79642   0.00000  Uiso   1.00
H870   H     0.78818   0.18691   0.53302   0.00000  Uiso   1.00
N871   N     0.83333   0.24999   0.62623   0.00000  Uiso   1.00
N872   N     0.83333   0.25001   0.87376   0.00000  Uiso   1.00
O873   O     0.83334   0.18454   0.78974   0.00000  Uiso   1.00
O874   O     0.83333   0.31547   0.71026   0.00000  Uiso   1.00
O875   O     0.83334   0.18453   0.71026   0.00000  Uiso   1.00
O876   O     0.83333   0.31547   0.78974   0.00000  Uiso   1.00
O877   O     0.75725   0.25000   0.78044   0.00000  Uiso   1.00
O878   O     0.90942   0.25000   0.71955   0.00000  Uiso   1.00
O879   O     0.75725   0.25000   0.70096   0.00000  Uiso   1.00
O880   O     0.90942   0.25001   0.79903   0.00000  Uiso   1.00
Zn881  Zn    0.83333   0.25001   0.80307   0.00000  Uiso   1.00
Zn882  Zn    0.83333   0.25000   0.69693   0.00000  Uiso   1.00
C883   C     0.16874   0.66395   0.75092   0.00000  Uiso   1.00
C884   C     0.12786   0.73020   0.94549   0.00000  Uiso   1.00
C885   C     0.17046   0.74812   0.52726   0.00000  Uiso   1.00
C886   C     0.17058   0.74888   0.97407   0.00000  Uiso   1.00
C887   C     0.06724   0.74882   0.73804   0.00000  Uiso   1.00
C888   C     0.26609   0.75153   0.76188   0.00000  Uiso   1.00
C889   C     0.01246   0.74443   0.73231   0.00000  Uiso   1.00
C890   C     0.32085   0.75650   0.76729   0.00000  Uiso   1.00
C891   C     0.15505   0.54111   0.77588   0.00000  Uiso   1.00
C892   C     0.15016   0.95728   0.71756   0.00000  Uiso   1.00
C893   C     0.14791   0.58682   0.77713   0.00000  Uiso   1.00
C894   C     0.16737   0.83617   0.74927   0.00000  Uiso   1.00
C895   C     0.14145   0.91104   0.71855   0.00000  Uiso   1.00
C896   C     0.17895   0.61664   0.75312   0.00000  Uiso   1.00
C897   C     0.17560   0.88418   0.74817   0.00000  Uiso   1.00
C898   C     0.21937   0.60121   0.72979   0.00000  Uiso   1.00
C899   C     0.22001   0.90281   0.77484   0.00000  Uiso   1.00
C900   C     0.22703   0.55507   0.72823   0.00000  Uiso   1.00
C901   C     0.22975   0.94937   0.77374   0.00000  Uiso   1.00
C902   C     0.19329   0.52501   0.75045   0.00000  Uiso   1.00
C903   C     0.19327   0.97662   0.74572   0.00000  Uiso   1.00
C904   C     0.26879   0.53966   0.70206   0.00000  Uiso   1.00
C905   C     0.14200   0.71479   0.55148   0.00000  Uiso   1.00
C906   C     0.32175   0.54976   0.71816   0.00000  Uiso   1.00
C907   C     0.02797   0.53691   0.69235   0.00000  Uiso   1.00
C908   C     0.01494   0.51406   0.65038   0.00000  Uiso   1.00
C909   C     0.29559   0.50443   0.63391   0.00000  Uiso   1.00
C910   C     0.25588   0.51732   0.65957   0.00000  Uiso   1.00
C911   C     0.27806   0.96793   0.80145   0.00000  Uiso   1.00
C912   C     0.32721   0.95130   0.79494   0.00000  Uiso   1.00
C913   C     0.03977   0.96786   0.82105   0.00000  Uiso   1.00
C914   C     0.03715   0.50133   0.85375   0.00000  Uiso   1.00
C915   C     0.32181   0.51770   0.86093   0.00000  Uiso   1.00
C916   C     0.21164   0.76886   0.95076   0.00000  Uiso   1.00
C917   C     0.27570   0.50086   0.83524   0.00000  Uiso   1.00
C918   C     0.22822   0.81709   0.62953   0.00000  Uiso   1.00
C919   C     0.28174   0.81009   0.64362   0.00000  Uiso   1.00
C920   C     0.31423   0.84473   0.66423   0.00000  Uiso   1.00
C921   C     0.29378   0.88704   0.66928   0.00000  Uiso   1.00
C922   C     0.24105   0.89477   0.65326   0.00000  Uiso   1.00
C923   C     0.20844   0.86013   0.63295   0.00000  Uiso   1.00
C924   C     0.08012   0.70609   0.87131   0.00000  Uiso   1.00
C925   C     0.08517   0.66258   0.85512   0.00000  Uiso   1.00
C926   C     0.04041   0.63528   0.84165   0.00000  Uiso   1.00
C927   C     0.14020   0.71663   0.60056   0.00000  Uiso   1.00
C928   C     0.32381   0.65039   0.84607   0.00000  Uiso   1.00
C929   C     0.31852   0.69253   0.86468   0.00000  Uiso   1.00
C930   C     0.02957   0.72047   0.87678   0.00000  Uiso   1.00
C931   C     0.20866   0.76937   0.90089   0.00000  Uiso   1.00
C932   C     0.19582   0.78207   0.60367   0.00000  Uiso   1.00
C933   C     0.12631   0.73014   0.89607   0.00000  Uiso   1.00
C934   C     0.19734   0.78181   0.55456   0.00000  Uiso   1.00
H935   H     0.32615   0.73002   0.70011   0.00000  Uiso   1.00
H936   H     0.24631   0.78360   0.97066   0.00000  Uiso   1.00
H937   H     0.11812   0.69079   0.61820   0.00000  Uiso   1.00
H938   H     0.24062   0.78492   0.88401   0.00000  Uiso   1.00
H939   H     0.21941   0.80845   0.53798   0.00000  Uiso   1.00
H940   H     0.09480   0.71537   0.96143   0.00000  Uiso   1.00
H941   H     0.33230   0.56757   0.75057   0.00000  Uiso   1.00
H942   H     0.06866   0.54499   0.70465   0.00000  Uiso   1.00
H943   H     0.04563   0.50412   0.63045   0.00000  Uiso   1.00
H944   H     0.28550   0.98704   0.60121   0.00000  Uiso   1.00
H945   H     0.21512   0.51034   0.64614   0.00000  Uiso   1.00
H946   H     0.00723   0.77124   0.79926   0.00000  Uiso   1.00
H947   H     0.33002   0.92550   0.76964   0.00000  Uiso   1.00
H948   H     0.07732   0.95455   0.81598   0.00000  Uiso   1.00
H949   H     0.07279   0.51433   0.87376   0.00000  Uiso   1.00
H950   H     0.31976   0.54325   0.88668   0.00000  Uiso   1.00
H951   H     0.23833   0.51309   0.84227   0.00000  Uiso   1.00
H952   H     0.29836   0.77810   0.63769   0.00000  Uiso   1.00
H953   H     0.02205   0.83899   0.67554   0.00000  Uiso   1.00
H954   H     0.31897   0.91402   0.68476   0.00000  Uiso   1.00
H955   H     0.22528   0.92757   0.65648   0.00000  Uiso   1.00
H956   H     0.16782   0.86675   0.62008   0.00000  Uiso   1.00
H957   H     0.12944   0.51804   0.79331   0.00000  Uiso   1.00
H958   H     0.12370   0.64875   0.85608   0.00000  Uiso   1.00
H959   H     0.04417   0.60150   0.82989   0.00000  Uiso   1.00
H960   H     0.28940   0.62881   0.83663   0.00000  Uiso   1.00
H961   H     0.28010   0.70317   0.87061   0.00000  Uiso   1.00
H962   H     0.02477   0.75260   0.89232   0.00000  Uiso   1.00
H963   H     0.12239   0.97829   0.69592   0.00000  Uiso   1.00
H964   H     0.11657   0.59865   0.79456   0.00000  Uiso   1.00
H965   H     0.10771   0.89631   0.69713   0.00000  Uiso   1.00
H966   H     0.24401   0.62505   0.71195   0.00000  Uiso   1.00
H967   H     0.24702   0.88093   0.79642   0.00000  Uiso   1.00
H968   H     0.12151   0.68691   0.53302   0.00000  Uiso   1.00
N969   N     0.16667   0.74999   0.62623   0.00000  Uiso   1.00
N970   N     0.16667   0.75001   0.87376   0.00000  Uiso   1.00
O971   O     0.16667   0.68454   0.78974   0.00000  Uiso   1.00
O972   O     0.16666   0.81547   0.71026   0.00000  Uiso   1.00
O973   O     0.16667   0.68453   0.71026   0.00000  Uiso   1.00
O974   O     0.16666   0.81547   0.78974   0.00000  Uiso   1.00
O975   O     0.09058   0.75000   0.78044   0.00000  Uiso   1.00
O976   O     0.24275   0.75000   0.71955   0.00000  Uiso   1.00
O977   O     0.09058   0.75000   0.70096   0.00000  Uiso   1.00
O978   O     0.24275   0.75001   0.79903   0.00000  Uiso   1.00
Zn979  Zn    0.16667   0.75001   0.80307   0.00000  Uiso   1.00
Zn980  Zn    0.16667   0.75000   0.69693   0.00000  Uiso   1.00
C981   C     0.50207   0.66395   0.75092   0.00000  Uiso   1.00
C982   C     0.46119   0.73020   0.94549   0.00000  Uiso   1.00
C983   C     0.50380   0.74812   0.52726   0.00000  Uiso   1.00
C984   C     0.50392   0.74888   0.97407   0.00000  Uiso   1.00
C985   C     0.40057   0.74882   0.73804   0.00000  Uiso   1.00
C986   C     0.59943   0.75153   0.76188   0.00000  Uiso   1.00
C987   C     0.34579   0.74443   0.73231   0.00000  Uiso   1.00
C988   C     0.65419   0.75650   0.76729   0.00000  Uiso   1.00
C989   C     0.48838   0.54111   0.77588   0.00000  Uiso   1.00
C990   C     0.48349   0.95728   0.71756   0.00000  Uiso   1.00
C991   C     0.48124   0.58682   0.77713   0.00000  Uiso   1.00
C992   C     0.50070   0.83617   0.74927   0.00000  Uiso   1.00
C993   C     0.47478   0.91104   0.71855   0.00000  Uiso   1.00
C994   C     0.51228   0.61664   0.75312   0.00000  Uiso   1.00
C995   C     0.50893   0.88418   0.74817   0.00000  Uiso   1.00
C996   C     0.55270   0.60121   0.72979   0.00000  Uiso   1.00
C997   C     0.55335   0.90281   0.77484   0.00000  Uiso   1.00
C998   C     0.56036   0.55507   0.72823   0.00000  Uiso   1.00
C999   C     0.56308   0.94937   0.77374   0.00000  Uiso   1.00
C1000  C     0.52662   0.52501   0.75045   0.00000  Uiso   1.00
C1001  C     0.52660   0.97662   0.74572   0.00000  Uiso   1.00
C1002  C     0.60213   0.53966   0.70206   0.00000  Uiso   1.00
C1003  C     0.47533   0.71479   0.55148   0.00000  Uiso   1.00
C1004  C     0.65508   0.54976   0.71816   0.00000  Uiso   1.00
C1005  C     0.36130   0.53691   0.69235   0.00000  Uiso   1.00
C1006  C     0.34828   0.51406   0.65038   0.00000  Uiso   1.00
C1007  C     0.62892   0.50443   0.63391   0.00000  Uiso   1.00
C1008  C     0.58921   0.51732   0.65957   0.00000  Uiso   1.00
C1009  C     0.61139   0.96793   0.80145   0.00000  Uiso   1.00
C1010  C     0.66054   0.95130   0.79494   0.00000  Uiso   1.00
C1011  C     0.37310   0.96786   0.82105   0.00000  Uiso   1.00
C1012  C     0.37049   0.50133   0.85375   0.00000  Uiso   1.00
C1013  C     0.65514   0.51770   0.86093   0.00000  Uiso   1.00
C1014  C     0.54497   0.76886   0.95076   0.00000  Uiso   1.00
C1015  C     0.60903   0.50086   0.83524   0.00000  Uiso   1.00
C1016  C     0.56156   0.81709   0.62953   0.00000  Uiso   1.00
C1017  C     0.61508   0.81009   0.64362   0.00000  Uiso   1.00
C1018  C     0.64756   0.84473   0.66423   0.00000  Uiso   1.00
C1019  C     0.62711   0.88704   0.66928   0.00000  Uiso   1.00
C1020  C     0.57438   0.89477   0.65326   0.00000  Uiso   1.00
C1021  C     0.54177   0.86013   0.63295   0.00000  Uiso   1.00
C1022  C     0.41345   0.70609   0.87131   0.00000  Uiso   1.00
C1023  C     0.41850   0.66258   0.85512   0.00000  Uiso   1.00
C1024  C     0.37374   0.63528   0.84165   0.00000  Uiso   1.00
C1025  C     0.47353   0.71663   0.60056   0.00000  Uiso   1.00
C1026  C     0.65714   0.65039   0.84607   0.00000  Uiso   1.00
C1027  C     0.65185   0.69253   0.86468   0.00000  Uiso   1.00
C1028  C     0.36290   0.72047   0.87678   0.00000  Uiso   1.00
C1029  C     0.54199   0.76937   0.90089   0.00000  Uiso   1.00
C1030  C     0.52915   0.78207   0.60367   0.00000  Uiso   1.00
C1031  C     0.45965   0.73014   0.89607   0.00000  Uiso   1.00
C1032  C     0.53067   0.78181   0.55456   0.00000  Uiso   1.00
H1033  H     0.65948   0.73002   0.70011   0.00000  Uiso   1.00
H1034  H     0.57964   0.78360   0.97066   0.00000  Uiso   1.00
H1035  H     0.45145   0.69079   0.61820   0.00000  Uiso   1.00
H1036  H     0.57396   0.78492   0.88401   0.00000  Uiso   1.00
H1037  H     0.55274   0.80845   0.53798   0.00000  Uiso   1.00
H1038  H     0.42814   0.71537   0.96143   0.00000  Uiso   1.00
H1039  H     0.66564   0.56757   0.75057   0.00000  Uiso   1.00
H1040  H     0.40199   0.54499   0.70465   0.00000  Uiso   1.00
H1041  H     0.37897   0.50412   0.63045   0.00000  Uiso   1.00
H1042  H     0.61883   0.98704   0.60121   0.00000  Uiso   1.00
H1043  H     0.54846   0.51034   0.64614   0.00000  Uiso   1.00
H1044  H     0.34056   0.77124   0.79926   0.00000  Uiso   1.00
H1045  H     0.66335   0.92550   0.76964   0.00000  Uiso   1.00
H1046  H     0.41065   0.95455   0.81598   0.00000  Uiso   1.00
H1047  H     0.40612   0.51433   0.87376   0.00000  Uiso   1.00
H1048  H     0.65309   0.54325   0.88668   0.00000  Uiso   1.00
H1049  H     0.57166   0.51309   0.84227   0.00000  Uiso   1.00
H1050  H     0.63169   0.77810   0.63769   0.00000  Uiso   1.00
H1051  H     0.35538   0.83899   0.67554   0.00000  Uiso   1.00
H1052  H     0.65230   0.91402   0.68476   0.00000  Uiso   1.00
H1053  H     0.55862   0.92757   0.65648   0.00000  Uiso   1.00
H1054  H     0.50115   0.86675   0.62008   0.00000  Uiso   1.00
H1055  H     0.46278   0.51804   0.79331   0.00000  Uiso   1.00
H1056  H     0.45703   0.64875   0.85608   0.00000  Uiso   1.00
H1057  H     0.37750   0.60150   0.82989   0.00000  Uiso   1.00
H1058  H     0.62273   0.62881   0.83663   0.00000  Uiso   1.00
H1059  H     0.61343   0.70317   0.87061   0.00000  Uiso   1.00
H1060  H     0.35810   0.75260   0.89232   0.00000  Uiso   1.00
H1061  H     0.45573   0.97829   0.69592   0.00000  Uiso   1.00
H1062  H     0.44990   0.59865   0.79456   0.00000  Uiso   1.00
H1063  H     0.44104   0.89631   0.69713   0.00000  Uiso   1.00
H1064  H     0.57734   0.62505   0.71195   0.00000  Uiso   1.00
H1065  H     0.58035   0.88093   0.79642   0.00000  Uiso   1.00
H1066  H     0.45485   0.68691   0.53302   0.00000  Uiso   1.00
N1067  N     0.50000   0.74999   0.62623   0.00000  Uiso   1.00
N1068  N     0.50000   0.75001   0.87376   0.00000  Uiso   1.00
O1069  O     0.50000   0.68454   0.78974   0.00000  Uiso   1.00
O1070  O     0.50000   0.81547   0.71026   0.00000  Uiso   1.00
O1071  O     0.50000   0.68453   0.71026   0.00000  Uiso   1.00
O1072  O     0.50000   0.81547   0.78974   0.00000  Uiso   1.00
O1073  O     0.42392   0.75000   0.78044   0.00000  Uiso   1.00
O1074  O     0.57608   0.75000   0.71955   0.00000  Uiso   1.00
O1075  O     0.42392   0.75000   0.70096   0.00000  Uiso   1.00
O1076  O     0.57608   0.75001   0.79903   0.00000  Uiso   1.00
Zn1077 Zn    0.50000   0.75001   0.80307   0.00000  Uiso   1.00
Zn1078 Zn    0.50000   0.75000   0.69693   0.00000  Uiso   1.00
C1079  C     0.83540   0.66395   0.75092   0.00000  Uiso   1.00
C1080  C     0.79453   0.73020   0.94549   0.00000  Uiso   1.00
C1081  C     0.83713   0.74812   0.52726   0.00000  Uiso   1.00
C1082  C     0.83725   0.74888   0.97407   0.00000  Uiso   1.00
C1083  C     0.73390   0.74882   0.73804   0.00000  Uiso   1.00
C1084  C     0.93276   0.75153   0.76188   0.00000  Uiso   1.00
C1085  C     0.67913   0.74443   0.73231   0.00000  Uiso   1.00
C1086  C     0.98752   0.75650   0.76729   0.00000  Uiso   1.00
C1087  C     0.82171   0.54111   0.77588   0.00000  Uiso   1.00
C1088  C     0.81682   0.95728   0.71756   0.00000  Uiso   1.00
C1089  C     0.81458   0.58682   0.77713   0.00000  Uiso   1.00
C1090  C     0.83404   0.83617   0.74927   0.00000  Uiso   1.00
C1091  C     0.80812   0.91104   0.71855   0.00000  Uiso   1.00
C1092  C     0.84561   0.61664   0.75312   0.00000  Uiso   1.00
C1093  C     0.84226   0.88418   0.74817   0.00000  Uiso   1.00
C1094  C     0.88604   0.60121   0.72979   0.00000  Uiso   1.00
C1095  C     0.88668   0.90281   0.77484   0.00000  Uiso   1.00
C1096  C     0.89369   0.55507   0.72823   0.00000  Uiso   1.00
C1097  C     0.89641   0.94937   0.77374   0.00000  Uiso   1.00
C1098  C     0.85995   0.52501   0.75045   0.00000  Uiso   1.00
C1099  C     0.85994   0.97662   0.74572   0.00000  Uiso   1.00
C1100  C     0.93546   0.53966   0.70206   0.00000  Uiso   1.00
C1101  C     0.80867   0.71479   0.55148   0.00000  Uiso   1.00
C1102  C     0.98842   0.54976   0.71816   0.00000  Uiso   1.00
C1103  C     0.69464   0.53691   0.69235   0.00000  Uiso   1.00
C1104  C     0.68161   0.51406   0.65038   0.00000  Uiso   1.00
C1105  C     0.96225   0.50443   0.63391   0.00000  Uiso   1.00
C1106  C     0.92254   0.51732   0.65957   0.00000  Uiso   1.00
C1107  C     0.94473   0.96793   0.80145   0.00000  Uiso   1.00
C1108  C     0.99387   0.95130   0.79494   0.00000  Uiso   1.00
C1109  C     0.70644   0.96786   0.82105   0.00000  Uiso   1.00
C1110  C     0.70382   0.50133   0.85375   0.00000  Uiso   1.00
C1111  C     0.98847   0.51770   0.86093   0.00000  Uiso   1.00
C1112  C     0.87830   0.76886   0.95076   0.00000  Uiso   1.00
C1113  C     0.94236   0.50086   0.83524   0.00000  Uiso   1.00
C1114  C     0.89489   0.81709   0.62953   0.00000  Uiso   1.00
C1115  C     0.94841   0.81009   0.64362   0.00000  Uiso   1.00
C1116  C     0.98090   0.84473   0.66423   0.00000  Uiso   1.00
C1117  C     0.96044   0.88704   0.66928   0.00000  Uiso   1.00
C1118  C     0.90771   0.89477   0.65326   0.00000  Uiso   1.00
C1119  C     0.87510   0.86013   0.63295   0.00000  Uiso   1.00
C1120  C     0.74678   0.70609   0.87131   0.00000  Uiso   1.00
C1121  C     0.75184   0.66258   0.85512   0.00000  Uiso   1.00
C1122  C     0.70707   0.63528   0.84165   0.00000  Uiso   1.00
C1123  C     0.80687   0.71663   0.60056   0.00000  Uiso   1.00
C1124  C     0.99047   0.65039   0.84607   0.00000  Uiso   1.00
C1125  C     0.98519   0.69253   0.86468   0.00000  Uiso   1.00
C1126  C     0.69623   0.72047   0.87678   0.00000  Uiso   1.00
C1127  C     0.87533   0.76937   0.90089   0.00000  Uiso   1.00
C1128  C     0.86248   0.78207   0.60367   0.00000  Uiso   1.00
C1129  C     0.79298   0.73014   0.89607   0.00000  Uiso   1.00
C1130  C     0.86401   0.78181   0.55456   0.00000  Uiso   1.00
H1131  H     0.99282   0.73002   0.70011   0.00000  Uiso   1.00
H1132  H     0.91298   0.78360   0.97066   0.00000  Uiso   1.00
H1133  H     0.78478   0.69079   0.61820   0.00000  Uiso   1.00
H1134  H     0.90729   0.78492   0.88401   0.00000  Uiso   1.00
H1135  H     0.88608   0.80845   0.53798   0.00000  Uiso   1.00
H1136  H     0.76147   0.71537   0.96143   0.00000  Uiso   1.00
H1137  H     0.99897   0.56757   0.75057   0.00000  Uiso   1.00
H1138  H     0.73532   0.54499   0.70465   0.00000  Uiso   1.00
H1139  H     0.71230   0.50412   0.63045   0.00000  Uiso   1.00
H1140  H     0.95216   0.98704   0.60121   0.00000  Uiso   1.00
H1141  H     0.88179   0.51034   0.64614   0.00000  Uiso   1.00
H1142  H     0.67389   0.77124   0.79926   0.00000  Uiso   1.00
H1143  H     0.99668   0.92550   0.76964   0.00000  Uiso   1.00
H1144  H     0.74399   0.95455   0.81598   0.00000  Uiso   1.00
H1145  H     0.73946   0.51433   0.87376   0.00000  Uiso   1.00
H1146  H     0.98642   0.54325   0.88668   0.00000  Uiso   1.00
H1147  H     0.90500   0.51309   0.84227   0.00000  Uiso   1.00
H1148  H     0.96502   0.77810   0.63769   0.00000  Uiso   1.00
H1149  H     0.68871   0.83899   0.67554   0.00000  Uiso   1.00
H1150  H     0.98564   0.91402   0.68476   0.00000  Uiso   1.00
H1151  H     0.89195   0.92757   0.65648   0.00000  Uiso   1.00
H1152  H     0.83449   0.86675   0.62008   0.00000  Uiso   1.00
H1153  H     0.79611   0.51804   0.79331   0.00000  Uiso   1.00
H1154  H     0.79037   0.64875   0.85608   0.00000  Uiso   1.00
H1155  H     0.71083   0.60150   0.82989   0.00000  Uiso   1.00
H1156  H     0.95607   0.62881   0.83663   0.00000  Uiso   1.00
H1157  H     0.94677   0.70317   0.87061   0.00000  Uiso   1.00
H1158  H     0.69143   0.75260   0.89232   0.00000  Uiso   1.00
H1159  H     0.78906   0.97829   0.69592   0.00000  Uiso   1.00
H1160  H     0.78324   0.59865   0.79456   0.00000  Uiso   1.00
H1161  H     0.77438   0.89631   0.69713   0.00000  Uiso   1.00
H1162  H     0.91067   0.62505   0.71195   0.00000  Uiso   1.00
H1163  H     0.91369   0.88093   0.79642   0.00000  Uiso   1.00
H1164  H     0.78818   0.68691   0.53302   0.00000  Uiso   1.00
N1165  N     0.83333   0.74999   0.62623   0.00000  Uiso   1.00
N1166  N     0.83333   0.75001   0.87376   0.00000  Uiso   1.00
O1167  O     0.83334   0.68454   0.78974   0.00000  Uiso   1.00
O1168  O     0.83333   0.81547   0.71026   0.00000  Uiso   1.00
O1169  O     0.83334   0.68453   0.71026   0.00000  Uiso   1.00
O1170  O     0.83333   0.81547   0.78974   0.00000  Uiso   1.00
O1171  O     0.75725   0.75000   0.78044   0.00000  Uiso   1.00
O1172  O     0.90942   0.75000   0.71955   0.00000  Uiso   1.00
O1173  O     0.75725   0.75000   0.70096   0.00000  Uiso   1.00
O1174  O     0.90942   0.75001   0.79903   0.00000  Uiso   1.00
Zn1175 Zn    0.83333   0.75001   0.80307   0.00000  Uiso   1.00
Zn1176 Zn    0.83333   0.75000   0.69693   0.00000  Uiso   1.00
loop_
_geom_bond_atom_site_label_1
_geom_bond_atom_site_label_2
_geom_bond_distance
_geom_bond_site_symmetry_2
_ccdc_geom_bond_type
C1     O91     1.287   .     A
C1     O89     1.293   .     A
C1     C14     1.434   .     S
C2     C4      1.393   .     A
C2     H58     1.083   .     S
C2     C51     1.407   .     A
C3     C23     1.417   .     A
C3     C52     1.398   .     A
C3     C592    1.519   1_554 S
C4     C34     1.414   .     A
C4     C591    1.519   .     S
C5     O95     1.278   .     A
C5     C7      1.396   .     S
C5     O93     1.284   .     A
C6     O94     1.282   .     A
C6     C8      1.397   .     S
C6     O96     1.280   .     A
C7     C204    1.318   1_455 S
C7     H249    1.087   1_455 S
C8     C105    1.318   .     S
C8     H162    1.086   .     S
C9     C20     1.398   .     A
C9     C11     1.376   .     A
C9     H75     1.081   .     S
C10    C21     1.402   .     A
C10    C13     1.380   .     A
C10    H81     1.082   .     S
C11    C14     1.386   .     A
C11    H82     1.073   .     S
C12    O90     1.290   .     A
C12    C15     1.430   .     S
C12    O92     1.290   .     A
C13    C15     1.391   .     A
C13    H83     1.084   .     S
C14    C16     1.399   .     A
C15    C17     1.397   .     A
C16    H84     1.085   .     S
C16    C18     1.392   .     A
C17    H85     1.085   .     S
C17    C19     1.393   .     A
C18    C20     1.407   .     A
C18    C22     1.475   .     S
C19    C21     1.411   .     A
C19    C29     1.484   .     S
C20    C315    1.446   1_545 S
C21    C314    1.446   .     S
C22    C28     1.402   .     A
C22    C24     1.404   .     A
C23    C45     1.411   .     A
C23    H86     1.081   .     S
C24    H59     1.083   .     S
C24    C123    1.397   .     S
C25    H60     1.080   .     S
C25    C26     1.397   .     A
C25    C220    1.397   1_455 S
C26    H61     1.082   .     S
C26    C223    1.397   1_455 S
C27    C28     1.398   .     A
C27    C124    1.397   .     S
C27    H356    1.082   1_545 S
C28    H63     1.083   .     S
C29    C30     1.406   .     A
C29    C329    1.406   .     S
C30    H65     1.082   .     S
C30    C129    1.396   .     S
C31    H66     1.082   .     S
C31    C226    1.396   1_455 S
C31    C326    1.397   .     S
C32    H67     1.082   .     S
C32    C325    1.397   1_545 S
C32    C229    1.397   1_455 S
C33    C35     1.398   .     A
C33    H68     1.082   .     S
C33    C130    1.397   .     S
C34    H54     1.081   .     S
C34    C49     1.416   .     A
C35    H69     1.081   .     S
C35    C323    1.406   1_545 S
C36    C41     1.402   .     A
C36    C50     1.468   .     S
C36    C37     1.403   .     A
C37    H70     1.081   .     S
C37    C38     1.398   .     A
C38    C39     1.397   .     A
C38    H169    1.083   .     S
C39    H72     1.082   .     S
C39    C40     1.397   .     A
C40    H73     1.078   .     S
C40    C41     1.397   .     A
C41    H74     1.083   .     S
C42    C51     1.476   .     S
C42    C48     1.408   .     A
C42    C43     1.402   .     A
C43    C44     1.402   .     A
C43    H76     1.081   .     S
C44    H77     1.080   .     S
C44    C242    1.394   1_455 S
C45    H55     1.082   .     S
C45    N87     1.363   .     A
C46    C47     1.393   .     A
C46    H78     1.083   .     S
C46    C142    1.394   .     S
C47    H79     1.081   .     S
C47    C146    1.398   .     S
C48    H80     1.083   .     S
C48    C243    1.398   1_455 S
C49    N88     1.368   .     A
C49    H56     1.082   .     S
C50    C52     1.408   .     A
C50    N87     1.378   .     A
C51    N88     1.383   .     A
C52    H57     1.083   .     S
H53    C105    1.087   .     S
H62    C321    1.082   .     S
H64    C204    1.086   1_455 S
H71    C234    1.083   1_455 S
N87    Zn98    2.019   .     S
N88    Zn97    2.019   .     S
O89    Zn97    1.992   .     S
O90    Zn98    1.992   .     S
O91    Zn98    1.963   .     S
O92    Zn97    1.963   .     S
O93    Zn97    1.978   .     S
O94    Zn98    1.978   .     S
O95    Zn98    1.969   .     S
O96    Zn97    1.969   .     S
C99    O189    1.287   .     A
C99    O187    1.293   .     A
C99    C112    1.434   .     S
C100   C102    1.393   .     A
C100   H156    1.083   .     S
C100   C149    1.407   .     A
C101   C121    1.417   .     A
C101   C150    1.398   .     A
C101   C690    1.519   1_554 S
C102   C132    1.414   .     A
C102   C689    1.519   .     S
C103   O193    1.278   .     A
C103   C105    1.396   .     S
C103   O191    1.284   .     A
C104   O192    1.282   .     A
C104   C106    1.397   .     S
C104   O194    1.280   .     A
C106   C203    1.318   .     S
C106   H260    1.086   .     S
C107   C118    1.398   .     A
C107   C109    1.376   .     A
C107   H173    1.081   .     S
C108   C119    1.402   .     A
C108   C111    1.380   .     A
C108   H179    1.082   .     S
C109   C112    1.386   .     A
C109   H180    1.073   .     S
C110   O188    1.290   .     A
C110   C113    1.430   .     S
C110   O190    1.290   .     A
C111   C113    1.391   .     A
C111   H181    1.084   .     S
C112   C114    1.399   .     A
C113   C115    1.397   .     A
C114   H182    1.085   .     S
C114   C116    1.392   .     A
C115   H183    1.085   .     S
C115   C117    1.393   .     A
C116   C118    1.407   .     A
C116   C120    1.475   .     S
C117   C119    1.411   .     A
C117   C127    1.484   .     S
C118   C413    1.446   1_545 S
C119   C412    1.446   .     S
C120   C126    1.402   .     A
C120   C122    1.404   .     A
C121   C143    1.411   .     A
C121   H184    1.081   .     S
C122   H157    1.083   .     S
C122   C221    1.397   .     S
C123   H158    1.080   .     S
C123   C124    1.397   .     A
C124   H159    1.082   .     S
C125   C126    1.398   .     A
C125   C222    1.397   .     S
C125   H454    1.082   1_545 S
C126   H161    1.083   .     S
C127   C128    1.406   .     A
C127   C427    1.406   .     S
C128   H163    1.082   .     S
C128   C227    1.396   .     S
C129   H164    1.082   .     S
C129   C424    1.397   .     S
C130   H165    1.082   .     S
C130   C423    1.397   1_545 S
C131   C133    1.398   .     A
C131   H166    1.082   .     S
C131   C228    1.397   .     S
C132   H152    1.081   .     S
C132   C147    1.416   .     A
C133   H167    1.081   .     S
C133   C421    1.406   1_545 S
C134   C139    1.402   .     A
C134   C148    1.468   .     S
C134   C135    1.403   .     A
C135   H168    1.081   .     S
C135   C136    1.398   .     A
C136   C137    1.397   .     A
C136   H267    1.083   .     S
C137   H170    1.082   .     S
C137   C138    1.397   .     A
C138   H171    1.078   .     S
C138   C139    1.397   .     A
C139   H172    1.083   .     S
C140   C149    1.476   .     S
C140   C146    1.408   .     A
C140   C141    1.402   .     A
C141   C142    1.402   .     A
C141   H174    1.081   .     S
C142   H175    1.080   .     S
C143   H153    1.082   .     S
C143   N185    1.363   .     A
C144   C145    1.393   .     A
C144   H176    1.083   .     S
C144   C240    1.394   .     S
C145   H177    1.081   .     S
C145   C244    1.398   .     S
C146   H178    1.083   .     S
C147   N186    1.368   .     A
C147   H154    1.082   .     S
C148   C150    1.408   .     A
C148   N185    1.378   .     A
C149   N186    1.383   .     A
C150   H155    1.083   .     S
H151   C203    1.087   .     S
H160   C419    1.082   .     S
N185   Zn196   2.019   .     S
N186   Zn195   2.019   .     S
O187   Zn195   1.992   .     S
O188   Zn196   1.992   .     S
O189   Zn196   1.963   .     S
O190   Zn195   1.963   .     S
O191   Zn195   1.978   .     S
O192   Zn196   1.978   .     S
O193   Zn196   1.969   .     S
O194   Zn195   1.969   .     S
C197   O287    1.287   .     A
C197   O285    1.293   .     A
C197   C210    1.434   .     S
C198   C200    1.393   .     A
C198   H254    1.083   .     S
C198   C247    1.407   .     A
C199   C219    1.417   .     A
C199   C248    1.398   .     A
C199   C788    1.519   1_554 S
C200   C230    1.414   .     A
C200   C787    1.519   .     S
C201   O291    1.278   .     A
C201   C203    1.396   .     S
C201   O289    1.284   .     A
C202   O290    1.282   .     A
C202   C204    1.397   .     S
C202   O292    1.280   .     A
C204   C7      1.318   1_655 S
C204   H64     1.086   1_655 S
C205   C216    1.398   .     A
C205   C207    1.376   .     A
C205   H271    1.081   .     S
C206   C217    1.402   .     A
C206   C209    1.380   .     A
C206   H277    1.082   .     S
C207   C210    1.386   .     A
C207   H278    1.073   .     S
C208   O286    1.290   .     A
C208   C211    1.430   .     S
C208   O288    1.290   .     A
C209   C211    1.391   .     A
C209   H279    1.084   .     S
C210   C212    1.399   .     A
C211   C213    1.397   .     A
C212   H280    1.085   .     S
C212   C214    1.392   .     A
C213   H281    1.085   .     S
C213   C215    1.393   .     A
C214   C216    1.407   .     A
C214   C218    1.475   .     S
C215   C217    1.411   .     A
C215   C225    1.484   .     S
C216   C511    1.446   1_545 S
C217   C510    1.446   .     S
C218   C224    1.402   .     A
C218   C220    1.404   .     A
C219   C241    1.411   .     A
C219   H282    1.081   .     S
C220   H255    1.083   .     S
C220   C25     1.397   1_655 S
C221   H256    1.080   .     S
C221   C222    1.397   .     A
C222   H257    1.082   .     S
C223   C224    1.398   .     A
C223   C26     1.397   1_655 S
C223   H552    1.082   1_545 S
C224   H259    1.083   .     S
C225   C226    1.406   .     A
C225   C525    1.406   .     S
C226   H261    1.082   .     S
C226   C31     1.396   1_655 S
C227   H262    1.082   .     S
C227   C522    1.397   .     S
C228   H263    1.082   .     S
C228   C521    1.397   1_545 S
C229   C231    1.398   .     A
C229   H264    1.082   .     S
C229   C32     1.397   1_655 S
C230   H250    1.081   .     S
C230   C245    1.416   .     A
C231   H265    1.081   .     S
C231   C519    1.406   1_545 S
C232   C237    1.402   .     A
C232   C246    1.468   .     S
C232   C233    1.403   .     A
C233   H266    1.081   .     S
C233   C234    1.398   .     A
C234   C235    1.397   .     A
C234   H71     1.083   1_655 S
C235   H268    1.082   .     S
C235   C236    1.397   .     A
C236   H269    1.078   .     S
C236   C237    1.397   .     A
C237   H270    1.083   .     S
C238   C247    1.476   .     S
C238   C244    1.408   .     A
C238   C239    1.402   .     A
C239   C240    1.402   .     A
C239   H272    1.081   .     S
C240   H273    1.080   .     S
C241   H251    1.082   .     S
C241   N283    1.363   .     A
C242   C243    1.393   .     A
C242   H274    1.083   .     S
C242   C44     1.394   1_655 S
C243   H275    1.081   .     S
C243   C48     1.398   1_655 S
C244   H276    1.083   .     S
C245   N284    1.368   .     A
C245   H252    1.082   .     S
C246   C248    1.408   .     A
C246   N283    1.378   .     A
C247   N284    1.383   .     A
C248   H253    1.083   .     S
H249   C7      1.087   1_655 S
H258   C517    1.082   .     S
N283   Zn294   2.019   .     S
N284   Zn293   2.019   .     S
O285   Zn293   1.992   .     S
O286   Zn294   1.992   .     S
O287   Zn294   1.963   .     S
O288   Zn293   1.963   .     S
O289   Zn293   1.978   .     S
O290   Zn294   1.978   .     S
O291   Zn294   1.969   .     S
O292   Zn293   1.969   .     S
C295   O385    1.287   .     A
C295   O383    1.293   .     A
C295   C308    1.434   .     S
C296   C298    1.393   .     A
C296   H352    1.083   .     S
C296   C345    1.407   .     A
C297   C317    1.417   .     A
C297   C346    1.398   .     A
C297   C886    1.519   1_554 S
C298   C328    1.414   .     A
C298   C885    1.519   .     S
C299   O389    1.278   .     A
C299   C301    1.396   .     S
C299   O387    1.284   .     A
C300   O388    1.282   .     A
C300   C302    1.397   .     S
C300   O390    1.280   .     A
C301   C498    1.318   1_455 S
C301   H543    1.087   1_455 S
C302   C399    1.318   .     S
C302   H456    1.086   .     S
C303   C314    1.398   .     A
C303   C305    1.376   .     A
C303   H369    1.081   .     S
C304   C315    1.402   .     A
C304   C307    1.380   .     A
C304   H375    1.082   .     S
C305   C308    1.386   .     A
C305   H376    1.073   .     S
C306   O384    1.290   .     A
C306   C309    1.430   .     S
C306   O386    1.290   .     A
C307   C309    1.391   .     A
C307   H377    1.084   .     S
C308   C310    1.399   .     A
C309   C311    1.397   .     A
C310   H378    1.085   .     S
C310   C312    1.392   .     A
C311   H379    1.085   .     S
C311   C313    1.393   .     A
C312   C314    1.407   .     A
C312   C316    1.475   .     S
C313   C315    1.411   .     A
C313   C323    1.484   .     S
C315   C20     1.446   1_565 S
C316   C322    1.402   .     A
C316   C318    1.404   .     A
C317   C339    1.411   .     A
C317   H380    1.081   .     S
C318   H353    1.083   .     S
C318   C417    1.397   .     S
C319   H354    1.080   .     S
C319   C320    1.397   .     A
C319   C514    1.397   1_455 S
C320   H355    1.082   .     S
C320   C517    1.397   1_455 S
C321   C322    1.398   .     A
C321   C418    1.397   .     S
C322   H357    1.083   .     S
C323   C324    1.406   .     A
C323   C35     1.406   1_565 S
C324   H359    1.082   .     S
C324   C423    1.396   .     S
C325   H360    1.082   .     S
C325   C520    1.396   1_455 S
C325   C32     1.397   1_565 S
C326   H361    1.082   .     S
C326   C523    1.397   1_455 S
C327   C329    1.398   .     A
C327   H362    1.082   .     S
C327   C424    1.397   .     S
C328   H348    1.081   .     S
C328   C343    1.416   .     A
C329   H363    1.081   .     S
C330   C335    1.402   .     A
C330   C344    1.468   .     S
C330   C331    1.403   .     A
C331   H364    1.081   .     S
C331   C332    1.398   .     A
C332   C333    1.397   .     A
C332   H463    1.083   .     S
C333   H366    1.082   .     S
C333   C334    1.397   .     A
C334   H367    1.078   .     S
C334   C335    1.397   .     A
C335   H368    1.083   .     S
C336   C345    1.476   .     S
C336   C342    1.408   .     A
C336   C337    1.402   .     A
C337   C338    1.402   .     A
C337   H370    1.081   .     S
C338   H371    1.080   .     S
C338   C536    1.394   1_455 S
C339   H349    1.082   .     S
C339   N381    1.363   .     A
C340   C341    1.393   .     A
C340   H372    1.083   .     S
C340   C436    1.394   .     S
C341   H373    1.081   .     S
C341   C440    1.398   .     S
C342   H374    1.083   .     S
C342   C537    1.398   1_455 S
C343   N382    1.368   .     A
C343   H350    1.082   .     S
C344   C346    1.408   .     A
C344   N381    1.378   .     A
C345   N382    1.383   .     A
C346   H351    1.083   .     S
H347   C399    1.087   .     S
H356   C27     1.082   1_565 S
H358   C498    1.086   1_455 S
H365   C528    1.083   1_455 S
N381   Zn392   2.019   .     S
N382   Zn391   2.019   .     S
O383   Zn391   1.992   .     S
O384   Zn392   1.992   .     S
O385   Zn392   1.963   .     S
O386   Zn391   1.963   .     S
O387   Zn391   1.978   .     S
O388   Zn392   1.978   .     S
O389   Zn392   1.969   .     S
O390   Zn391   1.969   .     S
C393   O483    1.287   .     A
C393   O481    1.293   .     A
C393   C406    1.434   .     S
C394   C396    1.393   .     A
C394   H450    1.083   .     S
C394   C443    1.407   .     A
C395   C415    1.417   .     A
C395   C444    1.398   .     A
C395   C984    1.519   1_554 S
C396   C426    1.414   .     A
C396   C983    1.519   .     S
C397   O487    1.278   .     A
C397   C399    1.396   .     S
C397   O485    1.284   .     A
C398   O486    1.282   .     A
C398   C400    1.397   .     S
C398   O488    1.280   .     A
C400   C497    1.318   .     S
C400   H554    1.086   .     S
C401   C412    1.398   .     A
C401   C403    1.376   .     A
C401   H467    1.081   .     S
C402   C413    1.402   .     A
C402   C405    1.380   .     A
C402   H473    1.082   .     S
C403   C406    1.386   .     A
C403   H474    1.073   .     S
C404   O482    1.290   .     A
C404   C407    1.430   .     S
C404   O484    1.290   .     A
C405   C407    1.391   .     A
C405   H475    1.084   .     S
C406   C408    1.399   .     A
C407   C409    1.397   .     A
C408   H476    1.085   .     S
C408   C410    1.392   .     A
C409   H477    1.085   .     S
C409   C411    1.393   .     A
C410   C412    1.407   .     A
C410   C414    1.475   .     S
C411   C413    1.411   .     A
C411   C421    1.484   .     S
C413   C118    1.446   1_565 S
C414   C420    1.402   .     A
C414   C416    1.404   .     A
C415   C437    1.411   .     A
C415   H478    1.081   .     S
C416   H451    1.083   .     S
C416   C515    1.397   .     S
C417   H452    1.080   .     S
C417   C418    1.397   .     A
C418   H453    1.082   .     S
C419   C420    1.398   .     A
C419   C516    1.397   .     S
C420   H455    1.083   .     S
C421   C422    1.406   .     A
C421   C133    1.406   1_565 S
C422   H457    1.082   .     S
C422   C521    1.396   .     S
C423   H458    1.082   .     S
C423   C130    1.397   1_565 S
C424   H459    1.082   .     S
C425   C427    1.398   .     A
C425   H460    1.082   .     S
C425   C522    1.397   .     S
C426   H446    1.081   .     S
C426   C441    1.416   .     A
C427   H461    1.081   .     S
C428   C433    1.402   .     A
C428   C442    1.468   .     S
C428   C429    1.403   .     A
C429   H462    1.081   .     S
C429   C430    1.398   .     A
C430   C431    1.397   .     A
C430   H561    1.083   .     S
C431   H464    1.082   .     S
C431   C432    1.397   .     A
C432   H465    1.078   .     S
C432   C433    1.397   .     A
C433   H466    1.083   .     S
C434   C443    1.476   .     S
C434   C440    1.408   .     A
C434   C435    1.402   .     A
C435   C436    1.402   .     A
C435   H468    1.081   .     S
C436   H469    1.080   .     S
C437   H447    1.082   .     S
C437   N479    1.363   .     A
C438   C439    1.393   .     A
C438   H470    1.083   .     S
C438   C534    1.394   .     S
C439   H471    1.081   .     S
C439   C538    1.398   .     S
C440   H472    1.083   .     S
C441   N480    1.368   .     A
C441   H448    1.082   .     S
C442   C444    1.408   .     A
C442   N479    1.378   .     A
C443   N480    1.383   .     A
C444   H449    1.083   .     S
H445   C497    1.087   .     S
H454   C125    1.082   1_565 S
N479   Zn490   2.019   .     S
N480   Zn489   2.019   .     S
O481   Zn489   1.992   .     S
O482   Zn490   1.992   .     S
O483   Zn490   1.963   .     S
O484   Zn489   1.963   .     S
O485   Zn489   1.978   .     S
O486   Zn490   1.978   .     S
O487   Zn490   1.969   .     S
O488   Zn489   1.969   .     S
C491   O581    1.287   .     A
C491   O579    1.293   .     A
C491   C504    1.434   .     S
C492   C494    1.393   .     A
C492   H548    1.083   .     S
C492   C541    1.407   .     A
C493   C513    1.417   .     A
C493   C542    1.398   .     A
C493   C1082   1.519   1_554 S
C494   C524    1.414   .     A
C494   C1081   1.519   .     S
C495   O585    1.278   .     A
C495   C497    1.396   .     S
C495   O583    1.284   .     A
C496   O584    1.282   .     A
C496   C498    1.397   .     S
C496   O586    1.280   .     A
C498   C301    1.318   1_655 S
C498   H358    1.086   1_655 S
C499   C510    1.398   .     A
C499   C501    1.376   .     A
C499   H565    1.081   .     S
C500   C511    1.402   .     A
C500   C503    1.380   .     A
C500   H571    1.082   .     S
C501   C504    1.386   .     A
C501   H572    1.073   .     S
C502   O580    1.290   .     A
C502   C505    1.430   .     S
C502   O582    1.290   .     A
C503   C505    1.391   .     A
C503   H573    1.084   .     S
C504   C506    1.399   .     A
C505   C507    1.397   .     A
C506   H574    1.085   .     S
C506   C508    1.392   .     A
C507   H575    1.085   .     S
C507   C509    1.393   .     A
C508   C510    1.407   .     A
C508   C512    1.475   .     S
C509   C511    1.411   .     A
C509   C519    1.484   .     S
C511   C216    1.446   1_565 S
C512   C518    1.402   .     A
C512   C514    1.404   .     A
C513   C535    1.411   .     A
C513   H576    1.081   .     S
C514   H549    1.083   .     S
C514   C319    1.397   1_655 S
C515   H550    1.080   .     S
C515   C516    1.397   .     A
C516   H551    1.082   .     S
C517   C518    1.398   .     A
C517   C320    1.397   1_655 S
C518   H553    1.083   .     S
C519   C520    1.406   .     A
C519   C231    1.406   1_565 S
C520   H555    1.082   .     S
C520   C325    1.396   1_655 S
C521   H556    1.082   .     S
C521   C228    1.397   1_565 S
C522   H557    1.082   .     S
C523   C525    1.398   .     A
C523   H558    1.082   .     S
C523   C326    1.397   1_655 S
C524   H544    1.081   .     S
C524   C539    1.416   .     A
C525   H559    1.081   .     S
C526   C531    1.402   .     A
C526   C540    1.468   .     S
C526   C527    1.403   .     A
C527   H560    1.081   .     S
C527   C528    1.398   .     A
C528   C529    1.397   .     A
C528   H365    1.083   1_655 S
C529   H562    1.082   .     S
C529   C530    1.397   .     A
C530   H563    1.078   .     S
C530   C531    1.397   .     A
C531   H564    1.083   .     S
C532   C541    1.476   .     S
C532   C538    1.408   .     A
C532   C533    1.402   .     A
C533   C534    1.402   .     A
C533   H566    1.081   .     S
C534   H567    1.080   .     S
C535   H545    1.082   .     S
C535   N577    1.363   .     A
C536   C537    1.393   .     A
C536   H568    1.083   .     S
C536   C338    1.394   1_655 S
C537   H569    1.081   .     S
C537   C342    1.398   1_655 S
C538   H570    1.083   .     S
C539   N578    1.368   .     A
C539   H546    1.082   .     S
C540   C542    1.408   .     A
C540   N577    1.378   .     A
C541   N578    1.383   .     A
C542   H547    1.083   .     S
H543   C301    1.087   1_655 S
H552   C223    1.082   1_565 S
N577   Zn588   2.019   .     S
N578   Zn587   2.019   .     S
O579   Zn587   1.992   .     S
O580   Zn588   1.992   .     S
O581   Zn588   1.963   .     S
O582   Zn587   1.963   .     S
O583   Zn587   1.978   .     S
O584   Zn588   1.978   .     S
O585   Zn588   1.969   .     S
O586   Zn587   1.969   .     S
C589   O679    1.287   .     A
C589   O677    1.293   .     A
C589   C602    1.434   .     S
C590   C592    1.393   .     A
C590   H646    1.083   .     S
C590   C639    1.407   .     A
C591   C611    1.417   .     A
C591   C640    1.398   .     A
C592   C622    1.414   .     A
C592   C3      1.519   1_556 S
C593   O683    1.278   .     A
C593   C595    1.396   .     S
C593   O681    1.284   .     A
C594   O682    1.282   .     A
C594   C596    1.397   .     S
C594   O684    1.280   .     A
C595   C792    1.318   1_455 S
C595   H837    1.087   1_455 S
C596   C693    1.318   .     S
C596   H750    1.086   .     S
C597   C608    1.398   .     A
C597   C599    1.376   .     A
C597   H663    1.081   .     S
C598   C609    1.402   .     A
C598   C601    1.380   .     A
C598   H669    1.082   .     S
C599   C602    1.386   .     A
C599   H670    1.073   .     S
C600   O678    1.290   .     A
C600   C603    1.430   .     S
C600   O680    1.290   .     A
C601   C603    1.391   .     A
C601   H671    1.084   .     S
C602   C604    1.399   .     A
C603   C605    1.397   .     A
C604   H672    1.085   .     S
C604   C606    1.392   .     A
C605   H673    1.085   .     S
C605   C607    1.393   .     A
C606   C608    1.407   .     A
C606   C610    1.475   .     S
C607   C609    1.411   .     A
C607   C617    1.484   .     S
C608   C903    1.446   1_545 S
C609   C902    1.446   .     S
C610   C616    1.402   .     A
C610   C612    1.404   .     A
C611   C633    1.411   .     A
C611   H674    1.081   .     S
C612   H647    1.083   .     S
C612   C711    1.397   .     S
C613   H648    1.080   .     S
C613   C614    1.397   .     A
C613   C808    1.397   1_455 S
C614   H649    1.082   .     S
C614   C811    1.397   1_455 S
C615   C616    1.398   .     A
C615   C712    1.397   .     S
C615   H944    1.082   1_545 S
C616   H651    1.083   .     S
C617   C618    1.406   .     A
C617   C917    1.406   .     S
C618   H653    1.082   .     S
C618   C717    1.396   .     S
C619   H654    1.082   .     S
C619   C814    1.396   1_455 S
C619   C914    1.397   .     S
C620   H655    1.082   .     S
C620   C913    1.397   1_545 S
C620   C817    1.397   1_455 S
C621   C623    1.398   .     A
C621   H656    1.082   .     S
C621   C718    1.397   .     S
C622   H642    1.081   .     S
C622   C637    1.416   .     A
C623   H657    1.081   .     S
C623   C911    1.406   1_545 S
C624   C629    1.402   .     A
C624   C638    1.468   .     S
C624   C625    1.403   .     A
C625   H658    1.081   .     S
C625   C626    1.398   .     A
C626   C627    1.397   .     A
C626   H757    1.083   .     S
C627   H660    1.082   .     S
C627   C628    1.397   .     A
C628   H661    1.078   .     S
C628   C629    1.397   .     A
C629   H662    1.083   .     S
C630   C639    1.476   .     S
C630   C636    1.408   .     A
C630   C631    1.402   .     A
C631   C632    1.402   .     A
C631   H664    1.081   .     S
C632   H665    1.080   .     S
C632   C830    1.394   1_455 S
C633   H643    1.082   .     S
C633   N675    1.363   .     A
C634   C635    1.393   .     A
C634   H666    1.083   .     S
C634   C730    1.394   .     S
C635   H667    1.081   .     S
C635   C734    1.398   .     S
C636   H668    1.083   .     S
C636   C831    1.398   1_455 S
C637   N676    1.368   .     A
C637   H644    1.082   .     S
C638   C640    1.408   .     A
C638   N675    1.378   .     A
C639   N676    1.383   .     A
C640   H645    1.083   .     S
H641   C693    1.087   .     S
H650   C909    1.082   .     S
H652   C792    1.086   1_455 S
H659   C822    1.083   1_455 S
N675   Zn686   2.019   .     S
N676   Zn685   2.019   .     S
O677   Zn685   1.992   .     S
O678   Zn686   1.992   .     S
O679   Zn686   1.963   .     S
O680   Zn685   1.963   .     S
O681   Zn685   1.978   .     S
O682   Zn686   1.978   .     S
O683   Zn686   1.969   .     S
O684   Zn685   1.969   .     S
C687   O777    1.287   .     A
C687   O775    1.293   .     A
C687   C700    1.434   .     S
C688   C690    1.393   .     A
C688   H744    1.083   .     S
C688   C737    1.407   .     A
C689   C709    1.417   .     A
C689   C738    1.398   .     A
C690   C720    1.414   .     A
C690   C101    1.519   1_556 S
C691   O781    1.278   .     A
C691   C693    1.396   .     S
C691   O779    1.284   .     A
C692   O780    1.282   .     A
C692   C694    1.397   .     S
C692   O782    1.280   .     A
C694   C791    1.318   .     S
C694   H848    1.086   .     S
C695   C706    1.398   .     A
C695   C697    1.376   .     A
C695   H761    1.081   .     S
C696   C707    1.402   .     A
C696   C699    1.380   .     A
C696   H767    1.082   .     S
C697   C700    1.386   .     A
C697   H768    1.073   .     S
C698   O776    1.290   .     A
C698   C701    1.430   .     S
C698   O778    1.290   .     A
C699   C701    1.391   .     A
C699   H769    1.084   .     S
C700   C702    1.399   .     A
C701   C703    1.397   .     A
C702   H770    1.085   .     S
C702   C704    1.392   .     A
C703   H771    1.085   .     S
C703   C705    1.393   .     A
C704   C706    1.407   .     A
C704   C708    1.475   .     S
C705   C707    1.411   .     A
C705   C715    1.484   .     S
C706   C1001   1.446   1_545 S
C707   C1000   1.446   .     S
C708   C714    1.402   .     A
C708   C710    1.404   .     A
C709   C731    1.411   .     A
C709   H772    1.081   .     S
C710   H745    1.083   .     S
C710   C809    1.397   .     S
C711   H746    1.080   .     S
C711   C712    1.397   .     A
C712   H747    1.082   .     S
C713   C714    1.398   .     A
C713   C810    1.397   .     S
C713   H1042   1.082   1_545 S
C714   H749    1.083   .     S
C715   C716    1.406   .     A
C715   C1015   1.406   .     S
C716   H751    1.082   .     S
C716   C815    1.396   .     S
C717   H752    1.082   .     S
C717   C1012   1.397   .     S
C718   H753    1.082   .     S
C718   C1011   1.397   1_545 S
C719   C721    1.398   .     A
C719   H754    1.082   .     S
C719   C816    1.397   .     S
C720   H740    1.081   .     S
C720   C735    1.416   .     A
C721   H755    1.081   .     S
C721   C1009   1.406   1_545 S
C722   C727    1.402   .     A
C722   C736    1.468   .     S
C722   C723    1.403   .     A
C723   H756    1.081   .     S
C723   C724    1.398   .     A
C724   C725    1.397   .     A
C724   H855    1.083   .     S
C725   H758    1.082   .     S
C725   C726    1.397   .     A
C726   H759    1.078   .     S
C726   C727    1.397   .     A
C727   H760    1.083   .     S
C728   C737    1.476   .     S
C728   C734    1.408   .     A
C728   C729    1.402   .     A
C729   C730    1.402   .     A
C729   H762    1.081   .     S
C730   H763    1.080   .     S
C731   H741    1.082   .     S
C731   N773    1.363   .     A
C732   C733    1.393   .     A
C732   H764    1.083   .     S
C732   C828    1.394   .     S
C733   H765    1.081   .     S
C733   C832    1.398   .     S
C734   H766    1.083   .     S
C735   N774    1.368   .     A
C735   H742    1.082   .     S
C736   C738    1.408   .     A
C736   N773    1.378   .     A
C737   N774    1.383   .     A
C738   H743    1.083   .     S
H739   C791    1.087   .     S
H748   C1007   1.082   .     S
N773   Zn784   2.019   .     S
N774   Zn783   2.019   .     S
O775   Zn783   1.992   .     S
O776   Zn784   1.992   .     S
O777   Zn784   1.963   .     S
O778   Zn783   1.963   .     S
O779   Zn783   1.978   .     S
O780   Zn784   1.978   .     S
O781   Zn784   1.969   .     S
O782   Zn783   1.969   .     S
C785   O875    1.287   .     A
C785   O873    1.293   .     A
C785   C798    1.434   .     S
C786   C788    1.393   .     A
C786   H842    1.083   .     S
C786   C835    1.407   .     A
C787   C807    1.417   .     A
C787   C836    1.398   .     A
C788   C818    1.414   .     A
C788   C199    1.519   1_556 S
C789   O879    1.278   .     A
C789   C791    1.396   .     S
C789   O877    1.284   .     A
C790   O878    1.282   .     A
C790   C792    1.397   .     S
C790   O880    1.280   .     A
C792   C595    1.318   1_655 S
C792   H652    1.086   1_655 S
C793   C804    1.398   .     A
C793   C795    1.376   .     A
C793   H859    1.081   .     S
C794   C805    1.402   .     A
C794   C797    1.380   .     A
C794   H865    1.082   .     S
C795   C798    1.386   .     A
C795   H866    1.073   .     S
C796   O874    1.290   .     A
C796   C799    1.430   .     S
C796   O876    1.290   .     A
C797   C799    1.391   .     A
C797   H867    1.084   .     S
C798   C800    1.399   .     A
C799   C801    1.397   .     A
C800   H868    1.085   .     S
C800   C802    1.392   .     A
C801   H869    1.085   .     S
C801   C803    1.393   .     A
C802   C804    1.407   .     A
C802   C806    1.475   .     S
C803   C805    1.411   .     A
C803   C813    1.484   .     S
C804   C1099   1.446   1_545 S
C805   C1098   1.446   .     S
C806   C812    1.402   .     A
C806   C808    1.404   .     A
C807   C829    1.411   .     A
C807   H870    1.081   .     S
C808   H843    1.083   .     S
C808   C613    1.397   1_655 S
C809   H844    1.080   .     S
C809   C810    1.397   .     A
C810   H845    1.082   .     S
C811   C812    1.398   .     A
C811   C614    1.397   1_655 S
C811   H1140   1.082   1_545 S
C812   H847    1.083   .     S
C813   C814    1.406   .     A
C813   C1113   1.406   .     S
C814   H849    1.082   .     S
C814   C619    1.396   1_655 S
C815   H850    1.082   .     S
C815   C1110   1.397   .     S
C816   H851    1.082   .     S
C816   C1109   1.397   1_545 S
C817   C819    1.398   .     A
C817   H852    1.082   .     S
C817   C620    1.397   1_655 S
C818   H838    1.081   .     S
C818   C833    1.416   .     A
C819   H853    1.081   .     S
C819   C1107   1.406   1_545 S
C820   C825    1.402   .     A
C820   C834    1.468   .     S
C820   C821    1.403   .     A
C821   H854    1.081   .     S
C821   C822    1.398   .     A
C822   C823    1.397   .     A
C822   H659    1.083   1_655 S
C823   H856    1.082   .     S
C823   C824    1.397   .     A
C824   H857    1.078   .     S
C824   C825    1.397   .     A
C825   H858    1.083   .     S
C826   C835    1.476   .     S
C826   C832    1.408   .     A
C826   C827    1.402   .     A
C827   C828    1.402   .     A
C827   H860    1.081   .     S
C828   H861    1.080   .     S
C829   H839    1.082   .     S
C829   N871    1.363   .     A
C830   C831    1.393   .     A
C830   H862    1.083   .     S
C830   C632    1.394   1_655 S
C831   H863    1.081   .     S
C831   C636    1.398   1_655 S
C832   H864    1.083   .     S
C833   N872    1.368   .     A
C833   H840    1.082   .     S
C834   C836    1.408   .     A
C834   N871    1.378   .     A
C835   N872    1.383   .     A
C836   H841    1.083   .     S
H837   C595    1.087   1_655 S
H846   C1105   1.082   .     S
N871   Zn882   2.019   .     S
N872   Zn881   2.019   .     S
O873   Zn881   1.992   .     S
O874   Zn882   1.992   .     S
O875   Zn882   1.963   .     S
O876   Zn881   1.963   .     S
O877   Zn881   1.978   .     S
O878   Zn882   1.978   .     S
O879   Zn882   1.969   .     S
O880   Zn881   1.969   .     S
C883   O973    1.287   .     A
C883   O971    1.293   .     A
C883   C896    1.434   .     S
C884   C886    1.393   .     A
C884   H940    1.083   .     S
C884   C933    1.407   .     A
C885   C905    1.417   .     A
C885   C934    1.398   .     A
C886   C916    1.414   .     A
C886   C297    1.519   1_556 S
C887   O977    1.278   .     A
C887   C889    1.396   .     S
C887   O975    1.284   .     A
C888   O976    1.282   .     A
C888   C890    1.397   .     S
C888   O978    1.280   .     A
C889   C1086   1.318   1_455 S
C889   H1131   1.087   1_455 S
C890   C987    1.318   .     S
C890   H1044   1.086   .     S
C891   C902    1.398   .     A
C891   C893    1.376   .     A
C891   H957    1.081   .     S
C892   C903    1.402   .     A
C892   C895    1.380   .     A
C892   H963    1.082   .     S
C893   C896    1.386   .     A
C893   H964    1.073   .     S
C894   O972    1.290   .     A
C894   C897    1.430   .     S
C894   O974    1.290   .     A
C895   C897    1.391   .     A
C895   H965    1.084   .     S
C896   C898    1.399   .     A
C897   C899    1.397   .     A
C898   H966    1.085   .     S
C898   C900    1.392   .     A
C899   H967    1.085   .     S
C899   C901    1.393   .     A
C900   C902    1.407   .     A
C900   C904    1.475   .     S
C901   C903    1.411   .     A
C901   C911    1.484   .     S
C903   C608    1.446   1_565 S
C904   C910    1.402   .     A
C904   C906    1.404   .     A
C905   C927    1.411   .     A
C905   H968    1.081   .     S
C906   H941    1.083   .     S
C906   C1005   1.397   .     S
C907   H942    1.080   .     S
C907   C908    1.397   .     A
C907   C1102   1.397   1_455 S
C908   H943    1.082   .     S
C908   C1105   1.397   1_455 S
C909   C910    1.398   .     A
C909   C1006   1.397   .     S
C910   H945    1.083   .     S
C911   C912    1.406   .     A
C911   C623    1.406   1_565 S
C912   H947    1.082   .     S
C912   C1011   1.396   .     S
C913   H948    1.082   .     S
C913   C1108   1.396   1_455 S
C913   C620    1.397   1_565 S
C914   H949    1.082   .     S
C914   C1111   1.397   1_455 S
C915   C917    1.398   .     A
C915   H950    1.082   .     S
C915   C1012   1.397   .     S
C916   H936    1.081   .     S
C916   C931    1.416   .     A
C917   H951    1.081   .     S
C918   C923    1.402   .     A
C918   C932    1.468   .     S
C918   C919    1.403   .     A
C919   H952    1.081   .     S
C919   C920    1.398   .     A
C920   C921    1.397   .     A
C920   H1051   1.083   .     S
C921   H954    1.082   .     S
C921   C922    1.397   .     A
C922   H955    1.078   .     S
C922   C923    1.397   .     A
C923   H956    1.083   .     S
C924   C933    1.476   .     S
C924   C930    1.408   .     A
C924   C925    1.402   .     A
C925   C926    1.402   .     A
C925   H958    1.081   .     S
C926   H959    1.080   .     S
C926   C1124   1.394   1_455 S
C927   H937    1.082   .     S
C927   N969    1.363   .     A
C928   C929    1.393   .     A
C928   H960    1.083   .     S
C928   C1024   1.394   .     S
C929   H961    1.081   .     S
C929   C1028   1.398   .     S
C930   H962    1.083   .     S
C930   C1125   1.398   1_455 S
C931   N970    1.368   .     A
C931   H938    1.082   .     S
C932   C934    1.408   .     A
C932   N969    1.378   .     A
C933   N970    1.383   .     A
C934   H939    1.083   .     S
H935   C987    1.087   .     S
H944   C615    1.082   1_565 S
H946   C1086   1.086   1_455 S
H953   C1116   1.083   1_455 S
N969   Zn980   2.019   .     S
N970   Zn979   2.019   .     S
O971   Zn979   1.992   .     S
O972   Zn980   1.992   .     S
O973   Zn980   1.963   .     S
O974   Zn979   1.963   .     S
O975   Zn979   1.978   .     S
O976   Zn980   1.978   .     S
O977   Zn980   1.969   .     S
O978   Zn979   1.969   .     S
C981   O1071   1.287   .     A
C981   O1069   1.293   .     A
C981   C994    1.434   .     S
C982   C984    1.393   .     A
C982   H1038   1.083   .     S
C982   C1031   1.407   .     A
C983   C1003   1.417   .     A
C983   C1032   1.398   .     A
C984   C1014   1.414   .     A
C984   C395    1.519   1_556 S
C985   O1075   1.278   .     A
C985   C987    1.396   .     S
C985   O1073   1.284   .     A
C986   O1074   1.282   .     A
C986   C988    1.397   .     S
C986   O1076   1.280   .     A
C988   C1085   1.318   .     S
C988   H1142   1.086   .     S
C989   C1000   1.398   .     A
C989   C991    1.376   .     A
C989   H1055   1.081   .     S
C990   C1001   1.402   .     A
C990   C993    1.380   .     A
C990   H1061   1.082   .     S
C991   C994    1.386   .     A
C991   H1062   1.073   .     S
C992   O1070   1.290   .     A
C992   C995    1.430   .     S
C992   O1072   1.290   .     A
C993   C995    1.391   .     A
C993   H1063   1.084   .     S
C994   C996    1.399   .     A
C995   C997    1.397   .     A
C996   H1064   1.085   .     S
C996   C998    1.392   .     A
C997   H1065   1.085   .     S
C997   C999    1.393   .     A
C998   C1000   1.407   .     A
C998   C1002   1.475   .     S
C999   C1001   1.411   .     A
C999   C1009   1.484   .     S
C1001  C706    1.446   1_565 S
C1002  C1008   1.402   .     A
C1002  C1004   1.404   .     A
C1003  C1025   1.411   .     A
C1003  H1066   1.081   .     S
C1004  H1039   1.083   .     S
C1004  C1103   1.397   .     S
C1005  H1040   1.080   .     S
C1005  C1006   1.397   .     A
C1006  H1041   1.082   .     S
C1007  C1008   1.398   .     A
C1007  C1104   1.397   .     S
C1008  H1043   1.083   .     S
C1009  C1010   1.406   .     A
C1009  C721    1.406   1_565 S
C1010  H1045   1.082   .     S
C1010  C1109   1.396   .     S
C1011  H1046   1.082   .     S
C1011  C718    1.397   1_565 S
C1012  H1047   1.082   .     S
C1013  C1015   1.398   .     A
C1013  H1048   1.082   .     S
C1013  C1110   1.397   .     S
C1014  H1034   1.081   .     S
C1014  C1029   1.416   .     A
C1015  H1049   1.081   .     S
C1016  C1021   1.402   .     A
C1016  C1030   1.468   .     S
C1016  C1017   1.403   .     A
C1017  H1050   1.081   .     S
C1017  C1018   1.398   .     A
C1018  C1019   1.397   .     A
C1018  H1149   1.083   .     S
C1019  H1052   1.082   .     S
C1019  C1020   1.397   .     A
C1020  H1053   1.078   .     S
C1020  C1021   1.397   .     A
C1021  H1054   1.083   .     S
C1022  C1031   1.476   .     S
C1022  C1028   1.408   .     A
C1022  C1023   1.402   .     A
C1023  C1024   1.402   .     A
C1023  H1056   1.081   .     S
C1024  H1057   1.080   .     S
C1025  H1035   1.082   .     S
C1025  N1067   1.363   .     A
C1026  C1027   1.393   .     A
C1026  H1058   1.083   .     S
C1026  C1122   1.394   .     S
C1027  H1059   1.081   .     S
C1027  C1126   1.398   .     S
C1028  H1060   1.083   .     S
C1029  N1068   1.368   .     A
C1029  H1036   1.082   .     S
C1030  C1032   1.408   .     A
C1030  N1067   1.378   .     A
C1031  N1068   1.383   .     A
C1032  H1037   1.083   .     S
H1033  C1085   1.087   .     S
H1042  C713    1.082   1_565 S
N1067  Zn1078  2.019   .     S
N1068  Zn1077  2.019   .     S
O1069  Zn1077  1.992   .     S
O1070  Zn1078  1.992   .     S
O1071  Zn1078  1.963   .     S
O1072  Zn1077  1.963   .     S
O1073  Zn1077  1.978   .     S
O1074  Zn1078  1.978   .     S
O1075  Zn1078  1.969   .     S
O1076  Zn1077  1.969   .     S
C1079  O1169   1.287   .     A
C1079  O1167   1.293   .     A
C1079  C1092   1.434   .     S
C1080  C1082   1.393   .     A
C1080  H1136   1.083   .     S
C1080  C1129   1.407   .     A
C1081  C1101   1.417   .     A
C1081  C1130   1.398   .     A
C1082  C1112   1.414   .     A
C1082  C493    1.519   1_556 S
C1083  O1173   1.278   .     A
C1083  C1085   1.396   .     S
C1083  O1171   1.284   .     A
C1084  O1172   1.282   .     A
C1084  C1086   1.397   .     S
C1084  O1174   1.280   .     A
C1086  C889    1.318   1_655 S
C1086  H946    1.086   1_655 S
C1087  C1098   1.398   .     A
C1087  C1089   1.376   .     A
C1087  H1153   1.081   .     S
C1088  C1099   1.402   .     A
C1088  C1091   1.380   .     A
C1088  H1159   1.082   .     S
C1089  C1092   1.386   .     A
C1089  H1160   1.073   .     S
C1090  O1168   1.290   .     A
C1090  C1093   1.430   .     S
C1090  O1170   1.290   .     A
C1091  C1093   1.391   .     A
C1091  H1161   1.084   .     S
C1092  C1094   1.399   .     A
C1093  C1095   1.397   .     A
C1094  H1162   1.085   .     S
C1094  C1096   1.392   .     A
C1095  H1163   1.085   .     S
C1095  C1097   1.393   .     A
C1096  C1098   1.407   .     A
C1096  C1100   1.475   .     S
C1097  C1099   1.411   .     A
C1097  C1107   1.484   .     S
C1099  C804    1.446   1_565 S
C1100  C1106   1.402   .     A
C1100  C1102   1.404   .     A
C1101  C1123   1.411   .     A
C1101  H1164   1.081   .     S
C1102  H1137   1.083   .     S
C1102  C907    1.397   1_655 S
C1103  H1138   1.080   .     S
C1103  C1104   1.397   .     A
C1104  H1139   1.082   .     S
C1105  C1106   1.398   .     A
C1105  C908    1.397   1_655 S
C1106  H1141   1.083   .     S
C1107  C1108   1.406   .     A
C1107  C819    1.406   1_565 S
C1108  H1143   1.082   .     S
C1108  C913    1.396   1_655 S
C1109  H1144   1.082   .     S
C1109  C816    1.397   1_565 S
C1110  H1145   1.082   .     S
C1111  C1113   1.398   .     A
C1111  H1146   1.082   .     S
C1111  C914    1.397   1_655 S
C1112  H1132   1.081   .     S
C1112  C1127   1.416   .     A
C1113  H1147   1.081   .     S
C1114  C1119   1.402   .     A
C1114  C1128   1.468   .     S
C1114  C1115   1.403   .     A
C1115  H1148   1.081   .     S
C1115  C1116   1.398   .     A
C1116  C1117   1.397   .     A
C1116  H953    1.083   1_655 S
C1117  H1150   1.082   .     S
C1117  C1118   1.397   .     A
C1118  H1151   1.078   .     S
C1118  C1119   1.397   .     A
C1119  H1152   1.083   .     S
C1120  C1129   1.476   .     S
C1120  C1126   1.408   .     A
C1120  C1121   1.402   .     A
C1121  C1122   1.402   .     A
C1121  H1154   1.081   .     S
C1122  H1155   1.080   .     S
C1123  H1133   1.082   .     S
C1123  N1165   1.363   .     A
C1124  C1125   1.393   .     A
C1124  H1156   1.083   .     S
C1124  C926    1.394   1_655 S
C1125  H1157   1.081   .     S
C1125  C930    1.398   1_655 S
C1126  H1158   1.083   .     S
C1127  N1166   1.368   .     A
C1127  H1134   1.082   .     S
C1128  C1130   1.408   .     A
C1128  N1165   1.378   .     A
C1129  N1166   1.383   .     A
C1130  H1135   1.083   .     S
H1131  C889    1.087   1_655 S
H1140  C811    1.082   1_565 S
N1165  Zn1176  2.019   .     S
N1166  Zn1175  2.019   .     S
O1167  Zn1175  1.992   .     S
O1168  Zn1176  1.992   .     S
O1169  Zn1176  1.963   .     S
O1170  Zn1175  1.963   .     S
O1171  Zn1175  1.978   .     S
O1172  Zn1176  1.978   .     S
O1173  Zn1176  1.969   .     S
O1174  Zn1175  1.969   .     S
