data_str_m3_o10_o16_pcu_sym.76
_audit_creation_date              2020-01-03
_audit_creation_method            'Materials Studio'
_symmetry_space_group_name_H-M    'P1'
_symmetry_Int_Tables_number       1
_symmetry_cell_setting            triclinic
loop_
_symmetry_equiv_pos_as_xyz
  x,y,z
_cell_length_a                    23.5115
_cell_length_b                    25.7736
_cell_length_c                    24.9132
_cell_angle_alpha                 92.6234
_cell_angle_beta                  103.3878
_cell_angle_gamma                 93.6349
loop_
_atom_site_label
_atom_site_type_symbol
_atom_site_fract_x
_atom_site_fract_y
_atom_site_fract_z
_atom_site_U_iso_or_equiv
_atom_site_adp_type
_atom_site_occupancy
C1     C     0.01364   0.26460   0.24636   0.00000  Uiso   1.00
C2     C     0.06447   0.20688   0.40806   0.00000  Uiso   1.00
C3     C     0.02020   0.31909   0.24542   0.00000  Uiso   1.00
C4     C     0.03856   0.18111   0.35251   0.00000  Uiso   1.00
C5     C     0.30668   0.01415   0.24032   0.00000  Uiso   1.00
C6     C     0.31778   0.06853   0.24889   0.00000  Uiso   1.00
C7     C     0.29625   0.16299   0.14548   0.00000  Uiso   1.00
C8     C     0.28840   0.15271   0.49426   0.00000  Uiso   1.00
C9     C     0.27530   0.16486   0.08648   0.00000  Uiso   1.00
C10    C     0.02989   0.23187   0.43823   0.00000  Uiso   1.00
C11    C     0.05339   0.24946   0.49308   0.00000  Uiso   1.00
C12    C     0.14617   0.21340   0.48913   0.00000  Uiso   1.00
C13    C     0.11041   0.23839   0.02024   0.00000  Uiso   1.00
C14    C     0.12989   0.08997   0.16073   0.00000  Uiso   1.00
C15    C     0.10239   0.24540   0.11578   0.00000  Uiso   1.00
C16    C     0.12518   0.20789   0.43138   0.00000  Uiso   1.00
C17    C     0.20156   0.19339   0.01097   0.00000  Uiso   1.00
C18    C     0.23623   0.17630   0.47458   0.00000  Uiso   1.00
C19    C     0.21879   0.18394   0.41885   0.00000  Uiso   1.00
C20    C     0.16587   0.20380   0.39861   0.00000  Uiso   1.00
C21    C     0.22122   0.18508   0.06660   0.00000  Uiso   1.00
C22    C     0.30871   0.14815   0.05039   0.00000  Uiso   1.00
Cl23   Cl    0.23169   0.32375   0.21799   0.00000  Uiso   1.00
H24    H     0.01670   0.13127   0.06544   0.00000  Uiso   1.00
H25    H     0.15474   0.07632   0.24359   0.00000  Uiso   1.00
H26    H     0.14695   0.05371   0.14711   0.00000  Uiso   1.00
H27    H     0.13789   0.12086   0.13319   0.00000  Uiso   1.00
H28    H     0.08210   0.08256   0.15704   0.00000  Uiso   1.00
H29    H     0.14397   0.30018   0.07623   0.00000  Uiso   1.00
H30    H     0.12915   0.25785   0.15770   0.00000  Uiso   1.00
H31    H     0.09385   0.20247   0.11353   0.00000  Uiso   1.00
H32    H     0.06026   0.26406   0.10960   0.00000  Uiso   1.00
H33    H     0.17674   0.21637   0.27769   0.00000  Uiso   1.00
H34    H     0.24537   0.17389   0.39069   0.00000  Uiso   1.00
H35    H     0.31398   0.13872   0.46632   0.00000  Uiso   1.00
H36    H     0.19433   0.19257   0.09503   0.00000  Uiso   1.00
H37    H     0.31874   0.23937   0.41900   0.00000  Uiso   1.00
H38    H     0.02653   0.27096   0.01472   0.00000  Uiso   1.00
H39    H     0.15655   0.21553   0.35702   0.00000  Uiso   1.00
H40    H     0.06506   0.00306   0.25430   0.00000  Uiso   1.00
N41    N     0.14493   0.15223   0.23543   0.00000  Uiso   1.00
N42    N     0.18840   0.18110   0.26458   0.00000  Uiso   1.00
N43    N     0.15976   0.10505   0.21722   0.00000  Uiso   1.00
N44    N     0.13409   0.26052   0.07487   0.00000  Uiso   1.00
O45    O     0.29769   0.24629   0.25358   0.00000  Uiso   1.00
O46    O     0.05742   0.23704   0.24424   0.00000  Uiso   1.00
O47    O     0.31490   0.17358   0.33380   0.00000  Uiso   1.00
O48    O     0.07463   0.16433   0.32446   0.00000  Uiso   1.00
O49    O     0.27592   0.09629   0.25577   0.00000  Uiso   1.00
O50    O     0.03565   0.08704   0.24643   0.00000  Uiso   1.00
O51    O     0.25870   0.16901   0.17554   0.00000  Uiso   1.00
O52    O     0.01843   0.15976   0.16620   0.00000  Uiso   1.00
Zn53   Zn    0.27119   0.17284   0.25624   0.00000  Uiso   1.00
Zn54   Zn    0.06214   0.16049   0.24377   0.00000  Uiso   1.00
C55    C     0.34697   0.26460   0.24636   0.00000  Uiso   1.00
C56    C     0.39780   0.20688   0.40806   0.00000  Uiso   1.00
C57    C     0.35353   0.31909   0.24542   0.00000  Uiso   1.00
C58    C     0.37189   0.18111   0.35251   0.00000  Uiso   1.00
C59    C     0.64001   0.01415   0.24032   0.00000  Uiso   1.00
C60    C     0.65111   0.06853   0.24889   0.00000  Uiso   1.00
C61    C     0.62958   0.16299   0.14548   0.00000  Uiso   1.00
C62    C     0.62173   0.15271   0.49426   0.00000  Uiso   1.00
C63    C     0.60863   0.16486   0.08648   0.00000  Uiso   1.00
C64    C     0.36322   0.23187   0.43823   0.00000  Uiso   1.00
C65    C     0.38673   0.24946   0.49308   0.00000  Uiso   1.00
C66    C     0.47950   0.21340   0.48913   0.00000  Uiso   1.00
C67    C     0.44375   0.23839   0.02024   0.00000  Uiso   1.00
C68    C     0.46322   0.08997   0.16073   0.00000  Uiso   1.00
C69    C     0.43572   0.24540   0.11578   0.00000  Uiso   1.00
C70    C     0.45851   0.20789   0.43138   0.00000  Uiso   1.00
C71    C     0.53489   0.19339   0.01097   0.00000  Uiso   1.00
C72    C     0.56956   0.17630   0.47458   0.00000  Uiso   1.00
C73    C     0.55212   0.18394   0.41885   0.00000  Uiso   1.00
C74    C     0.49920   0.20380   0.39861   0.00000  Uiso   1.00
C75    C     0.55455   0.18508   0.06660   0.00000  Uiso   1.00
C76    C     0.64205   0.14815   0.05039   0.00000  Uiso   1.00
Cl77   Cl    0.56503   0.32375   0.21799   0.00000  Uiso   1.00
H78    H     0.35003   0.13127   0.06544   0.00000  Uiso   1.00
H79    H     0.48808   0.07632   0.24359   0.00000  Uiso   1.00
H80    H     0.48028   0.05371   0.14711   0.00000  Uiso   1.00
H81    H     0.47123   0.12086   0.13319   0.00000  Uiso   1.00
H82    H     0.41544   0.08256   0.15704   0.00000  Uiso   1.00
H83    H     0.47730   0.30018   0.07623   0.00000  Uiso   1.00
H84    H     0.46248   0.25785   0.15770   0.00000  Uiso   1.00
H85    H     0.42719   0.20247   0.11353   0.00000  Uiso   1.00
H86    H     0.39359   0.26406   0.10960   0.00000  Uiso   1.00
H87    H     0.51008   0.21637   0.27769   0.00000  Uiso   1.00
H88    H     0.57870   0.17389   0.39069   0.00000  Uiso   1.00
H89    H     0.64731   0.13872   0.46632   0.00000  Uiso   1.00
H90    H     0.52766   0.19257   0.09503   0.00000  Uiso   1.00
H91    H     0.65207   0.23937   0.41900   0.00000  Uiso   1.00
H92    H     0.35987   0.27096   0.01472   0.00000  Uiso   1.00
H93    H     0.48988   0.21553   0.35702   0.00000  Uiso   1.00
H94    H     0.39839   0.00306   0.25430   0.00000  Uiso   1.00
N95    N     0.47827   0.15223   0.23543   0.00000  Uiso   1.00
N96    N     0.52173   0.18110   0.26458   0.00000  Uiso   1.00
N97    N     0.49309   0.10505   0.21722   0.00000  Uiso   1.00
N98    N     0.46742   0.26052   0.07487   0.00000  Uiso   1.00
O99    O     0.63102   0.24629   0.25358   0.00000  Uiso   1.00
O100   O     0.39075   0.23704   0.24424   0.00000  Uiso   1.00
O101   O     0.64823   0.17358   0.33380   0.00000  Uiso   1.00
O102   O     0.40796   0.16433   0.32446   0.00000  Uiso   1.00
O103   O     0.60925   0.09629   0.25577   0.00000  Uiso   1.00
O104   O     0.36898   0.08704   0.24643   0.00000  Uiso   1.00
O105   O     0.59204   0.16901   0.17554   0.00000  Uiso   1.00
O106   O     0.35177   0.15976   0.16620   0.00000  Uiso   1.00
Zn107  Zn    0.60453   0.17284   0.25624   0.00000  Uiso   1.00
Zn108  Zn    0.39547   0.16049   0.24377   0.00000  Uiso   1.00
C109   C     0.68030   0.26460   0.24636   0.00000  Uiso   1.00
C110   C     0.73114   0.20688   0.40806   0.00000  Uiso   1.00
C111   C     0.68686   0.31909   0.24542   0.00000  Uiso   1.00
C112   C     0.70523   0.18111   0.35251   0.00000  Uiso   1.00
C113   C     0.97334   0.01415   0.24032   0.00000  Uiso   1.00
C114   C     0.98444   0.06853   0.24889   0.00000  Uiso   1.00
C115   C     0.96291   0.16299   0.14548   0.00000  Uiso   1.00
C116   C     0.95507   0.15271   0.49426   0.00000  Uiso   1.00
C117   C     0.94196   0.16486   0.08648   0.00000  Uiso   1.00
C118   C     0.69656   0.23187   0.43823   0.00000  Uiso   1.00
C119   C     0.72006   0.24946   0.49308   0.00000  Uiso   1.00
C120   C     0.81284   0.21340   0.48913   0.00000  Uiso   1.00
C121   C     0.77708   0.23839   0.02024   0.00000  Uiso   1.00
C122   C     0.79656   0.08997   0.16073   0.00000  Uiso   1.00
C123   C     0.76906   0.24540   0.11578   0.00000  Uiso   1.00
C124   C     0.79185   0.20789   0.43138   0.00000  Uiso   1.00
C125   C     0.86823   0.19339   0.01097   0.00000  Uiso   1.00
C126   C     0.90289   0.17630   0.47458   0.00000  Uiso   1.00
C127   C     0.88545   0.18394   0.41885   0.00000  Uiso   1.00
C128   C     0.83253   0.20380   0.39861   0.00000  Uiso   1.00
C129   C     0.88788   0.18508   0.06660   0.00000  Uiso   1.00
C130   C     0.97538   0.14815   0.05039   0.00000  Uiso   1.00
Cl131  Cl    0.89836   0.32375   0.21799   0.00000  Uiso   1.00
H132   H     0.68336   0.13127   0.06544   0.00000  Uiso   1.00
H133   H     0.82141   0.07632   0.24359   0.00000  Uiso   1.00
H134   H     0.81361   0.05371   0.14711   0.00000  Uiso   1.00
H135   H     0.80456   0.12086   0.13319   0.00000  Uiso   1.00
H136   H     0.74877   0.08256   0.15704   0.00000  Uiso   1.00
H137   H     0.81064   0.30018   0.07623   0.00000  Uiso   1.00
H138   H     0.79581   0.25785   0.15770   0.00000  Uiso   1.00
H139   H     0.76052   0.20247   0.11353   0.00000  Uiso   1.00
H140   H     0.72692   0.26406   0.10960   0.00000  Uiso   1.00
H141   H     0.84341   0.21637   0.27769   0.00000  Uiso   1.00
H142   H     0.91203   0.17389   0.39069   0.00000  Uiso   1.00
H143   H     0.98065   0.13872   0.46632   0.00000  Uiso   1.00
H144   H     0.86100   0.19257   0.09503   0.00000  Uiso   1.00
H145   H     0.98541   0.23937   0.41900   0.00000  Uiso   1.00
H146   H     0.69320   0.27096   0.01472   0.00000  Uiso   1.00
H147   H     0.82322   0.21553   0.35702   0.00000  Uiso   1.00
H148   H     0.73173   0.00306   0.25430   0.00000  Uiso   1.00
N149   N     0.81160   0.15223   0.23543   0.00000  Uiso   1.00
N150   N     0.85507   0.18110   0.26458   0.00000  Uiso   1.00
N151   N     0.82643   0.10505   0.21722   0.00000  Uiso   1.00
N152   N     0.80076   0.26052   0.07487   0.00000  Uiso   1.00
O153   O     0.96435   0.24629   0.25358   0.00000  Uiso   1.00
O154   O     0.72408   0.23704   0.24424   0.00000  Uiso   1.00
O155   O     0.98157   0.17358   0.33380   0.00000  Uiso   1.00
O156   O     0.74130   0.16433   0.32446   0.00000  Uiso   1.00
O157   O     0.94258   0.09629   0.25577   0.00000  Uiso   1.00
O158   O     0.70231   0.08704   0.24643   0.00000  Uiso   1.00
O159   O     0.92537   0.16901   0.17554   0.00000  Uiso   1.00
O160   O     0.68510   0.15976   0.16620   0.00000  Uiso   1.00
Zn161  Zn    0.93786   0.17284   0.25624   0.00000  Uiso   1.00
Zn162  Zn    0.72881   0.16049   0.24377   0.00000  Uiso   1.00
C163   C     0.01364   0.59793   0.24636   0.00000  Uiso   1.00
C164   C     0.06447   0.54021   0.40806   0.00000  Uiso   1.00
C165   C     0.02020   0.65243   0.24542   0.00000  Uiso   1.00
C166   C     0.03856   0.51444   0.35251   0.00000  Uiso   1.00
C167   C     0.30668   0.34749   0.24032   0.00000  Uiso   1.00
C168   C     0.31778   0.40186   0.24889   0.00000  Uiso   1.00
C169   C     0.29625   0.49632   0.14548   0.00000  Uiso   1.00
C170   C     0.28840   0.48604   0.49426   0.00000  Uiso   1.00
C171   C     0.27530   0.49820   0.08648   0.00000  Uiso   1.00
C172   C     0.02989   0.56521   0.43823   0.00000  Uiso   1.00
C173   C     0.05339   0.58280   0.49308   0.00000  Uiso   1.00
C174   C     0.14617   0.54673   0.48913   0.00000  Uiso   1.00
C175   C     0.11041   0.57173   0.02024   0.00000  Uiso   1.00
C176   C     0.12989   0.42330   0.16073   0.00000  Uiso   1.00
C177   C     0.10239   0.57873   0.11578   0.00000  Uiso   1.00
C178   C     0.12518   0.54122   0.43138   0.00000  Uiso   1.00
C179   C     0.20156   0.52673   0.01097   0.00000  Uiso   1.00
C180   C     0.23623   0.50964   0.47458   0.00000  Uiso   1.00
C181   C     0.21879   0.51728   0.41885   0.00000  Uiso   1.00
C182   C     0.16587   0.53713   0.39861   0.00000  Uiso   1.00
C183   C     0.22122   0.51841   0.06660   0.00000  Uiso   1.00
C184   C     0.30871   0.48148   0.05039   0.00000  Uiso   1.00
Cl185  Cl    0.23169   0.65709   0.21799   0.00000  Uiso   1.00
H186   H     0.01670   0.46461   0.06544   0.00000  Uiso   1.00
H187   H     0.15474   0.40966   0.24359   0.00000  Uiso   1.00
H188   H     0.14695   0.38704   0.14711   0.00000  Uiso   1.00
H189   H     0.13789   0.45419   0.13319   0.00000  Uiso   1.00
H190   H     0.08210   0.41589   0.15704   0.00000  Uiso   1.00
H191   H     0.14397   0.63352   0.07623   0.00000  Uiso   1.00
H192   H     0.12915   0.59119   0.15770   0.00000  Uiso   1.00
H193   H     0.09385   0.53580   0.11353   0.00000  Uiso   1.00
H194   H     0.06026   0.59740   0.10960   0.00000  Uiso   1.00
H195   H     0.17674   0.54970   0.27769   0.00000  Uiso   1.00
H196   H     0.24537   0.50722   0.39069   0.00000  Uiso   1.00
H197   H     0.31398   0.47205   0.46632   0.00000  Uiso   1.00
H198   H     0.19433   0.52590   0.09503   0.00000  Uiso   1.00
H199   H     0.31874   0.57270   0.41900   0.00000  Uiso   1.00
H200   H     0.02653   0.60429   0.01472   0.00000  Uiso   1.00
H201   H     0.15655   0.54886   0.35702   0.00000  Uiso   1.00
H202   H     0.06506   0.33640   0.25430   0.00000  Uiso   1.00
N203   N     0.14493   0.48556   0.23543   0.00000  Uiso   1.00
N204   N     0.18840   0.51444   0.26458   0.00000  Uiso   1.00
N205   N     0.15976   0.43838   0.21722   0.00000  Uiso   1.00
N206   N     0.13409   0.59385   0.07487   0.00000  Uiso   1.00
O207   O     0.29769   0.57963   0.25358   0.00000  Uiso   1.00
O208   O     0.05742   0.57038   0.24424   0.00000  Uiso   1.00
O209   O     0.31490   0.50691   0.33380   0.00000  Uiso   1.00
O210   O     0.07463   0.49766   0.32446   0.00000  Uiso   1.00
O211   O     0.27592   0.42962   0.25577   0.00000  Uiso   1.00
O212   O     0.03565   0.42037   0.24643   0.00000  Uiso   1.00
O213   O     0.25870   0.50234   0.17554   0.00000  Uiso   1.00
O214   O     0.01843   0.49309   0.16620   0.00000  Uiso   1.00
Zn215  Zn    0.27119   0.50618   0.25624   0.00000  Uiso   1.00
Zn216  Zn    0.06214   0.49382   0.24377   0.00000  Uiso   1.00
C217   C     0.34697   0.59793   0.24636   0.00000  Uiso   1.00
C218   C     0.39780   0.54021   0.40806   0.00000  Uiso   1.00
C219   C     0.35353   0.65243   0.24542   0.00000  Uiso   1.00
C220   C     0.37189   0.51444   0.35251   0.00000  Uiso   1.00
C221   C     0.64001   0.34749   0.24032   0.00000  Uiso   1.00
C222   C     0.65111   0.40186   0.24889   0.00000  Uiso   1.00
C223   C     0.62958   0.49632   0.14548   0.00000  Uiso   1.00
C224   C     0.62173   0.48604   0.49426   0.00000  Uiso   1.00
C225   C     0.60863   0.49820   0.08648   0.00000  Uiso   1.00
C226   C     0.36322   0.56521   0.43823   0.00000  Uiso   1.00
C227   C     0.38673   0.58280   0.49308   0.00000  Uiso   1.00
C228   C     0.47950   0.54673   0.48913   0.00000  Uiso   1.00
C229   C     0.44375   0.57173   0.02024   0.00000  Uiso   1.00
C230   C     0.46322   0.42330   0.16073   0.00000  Uiso   1.00
C231   C     0.43572   0.57873   0.11578   0.00000  Uiso   1.00
C232   C     0.45851   0.54122   0.43138   0.00000  Uiso   1.00
C233   C     0.53489   0.52673   0.01097   0.00000  Uiso   1.00
C234   C     0.56956   0.50964   0.47458   0.00000  Uiso   1.00
C235   C     0.55212   0.51728   0.41885   0.00000  Uiso   1.00
C236   C     0.49920   0.53713   0.39861   0.00000  Uiso   1.00
C237   C     0.55455   0.51841   0.06660   0.00000  Uiso   1.00
C238   C     0.64205   0.48148   0.05039   0.00000  Uiso   1.00
Cl239  Cl    0.56503   0.65709   0.21799   0.00000  Uiso   1.00
H240   H     0.35003   0.46461   0.06544   0.00000  Uiso   1.00
H241   H     0.48808   0.40966   0.24359   0.00000  Uiso   1.00
H242   H     0.48028   0.38704   0.14711   0.00000  Uiso   1.00
H243   H     0.47123   0.45419   0.13319   0.00000  Uiso   1.00
H244   H     0.41544   0.41589   0.15704   0.00000  Uiso   1.00
H245   H     0.47730   0.63352   0.07623   0.00000  Uiso   1.00
H246   H     0.46248   0.59119   0.15770   0.00000  Uiso   1.00
H247   H     0.42719   0.53580   0.11353   0.00000  Uiso   1.00
H248   H     0.39359   0.59740   0.10960   0.00000  Uiso   1.00
H249   H     0.51008   0.54970   0.27769   0.00000  Uiso   1.00
H250   H     0.57870   0.50722   0.39069   0.00000  Uiso   1.00
H251   H     0.64731   0.47205   0.46632   0.00000  Uiso   1.00
H252   H     0.52766   0.52590   0.09503   0.00000  Uiso   1.00
H253   H     0.65207   0.57270   0.41900   0.00000  Uiso   1.00
H254   H     0.35987   0.60429   0.01472   0.00000  Uiso   1.00
H255   H     0.48988   0.54886   0.35702   0.00000  Uiso   1.00
H256   H     0.39839   0.33640   0.25430   0.00000  Uiso   1.00
N257   N     0.47827   0.48556   0.23543   0.00000  Uiso   1.00
N258   N     0.52173   0.51444   0.26458   0.00000  Uiso   1.00
N259   N     0.49309   0.43838   0.21722   0.00000  Uiso   1.00
N260   N     0.46742   0.59385   0.07487   0.00000  Uiso   1.00
O261   O     0.63102   0.57963   0.25358   0.00000  Uiso   1.00
O262   O     0.39075   0.57038   0.24424   0.00000  Uiso   1.00
O263   O     0.64823   0.50691   0.33380   0.00000  Uiso   1.00
O264   O     0.40796   0.49766   0.32446   0.00000  Uiso   1.00
O265   O     0.60925   0.42962   0.25577   0.00000  Uiso   1.00
O266   O     0.36898   0.42037   0.24643   0.00000  Uiso   1.00
O267   O     0.59204   0.50234   0.17554   0.00000  Uiso   1.00
O268   O     0.35177   0.49309   0.16620   0.00000  Uiso   1.00
Zn269  Zn    0.60453   0.50618   0.25624   0.00000  Uiso   1.00
Zn270  Zn    0.39547   0.49382   0.24377   0.00000  Uiso   1.00
C271   C     0.68030   0.59793   0.24636   0.00000  Uiso   1.00
C272   C     0.73114   0.54021   0.40806   0.00000  Uiso   1.00
C273   C     0.68686   0.65243   0.24542   0.00000  Uiso   1.00
C274   C     0.70523   0.51444   0.35251   0.00000  Uiso   1.00
C275   C     0.97334   0.34749   0.24032   0.00000  Uiso   1.00
C276   C     0.98444   0.40186   0.24889   0.00000  Uiso   1.00
C277   C     0.96291   0.49632   0.14548   0.00000  Uiso   1.00
C278   C     0.95507   0.48604   0.49426   0.00000  Uiso   1.00
C279   C     0.94196   0.49820   0.08648   0.00000  Uiso   1.00
C280   C     0.69656   0.56521   0.43823   0.00000  Uiso   1.00
C281   C     0.72006   0.58280   0.49308   0.00000  Uiso   1.00
C282   C     0.81284   0.54673   0.48913   0.00000  Uiso   1.00
C283   C     0.77708   0.57173   0.02024   0.00000  Uiso   1.00
C284   C     0.79656   0.42330   0.16073   0.00000  Uiso   1.00
C285   C     0.76906   0.57873   0.11578   0.00000  Uiso   1.00
C286   C     0.79185   0.54122   0.43138   0.00000  Uiso   1.00
C287   C     0.86823   0.52673   0.01097   0.00000  Uiso   1.00
C288   C     0.90289   0.50964   0.47458   0.00000  Uiso   1.00
C289   C     0.88545   0.51728   0.41885   0.00000  Uiso   1.00
C290   C     0.83253   0.53713   0.39861   0.00000  Uiso   1.00
C291   C     0.88788   0.51841   0.06660   0.00000  Uiso   1.00
C292   C     0.97538   0.48148   0.05039   0.00000  Uiso   1.00
Cl293  Cl    0.89836   0.65709   0.21799   0.00000  Uiso   1.00
H294   H     0.68336   0.46461   0.06544   0.00000  Uiso   1.00
H295   H     0.82141   0.40966   0.24359   0.00000  Uiso   1.00
H296   H     0.81361   0.38704   0.14711   0.00000  Uiso   1.00
H297   H     0.80456   0.45419   0.13319   0.00000  Uiso   1.00
H298   H     0.74877   0.41589   0.15704   0.00000  Uiso   1.00
H299   H     0.81064   0.63352   0.07623   0.00000  Uiso   1.00
H300   H     0.79581   0.59119   0.15770   0.00000  Uiso   1.00
H301   H     0.76052   0.53580   0.11353   0.00000  Uiso   1.00
H302   H     0.72692   0.59740   0.10960   0.00000  Uiso   1.00
H303   H     0.84341   0.54970   0.27769   0.00000  Uiso   1.00
H304   H     0.91203   0.50722   0.39069   0.00000  Uiso   1.00
H305   H     0.98065   0.47205   0.46632   0.00000  Uiso   1.00
H306   H     0.86100   0.52590   0.09503   0.00000  Uiso   1.00
H307   H     0.98541   0.57270   0.41900   0.00000  Uiso   1.00
H308   H     0.69320   0.60429   0.01472   0.00000  Uiso   1.00
H309   H     0.82322   0.54886   0.35702   0.00000  Uiso   1.00
H310   H     0.73173   0.33640   0.25430   0.00000  Uiso   1.00
N311   N     0.81160   0.48556   0.23543   0.00000  Uiso   1.00
N312   N     0.85507   0.51444   0.26458   0.00000  Uiso   1.00
N313   N     0.82643   0.43838   0.21722   0.00000  Uiso   1.00
N314   N     0.80076   0.59385   0.07487   0.00000  Uiso   1.00
O315   O     0.96435   0.57963   0.25358   0.00000  Uiso   1.00
O316   O     0.72408   0.57038   0.24424   0.00000  Uiso   1.00
O317   O     0.98157   0.50691   0.33380   0.00000  Uiso   1.00
O318   O     0.74130   0.49766   0.32446   0.00000  Uiso   1.00
O319   O     0.94258   0.42962   0.25577   0.00000  Uiso   1.00
O320   O     0.70231   0.42037   0.24643   0.00000  Uiso   1.00
O321   O     0.92537   0.50234   0.17554   0.00000  Uiso   1.00
O322   O     0.68510   0.49309   0.16620   0.00000  Uiso   1.00
Zn323  Zn    0.93786   0.50618   0.25624   0.00000  Uiso   1.00
Zn324  Zn    0.72881   0.49382   0.24377   0.00000  Uiso   1.00
C325   C     0.01364   0.93127   0.24636   0.00000  Uiso   1.00
C326   C     0.06447   0.87355   0.40806   0.00000  Uiso   1.00
C327   C     0.02020   0.98576   0.24542   0.00000  Uiso   1.00
C328   C     0.03856   0.84778   0.35251   0.00000  Uiso   1.00
C329   C     0.30668   0.68082   0.24032   0.00000  Uiso   1.00
C330   C     0.31778   0.73520   0.24889   0.00000  Uiso   1.00
C331   C     0.29625   0.82966   0.14548   0.00000  Uiso   1.00
C332   C     0.28840   0.81938   0.49426   0.00000  Uiso   1.00
C333   C     0.27530   0.83153   0.08648   0.00000  Uiso   1.00
C334   C     0.02989   0.89854   0.43823   0.00000  Uiso   1.00
C335   C     0.05339   0.91613   0.49308   0.00000  Uiso   1.00
C336   C     0.14617   0.88007   0.48913   0.00000  Uiso   1.00
C337   C     0.11041   0.90506   0.02024   0.00000  Uiso   1.00
C338   C     0.12989   0.75663   0.16073   0.00000  Uiso   1.00
C339   C     0.10239   0.91207   0.11578   0.00000  Uiso   1.00
C340   C     0.12518   0.87456   0.43138   0.00000  Uiso   1.00
C341   C     0.20156   0.86006   0.01097   0.00000  Uiso   1.00
C342   C     0.23623   0.84297   0.47458   0.00000  Uiso   1.00
C343   C     0.21879   0.85061   0.41885   0.00000  Uiso   1.00
C344   C     0.16587   0.87046   0.39861   0.00000  Uiso   1.00
C345   C     0.22122   0.85174   0.06660   0.00000  Uiso   1.00
C346   C     0.30871   0.81482   0.05039   0.00000  Uiso   1.00
Cl347  Cl    0.23169   0.99042   0.21799   0.00000  Uiso   1.00
H348   H     0.01670   0.79794   0.06544   0.00000  Uiso   1.00
H349   H     0.15474   0.74299   0.24359   0.00000  Uiso   1.00
H350   H     0.14695   0.72037   0.14711   0.00000  Uiso   1.00
H351   H     0.13789   0.78753   0.13319   0.00000  Uiso   1.00
H352   H     0.08210   0.74922   0.15704   0.00000  Uiso   1.00
H353   H     0.14397   0.96685   0.07623   0.00000  Uiso   1.00
H354   H     0.12915   0.92452   0.15770   0.00000  Uiso   1.00
H355   H     0.09385   0.86914   0.11353   0.00000  Uiso   1.00
H356   H     0.06026   0.93073   0.10960   0.00000  Uiso   1.00
H357   H     0.17674   0.88303   0.27769   0.00000  Uiso   1.00
H358   H     0.24537   0.84055   0.39069   0.00000  Uiso   1.00
H359   H     0.31398   0.80539   0.46632   0.00000  Uiso   1.00
H360   H     0.19433   0.85923   0.09503   0.00000  Uiso   1.00
H361   H     0.31874   0.90604   0.41900   0.00000  Uiso   1.00
H362   H     0.02653   0.93763   0.01472   0.00000  Uiso   1.00
H363   H     0.15655   0.88219   0.35702   0.00000  Uiso   1.00
H364   H     0.06506   0.66973   0.25430   0.00000  Uiso   1.00
N365   N     0.14493   0.81890   0.23543   0.00000  Uiso   1.00
N366   N     0.18840   0.84777   0.26458   0.00000  Uiso   1.00
N367   N     0.15976   0.77172   0.21722   0.00000  Uiso   1.00
N368   N     0.13409   0.92719   0.07487   0.00000  Uiso   1.00
O369   O     0.29769   0.91296   0.25358   0.00000  Uiso   1.00
O370   O     0.05742   0.90371   0.24424   0.00000  Uiso   1.00
O371   O     0.31490   0.84024   0.33380   0.00000  Uiso   1.00
O372   O     0.07463   0.83099   0.32446   0.00000  Uiso   1.00
O373   O     0.27592   0.76296   0.25577   0.00000  Uiso   1.00
O374   O     0.03565   0.75371   0.24643   0.00000  Uiso   1.00
O375   O     0.25870   0.83567   0.17554   0.00000  Uiso   1.00
O376   O     0.01843   0.82642   0.16620   0.00000  Uiso   1.00
Zn377  Zn    0.27119   0.83951   0.25624   0.00000  Uiso   1.00
Zn378  Zn    0.06214   0.82716   0.24377   0.00000  Uiso   1.00
C379   C     0.34697   0.93127   0.24636   0.00000  Uiso   1.00
C380   C     0.39780   0.87355   0.40806   0.00000  Uiso   1.00
C381   C     0.35353   0.98576   0.24542   0.00000  Uiso   1.00
C382   C     0.37189   0.84778   0.35251   0.00000  Uiso   1.00
C383   C     0.64001   0.68082   0.24032   0.00000  Uiso   1.00
C384   C     0.65111   0.73520   0.24889   0.00000  Uiso   1.00
C385   C     0.62958   0.82966   0.14548   0.00000  Uiso   1.00
C386   C     0.62173   0.81938   0.49426   0.00000  Uiso   1.00
C387   C     0.60863   0.83153   0.08648   0.00000  Uiso   1.00
C388   C     0.36322   0.89854   0.43823   0.00000  Uiso   1.00
C389   C     0.38673   0.91613   0.49308   0.00000  Uiso   1.00
C390   C     0.47950   0.88007   0.48913   0.00000  Uiso   1.00
C391   C     0.44375   0.90506   0.02024   0.00000  Uiso   1.00
C392   C     0.46322   0.75663   0.16073   0.00000  Uiso   1.00
C393   C     0.43572   0.91207   0.11578   0.00000  Uiso   1.00
C394   C     0.45851   0.87456   0.43138   0.00000  Uiso   1.00
C395   C     0.53489   0.86006   0.01097   0.00000  Uiso   1.00
C396   C     0.56956   0.84297   0.47458   0.00000  Uiso   1.00
C397   C     0.55212   0.85061   0.41885   0.00000  Uiso   1.00
C398   C     0.49920   0.87046   0.39861   0.00000  Uiso   1.00
C399   C     0.55455   0.85174   0.06660   0.00000  Uiso   1.00
C400   C     0.64205   0.81482   0.05039   0.00000  Uiso   1.00
Cl401  Cl    0.56503   0.99042   0.21799   0.00000  Uiso   1.00
H402   H     0.35003   0.79794   0.06544   0.00000  Uiso   1.00
H403   H     0.48808   0.74299   0.24359   0.00000  Uiso   1.00
H404   H     0.48028   0.72037   0.14711   0.00000  Uiso   1.00
H405   H     0.47123   0.78753   0.13319   0.00000  Uiso   1.00
H406   H     0.41544   0.74922   0.15704   0.00000  Uiso   1.00
H407   H     0.47730   0.96685   0.07623   0.00000  Uiso   1.00
H408   H     0.46248   0.92452   0.15770   0.00000  Uiso   1.00
H409   H     0.42719   0.86914   0.11353   0.00000  Uiso   1.00
H410   H     0.39359   0.93073   0.10960   0.00000  Uiso   1.00
H411   H     0.51008   0.88303   0.27769   0.00000  Uiso   1.00
H412   H     0.57870   0.84055   0.39069   0.00000  Uiso   1.00
H413   H     0.64731   0.80539   0.46632   0.00000  Uiso   1.00
H414   H     0.52766   0.85923   0.09503   0.00000  Uiso   1.00
H415   H     0.65207   0.90604   0.41900   0.00000  Uiso   1.00
H416   H     0.35987   0.93763   0.01472   0.00000  Uiso   1.00
H417   H     0.48988   0.88219   0.35702   0.00000  Uiso   1.00
H418   H     0.39839   0.66973   0.25430   0.00000  Uiso   1.00
N419   N     0.47827   0.81890   0.23543   0.00000  Uiso   1.00
N420   N     0.52173   0.84777   0.26458   0.00000  Uiso   1.00
N421   N     0.49309   0.77172   0.21722   0.00000  Uiso   1.00
N422   N     0.46742   0.92719   0.07487   0.00000  Uiso   1.00
O423   O     0.63102   0.91296   0.25358   0.00000  Uiso   1.00
O424   O     0.39075   0.90371   0.24424   0.00000  Uiso   1.00
O425   O     0.64823   0.84024   0.33380   0.00000  Uiso   1.00
O426   O     0.40796   0.83099   0.32446   0.00000  Uiso   1.00
O427   O     0.60925   0.76296   0.25577   0.00000  Uiso   1.00
O428   O     0.36898   0.75371   0.24643   0.00000  Uiso   1.00
O429   O     0.59204   0.83567   0.17554   0.00000  Uiso   1.00
O430   O     0.35177   0.82642   0.16620   0.00000  Uiso   1.00
Zn431  Zn    0.60453   0.83951   0.25624   0.00000  Uiso   1.00
Zn432  Zn    0.39547   0.82716   0.24377   0.00000  Uiso   1.00
C433   C     0.68030   0.93127   0.24636   0.00000  Uiso   1.00
C434   C     0.73114   0.87355   0.40806   0.00000  Uiso   1.00
C435   C     0.68686   0.98576   0.24542   0.00000  Uiso   1.00
C436   C     0.70523   0.84778   0.35251   0.00000  Uiso   1.00
C437   C     0.97334   0.68082   0.24032   0.00000  Uiso   1.00
C438   C     0.98444   0.73520   0.24889   0.00000  Uiso   1.00
C439   C     0.96291   0.82966   0.14548   0.00000  Uiso   1.00
C440   C     0.95507   0.81938   0.49426   0.00000  Uiso   1.00
C441   C     0.94196   0.83153   0.08648   0.00000  Uiso   1.00
C442   C     0.69656   0.89854   0.43823   0.00000  Uiso   1.00
C443   C     0.72006   0.91613   0.49308   0.00000  Uiso   1.00
C444   C     0.81284   0.88007   0.48913   0.00000  Uiso   1.00
C445   C     0.77708   0.90506   0.02024   0.00000  Uiso   1.00
C446   C     0.79656   0.75663   0.16073   0.00000  Uiso   1.00
C447   C     0.76906   0.91207   0.11578   0.00000  Uiso   1.00
C448   C     0.79185   0.87456   0.43138   0.00000  Uiso   1.00
C449   C     0.86823   0.86006   0.01097   0.00000  Uiso   1.00
C450   C     0.90289   0.84297   0.47458   0.00000  Uiso   1.00
C451   C     0.88545   0.85061   0.41885   0.00000  Uiso   1.00
C452   C     0.83253   0.87046   0.39861   0.00000  Uiso   1.00
C453   C     0.88788   0.85174   0.06660   0.00000  Uiso   1.00
C454   C     0.97538   0.81482   0.05039   0.00000  Uiso   1.00
Cl455  Cl    0.89836   0.99042   0.21799   0.00000  Uiso   1.00
H456   H     0.68336   0.79794   0.06544   0.00000  Uiso   1.00
H457   H     0.82141   0.74299   0.24359   0.00000  Uiso   1.00
H458   H     0.81361   0.72037   0.14711   0.00000  Uiso   1.00
H459   H     0.80456   0.78753   0.13319   0.00000  Uiso   1.00
H460   H     0.74877   0.74922   0.15704   0.00000  Uiso   1.00
H461   H     0.81064   0.96685   0.07623   0.00000  Uiso   1.00
H462   H     0.79581   0.92452   0.15770   0.00000  Uiso   1.00
H463   H     0.76052   0.86914   0.11353   0.00000  Uiso   1.00
H464   H     0.72692   0.93073   0.10960   0.00000  Uiso   1.00
H465   H     0.84341   0.88303   0.27769   0.00000  Uiso   1.00
H466   H     0.91203   0.84055   0.39069   0.00000  Uiso   1.00
H467   H     0.98065   0.80539   0.46632   0.00000  Uiso   1.00
H468   H     0.86100   0.85923   0.09503   0.00000  Uiso   1.00
H469   H     0.98541   0.90604   0.41900   0.00000  Uiso   1.00
H470   H     0.69320   0.93763   0.01472   0.00000  Uiso   1.00
H471   H     0.82322   0.88219   0.35702   0.00000  Uiso   1.00
H472   H     0.73173   0.66973   0.25430   0.00000  Uiso   1.00
N473   N     0.81160   0.81890   0.23543   0.00000  Uiso   1.00
N474   N     0.85507   0.84777   0.26458   0.00000  Uiso   1.00
N475   N     0.82643   0.77172   0.21722   0.00000  Uiso   1.00
N476   N     0.80076   0.92719   0.07487   0.00000  Uiso   1.00
O477   O     0.96435   0.91296   0.25358   0.00000  Uiso   1.00
O478   O     0.72408   0.90371   0.24424   0.00000  Uiso   1.00
O479   O     0.98157   0.84024   0.33380   0.00000  Uiso   1.00
O480   O     0.74130   0.83099   0.32446   0.00000  Uiso   1.00
O481   O     0.94258   0.76296   0.25577   0.00000  Uiso   1.00
O482   O     0.70231   0.75371   0.24643   0.00000  Uiso   1.00
O483   O     0.92537   0.83567   0.17554   0.00000  Uiso   1.00
O484   O     0.68510   0.82642   0.16620   0.00000  Uiso   1.00
Zn485  Zn    0.93786   0.83951   0.25624   0.00000  Uiso   1.00
Zn486  Zn    0.72881   0.82716   0.24377   0.00000  Uiso   1.00
C487   C     0.01364   0.26460   0.74636   0.00000  Uiso   1.00
C488   C     0.06447   0.20688   0.90806   0.00000  Uiso   1.00
C489   C     0.02020   0.31909   0.74542   0.00000  Uiso   1.00
C490   C     0.03856   0.18111   0.85251   0.00000  Uiso   1.00
C491   C     0.30668   0.01415   0.74032   0.00000  Uiso   1.00
C492   C     0.31778   0.06853   0.74889   0.00000  Uiso   1.00
C493   C     0.29625   0.16299   0.64548   0.00000  Uiso   1.00
C494   C     0.28840   0.15271   0.99426   0.00000  Uiso   1.00
C495   C     0.27530   0.16486   0.58648   0.00000  Uiso   1.00
C496   C     0.02989   0.23187   0.93823   0.00000  Uiso   1.00
C497   C     0.05339   0.24946   0.99308   0.00000  Uiso   1.00
C498   C     0.14617   0.21340   0.98913   0.00000  Uiso   1.00
C499   C     0.11041   0.23839   0.52024   0.00000  Uiso   1.00
C500   C     0.12989   0.08997   0.66073   0.00000  Uiso   1.00
C501   C     0.10239   0.24540   0.61578   0.00000  Uiso   1.00
C502   C     0.12518   0.20789   0.93138   0.00000  Uiso   1.00
C503   C     0.20156   0.19339   0.51097   0.00000  Uiso   1.00
C504   C     0.23623   0.17630   0.97458   0.00000  Uiso   1.00
C505   C     0.21879   0.18394   0.91885   0.00000  Uiso   1.00
C506   C     0.16587   0.20380   0.89861   0.00000  Uiso   1.00
C507   C     0.22122   0.18508   0.56660   0.00000  Uiso   1.00
C508   C     0.30871   0.14815   0.55039   0.00000  Uiso   1.00
Cl509  Cl    0.23169   0.32375   0.71799   0.00000  Uiso   1.00
H510   H     0.01670   0.13127   0.56544   0.00000  Uiso   1.00
H511   H     0.15474   0.07632   0.74359   0.00000  Uiso   1.00
H512   H     0.14695   0.05371   0.64711   0.00000  Uiso   1.00
H513   H     0.13789   0.12086   0.63319   0.00000  Uiso   1.00
H514   H     0.08210   0.08256   0.65704   0.00000  Uiso   1.00
H515   H     0.14397   0.30018   0.57623   0.00000  Uiso   1.00
H516   H     0.12915   0.25785   0.65770   0.00000  Uiso   1.00
H517   H     0.09385   0.20247   0.61353   0.00000  Uiso   1.00
H518   H     0.06026   0.26406   0.60960   0.00000  Uiso   1.00
H519   H     0.17674   0.21637   0.77769   0.00000  Uiso   1.00
H520   H     0.24537   0.17389   0.89069   0.00000  Uiso   1.00
H521   H     0.31398   0.13872   0.96632   0.00000  Uiso   1.00
H522   H     0.19433   0.19257   0.59503   0.00000  Uiso   1.00
H523   H     0.31874   0.23937   0.91900   0.00000  Uiso   1.00
H524   H     0.02653   0.27096   0.51472   0.00000  Uiso   1.00
H525   H     0.15655   0.21553   0.85702   0.00000  Uiso   1.00
H526   H     0.06506   0.00306   0.75430   0.00000  Uiso   1.00
N527   N     0.14493   0.15223   0.73543   0.00000  Uiso   1.00
N528   N     0.18840   0.18110   0.76458   0.00000  Uiso   1.00
N529   N     0.15976   0.10505   0.71722   0.00000  Uiso   1.00
N530   N     0.13409   0.26052   0.57487   0.00000  Uiso   1.00
O531   O     0.29769   0.24629   0.75358   0.00000  Uiso   1.00
O532   O     0.05742   0.23704   0.74424   0.00000  Uiso   1.00
O533   O     0.31490   0.17358   0.83380   0.00000  Uiso   1.00
O534   O     0.07463   0.16433   0.82446   0.00000  Uiso   1.00
O535   O     0.27592   0.09629   0.75577   0.00000  Uiso   1.00
O536   O     0.03565   0.08704   0.74643   0.00000  Uiso   1.00
O537   O     0.25870   0.16901   0.67554   0.00000  Uiso   1.00
O538   O     0.01843   0.15976   0.66620   0.00000  Uiso   1.00
Zn539  Zn    0.27119   0.17284   0.75624   0.00000  Uiso   1.00
Zn540  Zn    0.06214   0.16049   0.74377   0.00000  Uiso   1.00
C541   C     0.34697   0.26460   0.74636   0.00000  Uiso   1.00
C542   C     0.39780   0.20688   0.90806   0.00000  Uiso   1.00
C543   C     0.35353   0.31909   0.74542   0.00000  Uiso   1.00
C544   C     0.37189   0.18111   0.85251   0.00000  Uiso   1.00
C545   C     0.64001   0.01415   0.74032   0.00000  Uiso   1.00
C546   C     0.65111   0.06853   0.74889   0.00000  Uiso   1.00
C547   C     0.62958   0.16299   0.64548   0.00000  Uiso   1.00
C548   C     0.62173   0.15271   0.99426   0.00000  Uiso   1.00
C549   C     0.60863   0.16486   0.58648   0.00000  Uiso   1.00
C550   C     0.36322   0.23187   0.93823   0.00000  Uiso   1.00
C551   C     0.38673   0.24946   0.99308   0.00000  Uiso   1.00
C552   C     0.47950   0.21340   0.98913   0.00000  Uiso   1.00
C553   C     0.44375   0.23839   0.52024   0.00000  Uiso   1.00
C554   C     0.46322   0.08997   0.66073   0.00000  Uiso   1.00
C555   C     0.43572   0.24540   0.61578   0.00000  Uiso   1.00
C556   C     0.45851   0.20789   0.93138   0.00000  Uiso   1.00
C557   C     0.53489   0.19339   0.51097   0.00000  Uiso   1.00
C558   C     0.56956   0.17630   0.97458   0.00000  Uiso   1.00
C559   C     0.55212   0.18394   0.91885   0.00000  Uiso   1.00
C560   C     0.49920   0.20380   0.89861   0.00000  Uiso   1.00
C561   C     0.55455   0.18508   0.56660   0.00000  Uiso   1.00
C562   C     0.64205   0.14815   0.55039   0.00000  Uiso   1.00
Cl563  Cl    0.56503   0.32375   0.71799   0.00000  Uiso   1.00
H564   H     0.35003   0.13127   0.56544   0.00000  Uiso   1.00
H565   H     0.48808   0.07632   0.74359   0.00000  Uiso   1.00
H566   H     0.48028   0.05371   0.64711   0.00000  Uiso   1.00
H567   H     0.47123   0.12086   0.63319   0.00000  Uiso   1.00
H568   H     0.41544   0.08256   0.65704   0.00000  Uiso   1.00
H569   H     0.47730   0.30018   0.57623   0.00000  Uiso   1.00
H570   H     0.46248   0.25785   0.65770   0.00000  Uiso   1.00
H571   H     0.42719   0.20247   0.61353   0.00000  Uiso   1.00
H572   H     0.39359   0.26406   0.60960   0.00000  Uiso   1.00
H573   H     0.51008   0.21637   0.77769   0.00000  Uiso   1.00
H574   H     0.57870   0.17389   0.89069   0.00000  Uiso   1.00
H575   H     0.64731   0.13872   0.96632   0.00000  Uiso   1.00
H576   H     0.52766   0.19257   0.59503   0.00000  Uiso   1.00
H577   H     0.65207   0.23937   0.91900   0.00000  Uiso   1.00
H578   H     0.35987   0.27096   0.51472   0.00000  Uiso   1.00
H579   H     0.48988   0.21553   0.85702   0.00000  Uiso   1.00
H580   H     0.39839   0.00306   0.75430   0.00000  Uiso   1.00
N581   N     0.47827   0.15223   0.73543   0.00000  Uiso   1.00
N582   N     0.52173   0.18110   0.76458   0.00000  Uiso   1.00
N583   N     0.49309   0.10505   0.71722   0.00000  Uiso   1.00
N584   N     0.46742   0.26052   0.57487   0.00000  Uiso   1.00
O585   O     0.63102   0.24629   0.75358   0.00000  Uiso   1.00
O586   O     0.39075   0.23704   0.74424   0.00000  Uiso   1.00
O587   O     0.64823   0.17358   0.83380   0.00000  Uiso   1.00
O588   O     0.40796   0.16433   0.82446   0.00000  Uiso   1.00
O589   O     0.60925   0.09629   0.75577   0.00000  Uiso   1.00
O590   O     0.36898   0.08704   0.74643   0.00000  Uiso   1.00
O591   O     0.59204   0.16901   0.67554   0.00000  Uiso   1.00
O592   O     0.35177   0.15976   0.66620   0.00000  Uiso   1.00
Zn593  Zn    0.60453   0.17284   0.75624   0.00000  Uiso   1.00
Zn594  Zn    0.39547   0.16049   0.74377   0.00000  Uiso   1.00
C595   C     0.68030   0.26460   0.74636   0.00000  Uiso   1.00
C596   C     0.73114   0.20688   0.90806   0.00000  Uiso   1.00
C597   C     0.68686   0.31909   0.74542   0.00000  Uiso   1.00
C598   C     0.70523   0.18111   0.85251   0.00000  Uiso   1.00
C599   C     0.97334   0.01415   0.74032   0.00000  Uiso   1.00
C600   C     0.98444   0.06853   0.74889   0.00000  Uiso   1.00
C601   C     0.96291   0.16299   0.64548   0.00000  Uiso   1.00
C602   C     0.95507   0.15271   0.99426   0.00000  Uiso   1.00
C603   C     0.94196   0.16486   0.58648   0.00000  Uiso   1.00
C604   C     0.69656   0.23187   0.93823   0.00000  Uiso   1.00
C605   C     0.72006   0.24946   0.99308   0.00000  Uiso   1.00
C606   C     0.81284   0.21340   0.98913   0.00000  Uiso   1.00
C607   C     0.77708   0.23839   0.52024   0.00000  Uiso   1.00
C608   C     0.79656   0.08997   0.66073   0.00000  Uiso   1.00
C609   C     0.76906   0.24540   0.61578   0.00000  Uiso   1.00
C610   C     0.79185   0.20789   0.93138   0.00000  Uiso   1.00
C611   C     0.86823   0.19339   0.51097   0.00000  Uiso   1.00
C612   C     0.90289   0.17630   0.97458   0.00000  Uiso   1.00
C613   C     0.88545   0.18394   0.91885   0.00000  Uiso   1.00
C614   C     0.83253   0.20380   0.89861   0.00000  Uiso   1.00
C615   C     0.88788   0.18508   0.56660   0.00000  Uiso   1.00
C616   C     0.97538   0.14815   0.55039   0.00000  Uiso   1.00
Cl617  Cl    0.89836   0.32375   0.71799   0.00000  Uiso   1.00
H618   H     0.68336   0.13127   0.56544   0.00000  Uiso   1.00
H619   H     0.82141   0.07632   0.74359   0.00000  Uiso   1.00
H620   H     0.81361   0.05371   0.64711   0.00000  Uiso   1.00
H621   H     0.80456   0.12086   0.63319   0.00000  Uiso   1.00
H622   H     0.74877   0.08256   0.65704   0.00000  Uiso   1.00
H623   H     0.81064   0.30018   0.57623   0.00000  Uiso   1.00
H624   H     0.79581   0.25785   0.65770   0.00000  Uiso   1.00
H625   H     0.76052   0.20247   0.61353   0.00000  Uiso   1.00
H626   H     0.72692   0.26406   0.60960   0.00000  Uiso   1.00
H627   H     0.84341   0.21637   0.77769   0.00000  Uiso   1.00
H628   H     0.91203   0.17389   0.89069   0.00000  Uiso   1.00
H629   H     0.98065   0.13872   0.96632   0.00000  Uiso   1.00
H630   H     0.86100   0.19257   0.59503   0.00000  Uiso   1.00
H631   H     0.98541   0.23937   0.91900   0.00000  Uiso   1.00
H632   H     0.69320   0.27096   0.51472   0.00000  Uiso   1.00
H633   H     0.82322   0.21553   0.85702   0.00000  Uiso   1.00
H634   H     0.73173   0.00306   0.75430   0.00000  Uiso   1.00
N635   N     0.81160   0.15223   0.73543   0.00000  Uiso   1.00
N636   N     0.85507   0.18110   0.76458   0.00000  Uiso   1.00
N637   N     0.82643   0.10505   0.71722   0.00000  Uiso   1.00
N638   N     0.80076   0.26052   0.57487   0.00000  Uiso   1.00
O639   O     0.96435   0.24629   0.75358   0.00000  Uiso   1.00
O640   O     0.72408   0.23704   0.74424   0.00000  Uiso   1.00
O641   O     0.98157   0.17358   0.83380   0.00000  Uiso   1.00
O642   O     0.74130   0.16433   0.82446   0.00000  Uiso   1.00
O643   O     0.94258   0.09629   0.75577   0.00000  Uiso   1.00
O644   O     0.70231   0.08704   0.74643   0.00000  Uiso   1.00
O645   O     0.92537   0.16901   0.67554   0.00000  Uiso   1.00
O646   O     0.68510   0.15976   0.66620   0.00000  Uiso   1.00
Zn647  Zn    0.93786   0.17284   0.75624   0.00000  Uiso   1.00
Zn648  Zn    0.72881   0.16049   0.74377   0.00000  Uiso   1.00
C649   C     0.01364   0.59793   0.74636   0.00000  Uiso   1.00
C650   C     0.06447   0.54021   0.90806   0.00000  Uiso   1.00
C651   C     0.02020   0.65243   0.74542   0.00000  Uiso   1.00
C652   C     0.03856   0.51444   0.85251   0.00000  Uiso   1.00
C653   C     0.30668   0.34749   0.74032   0.00000  Uiso   1.00
C654   C     0.31778   0.40186   0.74889   0.00000  Uiso   1.00
C655   C     0.29625   0.49632   0.64548   0.00000  Uiso   1.00
C656   C     0.28840   0.48604   0.99426   0.00000  Uiso   1.00
C657   C     0.27530   0.49820   0.58648   0.00000  Uiso   1.00
C658   C     0.02989   0.56521   0.93823   0.00000  Uiso   1.00
C659   C     0.05339   0.58280   0.99308   0.00000  Uiso   1.00
C660   C     0.14617   0.54673   0.98913   0.00000  Uiso   1.00
C661   C     0.11041   0.57173   0.52024   0.00000  Uiso   1.00
C662   C     0.12989   0.42330   0.66073   0.00000  Uiso   1.00
C663   C     0.10239   0.57873   0.61578   0.00000  Uiso   1.00
C664   C     0.12518   0.54122   0.93138   0.00000  Uiso   1.00
C665   C     0.20156   0.52673   0.51097   0.00000  Uiso   1.00
C666   C     0.23623   0.50964   0.97458   0.00000  Uiso   1.00
C667   C     0.21879   0.51728   0.91885   0.00000  Uiso   1.00
C668   C     0.16587   0.53713   0.89861   0.00000  Uiso   1.00
C669   C     0.22122   0.51841   0.56660   0.00000  Uiso   1.00
C670   C     0.30871   0.48148   0.55039   0.00000  Uiso   1.00
Cl671  Cl    0.23169   0.65709   0.71799   0.00000  Uiso   1.00
H672   H     0.01670   0.46461   0.56544   0.00000  Uiso   1.00
H673   H     0.15474   0.40966   0.74359   0.00000  Uiso   1.00
H674   H     0.14695   0.38704   0.64711   0.00000  Uiso   1.00
H675   H     0.13789   0.45419   0.63319   0.00000  Uiso   1.00
H676   H     0.08210   0.41589   0.65704   0.00000  Uiso   1.00
H677   H     0.14397   0.63352   0.57623   0.00000  Uiso   1.00
H678   H     0.12915   0.59119   0.65770   0.00000  Uiso   1.00
H679   H     0.09385   0.53580   0.61353   0.00000  Uiso   1.00
H680   H     0.06026   0.59740   0.60960   0.00000  Uiso   1.00
H681   H     0.17674   0.54970   0.77769   0.00000  Uiso   1.00
H682   H     0.24537   0.50722   0.89069   0.00000  Uiso   1.00
H683   H     0.31398   0.47205   0.96632   0.00000  Uiso   1.00
H684   H     0.19433   0.52590   0.59503   0.00000  Uiso   1.00
H685   H     0.31874   0.57270   0.91900   0.00000  Uiso   1.00
H686   H     0.02653   0.60429   0.51472   0.00000  Uiso   1.00
H687   H     0.15655   0.54886   0.85702   0.00000  Uiso   1.00
H688   H     0.06506   0.33640   0.75430   0.00000  Uiso   1.00
N689   N     0.14493   0.48556   0.73543   0.00000  Uiso   1.00
N690   N     0.18840   0.51444   0.76458   0.00000  Uiso   1.00
N691   N     0.15976   0.43838   0.71722   0.00000  Uiso   1.00
N692   N     0.13409   0.59385   0.57487   0.00000  Uiso   1.00
O693   O     0.29769   0.57963   0.75358   0.00000  Uiso   1.00
O694   O     0.05742   0.57038   0.74424   0.00000  Uiso   1.00
O695   O     0.31490   0.50691   0.83380   0.00000  Uiso   1.00
O696   O     0.07463   0.49766   0.82446   0.00000  Uiso   1.00
O697   O     0.27592   0.42962   0.75577   0.00000  Uiso   1.00
O698   O     0.03565   0.42037   0.74643   0.00000  Uiso   1.00
O699   O     0.25870   0.50234   0.67554   0.00000  Uiso   1.00
O700   O     0.01843   0.49309   0.66620   0.00000  Uiso   1.00
Zn701  Zn    0.27119   0.50618   0.75624   0.00000  Uiso   1.00
Zn702  Zn    0.06214   0.49382   0.74377   0.00000  Uiso   1.00
C703   C     0.34697   0.59793   0.74636   0.00000  Uiso   1.00
C704   C     0.39780   0.54021   0.90806   0.00000  Uiso   1.00
C705   C     0.35353   0.65243   0.74542   0.00000  Uiso   1.00
C706   C     0.37189   0.51444   0.85251   0.00000  Uiso   1.00
C707   C     0.64001   0.34749   0.74032   0.00000  Uiso   1.00
C708   C     0.65111   0.40186   0.74889   0.00000  Uiso   1.00
C709   C     0.62958   0.49632   0.64548   0.00000  Uiso   1.00
C710   C     0.62173   0.48604   0.99426   0.00000  Uiso   1.00
C711   C     0.60863   0.49820   0.58648   0.00000  Uiso   1.00
C712   C     0.36322   0.56521   0.93823   0.00000  Uiso   1.00
C713   C     0.38673   0.58280   0.99308   0.00000  Uiso   1.00
C714   C     0.47950   0.54673   0.98913   0.00000  Uiso   1.00
C715   C     0.44375   0.57173   0.52024   0.00000  Uiso   1.00
C716   C     0.46322   0.42330   0.66073   0.00000  Uiso   1.00
C717   C     0.43572   0.57873   0.61578   0.00000  Uiso   1.00
C718   C     0.45851   0.54122   0.93138   0.00000  Uiso   1.00
C719   C     0.53489   0.52673   0.51097   0.00000  Uiso   1.00
C720   C     0.56956   0.50964   0.97458   0.00000  Uiso   1.00
C721   C     0.55212   0.51728   0.91885   0.00000  Uiso   1.00
C722   C     0.49920   0.53713   0.89861   0.00000  Uiso   1.00
C723   C     0.55455   0.51841   0.56660   0.00000  Uiso   1.00
C724   C     0.64205   0.48148   0.55039   0.00000  Uiso   1.00
Cl725  Cl    0.56503   0.65709   0.71799   0.00000  Uiso   1.00
H726   H     0.35003   0.46461   0.56544   0.00000  Uiso   1.00
H727   H     0.48808   0.40966   0.74359   0.00000  Uiso   1.00
H728   H     0.48028   0.38704   0.64711   0.00000  Uiso   1.00
H729   H     0.47123   0.45419   0.63319   0.00000  Uiso   1.00
H730   H     0.41544   0.41589   0.65704   0.00000  Uiso   1.00
H731   H     0.47730   0.63352   0.57623   0.00000  Uiso   1.00
H732   H     0.46248   0.59119   0.65770   0.00000  Uiso   1.00
H733   H     0.42719   0.53580   0.61353   0.00000  Uiso   1.00
H734   H     0.39359   0.59740   0.60960   0.00000  Uiso   1.00
H735   H     0.51008   0.54970   0.77769   0.00000  Uiso   1.00
H736   H     0.57870   0.50722   0.89069   0.00000  Uiso   1.00
H737   H     0.64731   0.47205   0.96632   0.00000  Uiso   1.00
H738   H     0.52766   0.52590   0.59503   0.00000  Uiso   1.00
H739   H     0.65207   0.57270   0.91900   0.00000  Uiso   1.00
H740   H     0.35987   0.60429   0.51472   0.00000  Uiso   1.00
H741   H     0.48988   0.54886   0.85702   0.00000  Uiso   1.00
H742   H     0.39839   0.33640   0.75430   0.00000  Uiso   1.00
N743   N     0.47827   0.48556   0.73543   0.00000  Uiso   1.00
N744   N     0.52173   0.51444   0.76458   0.00000  Uiso   1.00
N745   N     0.49309   0.43838   0.71722   0.00000  Uiso   1.00
N746   N     0.46742   0.59385   0.57487   0.00000  Uiso   1.00
O747   O     0.63102   0.57963   0.75358   0.00000  Uiso   1.00
O748   O     0.39075   0.57038   0.74424   0.00000  Uiso   1.00
O749   O     0.64823   0.50691   0.83380   0.00000  Uiso   1.00
O750   O     0.40796   0.49766   0.82446   0.00000  Uiso   1.00
O751   O     0.60925   0.42962   0.75577   0.00000  Uiso   1.00
O752   O     0.36898   0.42037   0.74643   0.00000  Uiso   1.00
O753   O     0.59204   0.50234   0.67554   0.00000  Uiso   1.00
O754   O     0.35177   0.49309   0.66620   0.00000  Uiso   1.00
Zn755  Zn    0.60453   0.50618   0.75624   0.00000  Uiso   1.00
Zn756  Zn    0.39547   0.49382   0.74377   0.00000  Uiso   1.00
C757   C     0.68030   0.59793   0.74636   0.00000  Uiso   1.00
C758   C     0.73114   0.54021   0.90806   0.00000  Uiso   1.00
C759   C     0.68686   0.65243   0.74542   0.00000  Uiso   1.00
C760   C     0.70523   0.51444   0.85251   0.00000  Uiso   1.00
C761   C     0.97334   0.34749   0.74032   0.00000  Uiso   1.00
C762   C     0.98444   0.40186   0.74889   0.00000  Uiso   1.00
C763   C     0.96291   0.49632   0.64548   0.00000  Uiso   1.00
C764   C     0.95507   0.48604   0.99426   0.00000  Uiso   1.00
C765   C     0.94196   0.49820   0.58648   0.00000  Uiso   1.00
C766   C     0.69656   0.56521   0.93823   0.00000  Uiso   1.00
C767   C     0.72006   0.58280   0.99308   0.00000  Uiso   1.00
C768   C     0.81284   0.54673   0.98913   0.00000  Uiso   1.00
C769   C     0.77708   0.57173   0.52024   0.00000  Uiso   1.00
C770   C     0.79656   0.42330   0.66073   0.00000  Uiso   1.00
C771   C     0.76906   0.57873   0.61578   0.00000  Uiso   1.00
C772   C     0.79185   0.54122   0.93138   0.00000  Uiso   1.00
C773   C     0.86823   0.52673   0.51097   0.00000  Uiso   1.00
C774   C     0.90289   0.50964   0.97458   0.00000  Uiso   1.00
C775   C     0.88545   0.51728   0.91885   0.00000  Uiso   1.00
C776   C     0.83253   0.53713   0.89861   0.00000  Uiso   1.00
C777   C     0.88788   0.51841   0.56660   0.00000  Uiso   1.00
C778   C     0.97538   0.48148   0.55039   0.00000  Uiso   1.00
Cl779  Cl    0.89836   0.65709   0.71799   0.00000  Uiso   1.00
H780   H     0.68336   0.46461   0.56544   0.00000  Uiso   1.00
H781   H     0.82141   0.40966   0.74359   0.00000  Uiso   1.00
H782   H     0.81361   0.38704   0.64711   0.00000  Uiso   1.00
H783   H     0.80456   0.45419   0.63319   0.00000  Uiso   1.00
H784   H     0.74877   0.41589   0.65704   0.00000  Uiso   1.00
H785   H     0.81064   0.63352   0.57623   0.00000  Uiso   1.00
H786   H     0.79581   0.59119   0.65770   0.00000  Uiso   1.00
H787   H     0.76052   0.53580   0.61353   0.00000  Uiso   1.00
H788   H     0.72692   0.59740   0.60960   0.00000  Uiso   1.00
H789   H     0.84341   0.54970   0.77769   0.00000  Uiso   1.00
H790   H     0.91203   0.50722   0.89069   0.00000  Uiso   1.00
H791   H     0.98065   0.47205   0.96632   0.00000  Uiso   1.00
H792   H     0.86100   0.52590   0.59503   0.00000  Uiso   1.00
H793   H     0.98541   0.57270   0.91900   0.00000  Uiso   1.00
H794   H     0.69320   0.60429   0.51472   0.00000  Uiso   1.00
H795   H     0.82322   0.54886   0.85702   0.00000  Uiso   1.00
H796   H     0.73173   0.33640   0.75430   0.00000  Uiso   1.00
N797   N     0.81160   0.48556   0.73543   0.00000  Uiso   1.00
N798   N     0.85507   0.51444   0.76458   0.00000  Uiso   1.00
N799   N     0.82643   0.43838   0.71722   0.00000  Uiso   1.00
N800   N     0.80076   0.59385   0.57487   0.00000  Uiso   1.00
O801   O     0.96435   0.57963   0.75358   0.00000  Uiso   1.00
O802   O     0.72408   0.57038   0.74424   0.00000  Uiso   1.00
O803   O     0.98157   0.50691   0.83380   0.00000  Uiso   1.00
O804   O     0.74130   0.49766   0.82446   0.00000  Uiso   1.00
O805   O     0.94258   0.42962   0.75577   0.00000  Uiso   1.00
O806   O     0.70231   0.42037   0.74643   0.00000  Uiso   1.00
O807   O     0.92537   0.50234   0.67554   0.00000  Uiso   1.00
O808   O     0.68510   0.49309   0.66620   0.00000  Uiso   1.00
Zn809  Zn    0.93786   0.50618   0.75624   0.00000  Uiso   1.00
Zn810  Zn    0.72881   0.49382   0.74377   0.00000  Uiso   1.00
C811   C     0.01364   0.93127   0.74636   0.00000  Uiso   1.00
C812   C     0.06447   0.87355   0.90806   0.00000  Uiso   1.00
C813   C     0.02020   0.98576   0.74542   0.00000  Uiso   1.00
C814   C     0.03856   0.84778   0.85251   0.00000  Uiso   1.00
C815   C     0.30668   0.68082   0.74032   0.00000  Uiso   1.00
C816   C     0.31778   0.73520   0.74889   0.00000  Uiso   1.00
C817   C     0.29625   0.82966   0.64548   0.00000  Uiso   1.00
C818   C     0.28840   0.81938   0.99426   0.00000  Uiso   1.00
C819   C     0.27530   0.83153   0.58648   0.00000  Uiso   1.00
C820   C     0.02989   0.89854   0.93823   0.00000  Uiso   1.00
C821   C     0.05339   0.91613   0.99308   0.00000  Uiso   1.00
C822   C     0.14617   0.88007   0.98913   0.00000  Uiso   1.00
C823   C     0.11041   0.90506   0.52024   0.00000  Uiso   1.00
C824   C     0.12989   0.75663   0.66073   0.00000  Uiso   1.00
C825   C     0.10239   0.91207   0.61578   0.00000  Uiso   1.00
C826   C     0.12518   0.87456   0.93138   0.00000  Uiso   1.00
C827   C     0.20156   0.86006   0.51097   0.00000  Uiso   1.00
C828   C     0.23623   0.84297   0.97458   0.00000  Uiso   1.00
C829   C     0.21879   0.85061   0.91885   0.00000  Uiso   1.00
C830   C     0.16587   0.87046   0.89861   0.00000  Uiso   1.00
C831   C     0.22122   0.85174   0.56660   0.00000  Uiso   1.00
C832   C     0.30871   0.81482   0.55039   0.00000  Uiso   1.00
Cl833  Cl    0.23169   0.99042   0.71799   0.00000  Uiso   1.00
H834   H     0.01670   0.79794   0.56544   0.00000  Uiso   1.00
H835   H     0.15474   0.74299   0.74359   0.00000  Uiso   1.00
H836   H     0.14695   0.72037   0.64711   0.00000  Uiso   1.00
H837   H     0.13789   0.78753   0.63319   0.00000  Uiso   1.00
H838   H     0.08210   0.74922   0.65704   0.00000  Uiso   1.00
H839   H     0.14397   0.96685   0.57623   0.00000  Uiso   1.00
H840   H     0.12915   0.92452   0.65770   0.00000  Uiso   1.00
H841   H     0.09385   0.86914   0.61353   0.00000  Uiso   1.00
H842   H     0.06026   0.93073   0.60960   0.00000  Uiso   1.00
H843   H     0.17674   0.88303   0.77769   0.00000  Uiso   1.00
H844   H     0.24537   0.84055   0.89069   0.00000  Uiso   1.00
H845   H     0.31398   0.80539   0.96632   0.00000  Uiso   1.00
H846   H     0.19433   0.85923   0.59503   0.00000  Uiso   1.00
H847   H     0.31874   0.90604   0.91900   0.00000  Uiso   1.00
H848   H     0.02653   0.93763   0.51472   0.00000  Uiso   1.00
H849   H     0.15655   0.88219   0.85702   0.00000  Uiso   1.00
H850   H     0.06506   0.66973   0.75430   0.00000  Uiso   1.00
N851   N     0.14493   0.81890   0.73543   0.00000  Uiso   1.00
N852   N     0.18840   0.84777   0.76458   0.00000  Uiso   1.00
N853   N     0.15976   0.77172   0.71722   0.00000  Uiso   1.00
N854   N     0.13409   0.92719   0.57487   0.00000  Uiso   1.00
O855   O     0.29769   0.91296   0.75358   0.00000  Uiso   1.00
O856   O     0.05742   0.90371   0.74424   0.00000  Uiso   1.00
O857   O     0.31490   0.84024   0.83380   0.00000  Uiso   1.00
O858   O     0.07463   0.83099   0.82446   0.00000  Uiso   1.00
O859   O     0.27592   0.76296   0.75577   0.00000  Uiso   1.00
O860   O     0.03565   0.75371   0.74643   0.00000  Uiso   1.00
O861   O     0.25870   0.83567   0.67554   0.00000  Uiso   1.00
O862   O     0.01843   0.82642   0.66620   0.00000  Uiso   1.00
Zn863  Zn    0.27119   0.83951   0.75624   0.00000  Uiso   1.00
Zn864  Zn    0.06214   0.82716   0.74377   0.00000  Uiso   1.00
C865   C     0.34697   0.93127   0.74636   0.00000  Uiso   1.00
C866   C     0.39780   0.87355   0.90806   0.00000  Uiso   1.00
C867   C     0.35353   0.98576   0.74542   0.00000  Uiso   1.00
C868   C     0.37189   0.84778   0.85251   0.00000  Uiso   1.00
C869   C     0.64001   0.68082   0.74032   0.00000  Uiso   1.00
C870   C     0.65111   0.73520   0.74889   0.00000  Uiso   1.00
C871   C     0.62958   0.82966   0.64548   0.00000  Uiso   1.00
C872   C     0.62173   0.81938   0.99426   0.00000  Uiso   1.00
C873   C     0.60863   0.83153   0.58648   0.00000  Uiso   1.00
C874   C     0.36322   0.89854   0.93823   0.00000  Uiso   1.00
C875   C     0.38673   0.91613   0.99308   0.00000  Uiso   1.00
C876   C     0.47950   0.88007   0.98913   0.00000  Uiso   1.00
C877   C     0.44375   0.90506   0.52024   0.00000  Uiso   1.00
C878   C     0.46322   0.75663   0.66073   0.00000  Uiso   1.00
C879   C     0.43572   0.91207   0.61578   0.00000  Uiso   1.00
C880   C     0.45851   0.87456   0.93138   0.00000  Uiso   1.00
C881   C     0.53489   0.86006   0.51097   0.00000  Uiso   1.00
C882   C     0.56956   0.84297   0.97458   0.00000  Uiso   1.00
C883   C     0.55212   0.85061   0.91885   0.00000  Uiso   1.00
C884   C     0.49920   0.87046   0.89861   0.00000  Uiso   1.00
C885   C     0.55455   0.85174   0.56660   0.00000  Uiso   1.00
C886   C     0.64205   0.81482   0.55039   0.00000  Uiso   1.00
Cl887  Cl    0.56503   0.99042   0.71799   0.00000  Uiso   1.00
H888   H     0.35003   0.79794   0.56544   0.00000  Uiso   1.00
H889   H     0.48808   0.74299   0.74359   0.00000  Uiso   1.00
H890   H     0.48028   0.72037   0.64711   0.00000  Uiso   1.00
H891   H     0.47123   0.78753   0.63319   0.00000  Uiso   1.00
H892   H     0.41544   0.74922   0.65704   0.00000  Uiso   1.00
H893   H     0.47730   0.96685   0.57623   0.00000  Uiso   1.00
H894   H     0.46248   0.92452   0.65770   0.00000  Uiso   1.00
H895   H     0.42719   0.86914   0.61353   0.00000  Uiso   1.00
H896   H     0.39359   0.93073   0.60960   0.00000  Uiso   1.00
H897   H     0.51008   0.88303   0.77769   0.00000  Uiso   1.00
H898   H     0.57870   0.84055   0.89069   0.00000  Uiso   1.00
H899   H     0.64731   0.80539   0.96632   0.00000  Uiso   1.00
H900   H     0.52766   0.85923   0.59503   0.00000  Uiso   1.00
H901   H     0.65207   0.90604   0.91900   0.00000  Uiso   1.00
H902   H     0.35987   0.93763   0.51472   0.00000  Uiso   1.00
H903   H     0.48988   0.88219   0.85702   0.00000  Uiso   1.00
H904   H     0.39839   0.66973   0.75430   0.00000  Uiso   1.00
N905   N     0.47827   0.81890   0.73543   0.00000  Uiso   1.00
N906   N     0.52173   0.84777   0.76458   0.00000  Uiso   1.00
N907   N     0.49309   0.77172   0.71722   0.00000  Uiso   1.00
N908   N     0.46742   0.92719   0.57487   0.00000  Uiso   1.00
O909   O     0.63102   0.91296   0.75358   0.00000  Uiso   1.00
O910   O     0.39075   0.90371   0.74424   0.00000  Uiso   1.00
O911   O     0.64823   0.84024   0.83380   0.00000  Uiso   1.00
O912   O     0.40796   0.83099   0.82446   0.00000  Uiso   1.00
O913   O     0.60925   0.76296   0.75577   0.00000  Uiso   1.00
O914   O     0.36898   0.75371   0.74643   0.00000  Uiso   1.00
O915   O     0.59204   0.83567   0.67554   0.00000  Uiso   1.00
O916   O     0.35177   0.82642   0.66620   0.00000  Uiso   1.00
Zn917  Zn    0.60453   0.83951   0.75624   0.00000  Uiso   1.00
Zn918  Zn    0.39547   0.82716   0.74377   0.00000  Uiso   1.00
C919   C     0.68030   0.93127   0.74636   0.00000  Uiso   1.00
C920   C     0.73114   0.87355   0.90806   0.00000  Uiso   1.00
C921   C     0.68686   0.98576   0.74542   0.00000  Uiso   1.00
C922   C     0.70523   0.84778   0.85251   0.00000  Uiso   1.00
C923   C     0.97334   0.68082   0.74032   0.00000  Uiso   1.00
C924   C     0.98444   0.73520   0.74889   0.00000  Uiso   1.00
C925   C     0.96291   0.82966   0.64548   0.00000  Uiso   1.00
C926   C     0.95507   0.81938   0.99426   0.00000  Uiso   1.00
C927   C     0.94196   0.83153   0.58648   0.00000  Uiso   1.00
C928   C     0.69656   0.89854   0.93823   0.00000  Uiso   1.00
C929   C     0.72006   0.91613   0.99308   0.00000  Uiso   1.00
C930   C     0.81284   0.88007   0.98913   0.00000  Uiso   1.00
C931   C     0.77708   0.90506   0.52024   0.00000  Uiso   1.00
C932   C     0.79656   0.75663   0.66073   0.00000  Uiso   1.00
C933   C     0.76906   0.91207   0.61578   0.00000  Uiso   1.00
C934   C     0.79185   0.87456   0.93138   0.00000  Uiso   1.00
C935   C     0.86823   0.86006   0.51097   0.00000  Uiso   1.00
C936   C     0.90289   0.84297   0.97458   0.00000  Uiso   1.00
C937   C     0.88545   0.85061   0.91885   0.00000  Uiso   1.00
C938   C     0.83253   0.87046   0.89861   0.00000  Uiso   1.00
C939   C     0.88788   0.85174   0.56660   0.00000  Uiso   1.00
C940   C     0.97538   0.81482   0.55039   0.00000  Uiso   1.00
Cl941  Cl    0.89836   0.99042   0.71799   0.00000  Uiso   1.00
H942   H     0.68336   0.79794   0.56544   0.00000  Uiso   1.00
H943   H     0.82141   0.74299   0.74359   0.00000  Uiso   1.00
H944   H     0.81361   0.72037   0.64711   0.00000  Uiso   1.00
H945   H     0.80456   0.78753   0.63319   0.00000  Uiso   1.00
H946   H     0.74877   0.74922   0.65704   0.00000  Uiso   1.00
H947   H     0.81064   0.96685   0.57623   0.00000  Uiso   1.00
H948   H     0.79581   0.92452   0.65770   0.00000  Uiso   1.00
H949   H     0.76052   0.86914   0.61353   0.00000  Uiso   1.00
H950   H     0.72692   0.93073   0.60960   0.00000  Uiso   1.00
H951   H     0.84341   0.88303   0.77769   0.00000  Uiso   1.00
H952   H     0.91203   0.84055   0.89069   0.00000  Uiso   1.00
H953   H     0.98065   0.80539   0.96632   0.00000  Uiso   1.00
H954   H     0.86100   0.85923   0.59503   0.00000  Uiso   1.00
H955   H     0.98541   0.90604   0.91900   0.00000  Uiso   1.00
H956   H     0.69320   0.93763   0.51472   0.00000  Uiso   1.00
H957   H     0.82322   0.88219   0.85702   0.00000  Uiso   1.00
H958   H     0.73173   0.66973   0.75430   0.00000  Uiso   1.00
N959   N     0.81160   0.81890   0.73543   0.00000  Uiso   1.00
N960   N     0.85507   0.84777   0.76458   0.00000  Uiso   1.00
N961   N     0.82643   0.77172   0.71722   0.00000  Uiso   1.00
N962   N     0.80076   0.92719   0.57487   0.00000  Uiso   1.00
O963   O     0.96435   0.91296   0.75358   0.00000  Uiso   1.00
O964   O     0.72408   0.90371   0.74424   0.00000  Uiso   1.00
O965   O     0.98157   0.84024   0.83380   0.00000  Uiso   1.00
O966   O     0.74130   0.83099   0.82446   0.00000  Uiso   1.00
O967   O     0.94258   0.76296   0.75577   0.00000  Uiso   1.00
O968   O     0.70231   0.75371   0.74643   0.00000  Uiso   1.00
O969   O     0.92537   0.83567   0.67554   0.00000  Uiso   1.00
O970   O     0.68510   0.82642   0.66620   0.00000  Uiso   1.00
Zn971  Zn    0.93786   0.83951   0.75624   0.00000  Uiso   1.00
Zn972  Zn    0.72881   0.82716   0.74377   0.00000  Uiso   1.00
loop_
_geom_bond_atom_site_label_1
_geom_bond_atom_site_label_2
_geom_bond_distance
_geom_bond_site_symmetry_2
_ccdc_geom_bond_type
C1     O46     1.297   .     A
C1     C3      1.405   .     S
C1     O153    1.278   1_455 S
C2     C4      1.484   .     S
C2     C10     1.395   .     A
C2     C16     1.409   .     A
C3     C275    1.346   1_455 S
C3     H202    1.088   .     S
C4     O48     1.299   .     A
C4     O155    1.311   1_455 S
C5     C6      1.407   .     S
C5     C381    1.346   1_545 S
C5     Cl347   1.780   1_545 S
C6     O49     1.291   .     A
C6     O104    1.283   .     S
C7     O51     1.295   .     A
C7     C9      1.442   .     S
C7     O106    1.297   .     S
C8     H35     1.084   .     S
C8     C18     1.399   .     A
C8     C508    1.382   .     S
C9     C21     1.396   .     A
C9     C22     1.395   .     A
C10    C11     1.393   .     A
C10    H145    1.078   1_455 S
C11    C499    1.408   .     S
C11    H524    1.082   .     S
C12    C16     1.406   .     A
C12    C499    1.431   .     S
C12    C503    1.429   .     S
C13    N44     1.423   .     S
C13    C497    1.408   1_554 S
C13    C498    1.431   1_554 S
C14    H27     1.109   .     S
C14    H28     1.109   .     S
C14    H26     1.109   .     S
C14    N43     1.443   .     S
C15    N44     1.448   .     S
C15    H31     1.109   .     S
C15    H32     1.110   .     S
C15    H30     1.109   .     S
C16    C20     1.400   .     A
C17    C21     1.387   .     A
C17    C498    1.429   1_554 S
C17    C504    1.425   1_554 S
C18    C19     1.381   .     A
C18    C503    1.425   .     S
C19    C20     1.370   .     A
C19    H34     1.076   .     S
C20    H39     1.070   .     S
C21    H36     1.072   .     S
C22    C494    1.382   1_554 S
C22    H78     1.083   .     S
Cl23   C167    1.780   .     S
H24    C130    1.083   1_455 S
H25    N43     1.031   .     S
H29    N44     1.031   .     S
H33    N42     1.027   .     S
H37    C64     1.078   .     S
H38    C497    1.082   1_554 S
H40    C327    1.088   1_545 S
N41    N42     1.279   .     D
N41    N43     1.372   .     S
N41    Zn54    2.028   .     S
N42    Zn53    2.028   .     S
O45    Zn53    1.964   .     S
O45    C55     1.278   .     S
O46    Zn54    1.983   .     S
O47    Zn53    1.966   .     S
O47    C58     1.311   .     S
O48    Zn54    1.960   .     S
O49    Zn53    1.983   .     S
O50    Zn54    1.964   .     S
O50    C114    1.283   1_455 S
O51    Zn53    1.960   .     S
O52    Zn54    1.966   .     S
O52    C115    1.297   1_455 S
C55    O100    1.297   .     A
C55    C57     1.405   .     S
C56    C58     1.484   .     S
C56    C64     1.395   .     A
C56    C70     1.409   .     A
C57    C167    1.346   .     S
C57    H256    1.088   .     S
C58    O102    1.299   .     A
C59    C60     1.407   .     S
C59    C435    1.346   1_545 S
C59    Cl401   1.780   1_545 S
C60    O103    1.291   .     A
C60    O158    1.283   .     S
C61    O105    1.295   .     A
C61    C63     1.442   .     S
C61    O160    1.297   .     S
C62    H89     1.084   .     S
C62    C72     1.399   .     A
C62    C562    1.382   .     S
C63    C75     1.396   .     A
C63    C76     1.395   .     A
C64    C65     1.393   .     A
C65    C553    1.408   .     S
C65    H578    1.082   .     S
C66    C70     1.406   .     A
C66    C553    1.431   .     S
C66    C557    1.429   .     S
C67    N98     1.423   .     S
C67    C551    1.408   1_554 S
C67    C552    1.431   1_554 S
C68    H81     1.109   .     S
C68    H82     1.109   .     S
C68    H80     1.109   .     S
C68    N97     1.443   .     S
C69    N98     1.448   .     S
C69    H85     1.109   .     S
C69    H86     1.110   .     S
C69    H84     1.109   .     S
C70    C74     1.400   .     A
C71    C75     1.387   .     A
C71    C552    1.429   1_554 S
C71    C558    1.425   1_554 S
C72    C73     1.381   .     A
C72    C557    1.425   .     S
C73    C74     1.370   .     A
C73    H88     1.076   .     S
C74    H93     1.070   .     S
C75    H90     1.072   .     S
C76    C548    1.382   1_554 S
C76    H132    1.083   .     S
Cl77   C221    1.780   .     S
H79    N97     1.031   .     S
H83    N98     1.031   .     S
H87    N96     1.027   .     S
H91    C118    1.078   .     S
H92    C551    1.082   1_554 S
H94    C381    1.088   1_545 S
N95    N96     1.279   .     D
N95    N97     1.372   .     S
N95    Zn108   2.028   .     S
N96    Zn107   2.028   .     S
O99    Zn107   1.964   .     S
O99    C109    1.278   .     S
O100   Zn108   1.983   .     S
O101   Zn107   1.966   .     S
O101   C112    1.311   .     S
O102   Zn108   1.960   .     S
O103   Zn107   1.983   .     S
O104   Zn108   1.964   .     S
O105   Zn107   1.960   .     S
O106   Zn108   1.966   .     S
C109   O154    1.297   .     A
C109   C111    1.405   .     S
C110   C112    1.484   .     S
C110   C118    1.395   .     A
C110   C124    1.409   .     A
C111   C221    1.346   .     S
C111   H310    1.088   .     S
C112   O156    1.299   .     A
C113   C114    1.407   .     S
C113   C327    1.346   1_645 S
C113   Cl455   1.780   1_545 S
C114   O157    1.291   .     A
C114   O50     1.283   1_655 S
C115   O159    1.295   .     A
C115   C117    1.442   .     S
C115   O52     1.297   1_655 S
C116   H143    1.084   .     S
C116   C126    1.399   .     A
C116   C616    1.382   .     S
C117   C129    1.396   .     A
C117   C130    1.395   .     A
C118   C119    1.393   .     A
C119   C607    1.408   .     S
C119   H632    1.082   .     S
C120   C124    1.406   .     A
C120   C607    1.431   .     S
C120   C611    1.429   .     S
C121   N152    1.423   .     S
C121   C605    1.408   1_554 S
C121   C606    1.431   1_554 S
C122   H135    1.109   .     S
C122   H136    1.109   .     S
C122   H134    1.109   .     S
C122   N151    1.443   .     S
C123   N152    1.448   .     S
C123   H139    1.109   .     S
C123   H140    1.110   .     S
C123   H138    1.109   .     S
C124   C128    1.400   .     A
C125   C129    1.387   .     A
C125   C606    1.429   1_554 S
C125   C612    1.425   1_554 S
C126   C127    1.381   .     A
C126   C611    1.425   .     S
C127   C128    1.370   .     A
C127   H142    1.076   .     S
C128   H147    1.070   .     S
C129   H144    1.072   .     S
C130   C602    1.382   1_554 S
C130   H24     1.083   1_655 S
Cl131  C275    1.780   .     S
H133   N151    1.031   .     S
H137   N152    1.031   .     S
H141   N150    1.027   .     S
H145   C10     1.078   1_655 S
H146   C605    1.082   1_554 S
H148   C435    1.088   1_545 S
N149   N150    1.279   .     D
N149   N151    1.372   .     S
N149   Zn162   2.028   .     S
N150   Zn161   2.028   .     S
O153   Zn161   1.964   .     S
O153   C1      1.278   1_655 S
O154   Zn162   1.983   .     S
O155   Zn161   1.966   .     S
O155   C4      1.311   1_655 S
O156   Zn162   1.960   .     S
O157   Zn161   1.983   .     S
O158   Zn162   1.964   .     S
O159   Zn161   1.960   .     S
O160   Zn162   1.966   .     S
C163   O208    1.297   .     A
C163   C165    1.405   .     S
C163   O315    1.278   1_455 S
C164   C166    1.484   .     S
C164   C172    1.395   .     A
C164   C178    1.409   .     A
C165   C437    1.346   1_455 S
C165   H364    1.088   .     S
C166   O210    1.299   .     A
C166   O317    1.311   1_455 S
C167   C168    1.407   .     S
C168   O211    1.291   .     A
C168   O266    1.283   .     S
C169   O213    1.295   .     A
C169   C171    1.442   .     S
C169   O268    1.297   .     S
C170   H197    1.084   .     S
C170   C180    1.399   .     A
C170   C670    1.382   .     S
C171   C183    1.396   .     A
C171   C184    1.395   .     A
C172   C173    1.393   .     A
C172   H307    1.078   1_455 S
C173   C661    1.408   .     S
C173   H686    1.082   .     S
C174   C178    1.406   .     A
C174   C661    1.431   .     S
C174   C665    1.429   .     S
C175   N206    1.423   .     S
C175   C659    1.408   1_554 S
C175   C660    1.431   1_554 S
C176   H189    1.109   .     S
C176   H190    1.109   .     S
C176   H188    1.109   .     S
C176   N205    1.443   .     S
C177   N206    1.448   .     S
C177   H193    1.109   .     S
C177   H194    1.110   .     S
C177   H192    1.109   .     S
C178   C182    1.400   .     A
C179   C183    1.387   .     A
C179   C660    1.429   1_554 S
C179   C666    1.425   1_554 S
C180   C181    1.381   .     A
C180   C665    1.425   .     S
C181   C182    1.370   .     A
C181   H196    1.076   .     S
C182   H201    1.070   .     S
C183   H198    1.072   .     S
C184   C656    1.382   1_554 S
C184   H240    1.083   .     S
Cl185  C329    1.780   .     S
H186   C292    1.083   1_455 S
H187   N205    1.031   .     S
H191   N206    1.031   .     S
H195   N204    1.027   .     S
H199   C226    1.078   .     S
H200   C659    1.082   1_554 S
N203   N204    1.279   .     D
N203   N205    1.372   .     S
N203   Zn216   2.028   .     S
N204   Zn215   2.028   .     S
O207   Zn215   1.964   .     S
O207   C217    1.278   .     S
O208   Zn216   1.983   .     S
O209   Zn215   1.966   .     S
O209   C220    1.311   .     S
O210   Zn216   1.960   .     S
O211   Zn215   1.983   .     S
O212   Zn216   1.964   .     S
O212   C276    1.283   1_455 S
O213   Zn215   1.960   .     S
O214   Zn216   1.966   .     S
O214   C277    1.297   1_455 S
C217   O262    1.297   .     A
C217   C219    1.405   .     S
C218   C220    1.484   .     S
C218   C226    1.395   .     A
C218   C232    1.409   .     A
C219   C329    1.346   .     S
C219   H418    1.088   .     S
C220   O264    1.299   .     A
C221   C222    1.407   .     S
C222   O265    1.291   .     A
C222   O320    1.283   .     S
C223   O267    1.295   .     A
C223   C225    1.442   .     S
C223   O322    1.297   .     S
C224   H251    1.084   .     S
C224   C234    1.399   .     A
C224   C724    1.382   .     S
C225   C237    1.396   .     A
C225   C238    1.395   .     A
C226   C227    1.393   .     A
C227   C715    1.408   .     S
C227   H740    1.082   .     S
C228   C232    1.406   .     A
C228   C715    1.431   .     S
C228   C719    1.429   .     S
C229   N260    1.423   .     S
C229   C713    1.408   1_554 S
C229   C714    1.431   1_554 S
C230   H243    1.109   .     S
C230   H244    1.109   .     S
C230   H242    1.109   .     S
C230   N259    1.443   .     S
C231   N260    1.448   .     S
C231   H247    1.109   .     S
C231   H248    1.110   .     S
C231   H246    1.109   .     S
C232   C236    1.400   .     A
C233   C237    1.387   .     A
C233   C714    1.429   1_554 S
C233   C720    1.425   1_554 S
C234   C235    1.381   .     A
C234   C719    1.425   .     S
C235   C236    1.370   .     A
C235   H250    1.076   .     S
C236   H255    1.070   .     S
C237   H252    1.072   .     S
C238   C710    1.382   1_554 S
C238   H294    1.083   .     S
Cl239  C383    1.780   .     S
H241   N259    1.031   .     S
H245   N260    1.031   .     S
H249   N258    1.027   .     S
H253   C280    1.078   .     S
H254   C713    1.082   1_554 S
N257   N258    1.279   .     D
N257   N259    1.372   .     S
N257   Zn270   2.028   .     S
N258   Zn269   2.028   .     S
O261   Zn269   1.964   .     S
O261   C271    1.278   .     S
O262   Zn270   1.983   .     S
O263   Zn269   1.966   .     S
O263   C274    1.311   .     S
O264   Zn270   1.960   .     S
O265   Zn269   1.983   .     S
O266   Zn270   1.964   .     S
O267   Zn269   1.960   .     S
O268   Zn270   1.966   .     S
C271   O316    1.297   .     A
C271   C273    1.405   .     S
C272   C274    1.484   .     S
C272   C280    1.395   .     A
C272   C286    1.409   .     A
C273   C383    1.346   .     S
C273   H472    1.088   .     S
C274   O318    1.299   .     A
C275   C276    1.407   .     S
C275   C3      1.346   1_655 S
C276   O319    1.291   .     A
C276   O212    1.283   1_655 S
C277   O321    1.295   .     A
C277   C279    1.442   .     S
C277   O214    1.297   1_655 S
C278   H305    1.084   .     S
C278   C288    1.399   .     A
C278   C778    1.382   .     S
C279   C291    1.396   .     A
C279   C292    1.395   .     A
C280   C281    1.393   .     A
C281   C769    1.408   .     S
C281   H794    1.082   .     S
C282   C286    1.406   .     A
C282   C769    1.431   .     S
C282   C773    1.429   .     S
C283   N314    1.423   .     S
C283   C767    1.408   1_554 S
C283   C768    1.431   1_554 S
C284   H297    1.109   .     S
C284   H298    1.109   .     S
C284   H296    1.109   .     S
C284   N313    1.443   .     S
C285   N314    1.448   .     S
C285   H301    1.109   .     S
C285   H302    1.110   .     S
C285   H300    1.109   .     S
C286   C290    1.400   .     A
C287   C291    1.387   .     A
C287   C768    1.429   1_554 S
C287   C774    1.425   1_554 S
C288   C289    1.381   .     A
C288   C773    1.425   .     S
C289   C290    1.370   .     A
C289   H304    1.076   .     S
C290   H309    1.070   .     S
C291   H306    1.072   .     S
C292   C764    1.382   1_554 S
C292   H186    1.083   1_655 S
Cl293  C437    1.780   .     S
H295   N313    1.031   .     S
H299   N314    1.031   .     S
H303   N312    1.027   .     S
H307   C172    1.078   1_655 S
H308   C767    1.082   1_554 S
N311   N312    1.279   .     D
N311   N313    1.372   .     S
N311   Zn324   2.028   .     S
N312   Zn323   2.028   .     S
O315   Zn323   1.964   .     S
O315   C163    1.278   1_655 S
O316   Zn324   1.983   .     S
O317   Zn323   1.966   .     S
O317   C166    1.311   1_655 S
O318   Zn324   1.960   .     S
O319   Zn323   1.983   .     S
O320   Zn324   1.964   .     S
O321   Zn323   1.960   .     S
O322   Zn324   1.966   .     S
C325   O370    1.297   .     A
C325   C327    1.405   .     S
C325   O477    1.278   1_455 S
C326   C328    1.484   .     S
C326   C334    1.395   .     A
C326   C340    1.409   .     A
C327   C113    1.346   1_465 S
C327   H40     1.088   1_565 S
C328   O372    1.299   .     A
C328   O479    1.311   1_455 S
C329   C330    1.407   .     S
C330   O373    1.291   .     A
C330   O428    1.283   .     S
C331   O375    1.295   .     A
C331   C333    1.442   .     S
C331   O430    1.297   .     S
C332   H359    1.084   .     S
C332   C342    1.399   .     A
C332   C832    1.382   .     S
C333   C345    1.396   .     A
C333   C346    1.395   .     A
C334   C335    1.393   .     A
C334   H469    1.078   1_455 S
C335   C823    1.408   .     S
C335   H848    1.082   .     S
C336   C340    1.406   .     A
C336   C823    1.431   .     S
C336   C827    1.429   .     S
C337   N368    1.423   .     S
C337   C821    1.408   1_554 S
C337   C822    1.431   1_554 S
C338   H351    1.109   .     S
C338   H352    1.109   .     S
C338   H350    1.109   .     S
C338   N367    1.443   .     S
C339   N368    1.448   .     S
C339   H355    1.109   .     S
C339   H356    1.110   .     S
C339   H354    1.109   .     S
C340   C344    1.400   .     A
C341   C345    1.387   .     A
C341   C822    1.429   1_554 S
C341   C828    1.425   1_554 S
C342   C343    1.381   .     A
C342   C827    1.425   .     S
C343   C344    1.370   .     A
C343   H358    1.076   .     S
C344   H363    1.070   .     S
C345   H360    1.072   .     S
C346   C818    1.382   1_554 S
C346   H402    1.083   .     S
Cl347  C5      1.780   1_565 S
H348   C454    1.083   1_455 S
H349   N367    1.031   .     S
H353   N368    1.031   .     S
H357   N366    1.027   .     S
H361   C388    1.078   .     S
H362   C821    1.082   1_554 S
N365   N366    1.279   .     D
N365   N367    1.372   .     S
N365   Zn378   2.028   .     S
N366   Zn377   2.028   .     S
O369   Zn377   1.964   .     S
O369   C379    1.278   .     S
O370   Zn378   1.983   .     S
O371   Zn377   1.966   .     S
O371   C382    1.311   .     S
O372   Zn378   1.960   .     S
O373   Zn377   1.983   .     S
O374   Zn378   1.964   .     S
O374   C438    1.283   1_455 S
O375   Zn377   1.960   .     S
O376   Zn378   1.966   .     S
O376   C439    1.297   1_455 S
C379   O424    1.297   .     A
C379   C381    1.405   .     S
C380   C382    1.484   .     S
C380   C388    1.395   .     A
C380   C394    1.409   .     A
C381   C5      1.346   1_565 S
C381   H94     1.088   1_565 S
C382   O426    1.299   .     A
C383   C384    1.407   .     S
C384   O427    1.291   .     A
C384   O482    1.283   .     S
C385   O429    1.295   .     A
C385   C387    1.442   .     S
C385   O484    1.297   .     S
C386   H413    1.084   .     S
C386   C396    1.399   .     A
C386   C886    1.382   .     S
C387   C399    1.396   .     A
C387   C400    1.395   .     A
C388   C389    1.393   .     A
C389   C877    1.408   .     S
C389   H902    1.082   .     S
C390   C394    1.406   .     A
C390   C877    1.431   .     S
C390   C881    1.429   .     S
C391   N422    1.423   .     S
C391   C875    1.408   1_554 S
C391   C876    1.431   1_554 S
C392   H405    1.109   .     S
C392   H406    1.109   .     S
C392   H404    1.109   .     S
C392   N421    1.443   .     S
C393   N422    1.448   .     S
C393   H409    1.109   .     S
C393   H410    1.110   .     S
C393   H408    1.109   .     S
C394   C398    1.400   .     A
C395   C399    1.387   .     A
C395   C876    1.429   1_554 S
C395   C882    1.425   1_554 S
C396   C397    1.381   .     A
C396   C881    1.425   .     S
C397   C398    1.370   .     A
C397   H412    1.076   .     S
C398   H417    1.070   .     S
C399   H414    1.072   .     S
C400   C872    1.382   1_554 S
C400   H456    1.083   .     S
Cl401  C59     1.780   1_565 S
H403   N421    1.031   .     S
H407   N422    1.031   .     S
H411   N420    1.027   .     S
H415   C442    1.078   .     S
H416   C875    1.082   1_554 S
N419   N420    1.279   .     D
N419   N421    1.372   .     S
N419   Zn432   2.028   .     S
N420   Zn431   2.028   .     S
O423   Zn431   1.964   .     S
O423   C433    1.278   .     S
O424   Zn432   1.983   .     S
O425   Zn431   1.966   .     S
O425   C436    1.311   .     S
O426   Zn432   1.960   .     S
O427   Zn431   1.983   .     S
O428   Zn432   1.964   .     S
O429   Zn431   1.960   .     S
O430   Zn432   1.966   .     S
C433   O478    1.297   .     A
C433   C435    1.405   .     S
C434   C436    1.484   .     S
C434   C442    1.395   .     A
C434   C448    1.409   .     A
C435   C59     1.346   1_565 S
C435   H148    1.088   1_565 S
C436   O480    1.299   .     A
C437   C438    1.407   .     S
C437   C165    1.346   1_655 S
C438   O481    1.291   .     A
C438   O374    1.283   1_655 S
C439   O483    1.295   .     A
C439   C441    1.442   .     S
C439   O376    1.297   1_655 S
C440   H467    1.084   .     S
C440   C450    1.399   .     A
C440   C940    1.382   .     S
C441   C453    1.396   .     A
C441   C454    1.395   .     A
C442   C443    1.393   .     A
C443   C931    1.408   .     S
C443   H956    1.082   .     S
C444   C448    1.406   .     A
C444   C931    1.431   .     S
C444   C935    1.429   .     S
C445   N476    1.423   .     S
C445   C929    1.408   1_554 S
C445   C930    1.431   1_554 S
C446   H459    1.109   .     S
C446   H460    1.109   .     S
C446   H458    1.109   .     S
C446   N475    1.443   .     S
C447   N476    1.448   .     S
C447   H463    1.109   .     S
C447   H464    1.110   .     S
C447   H462    1.109   .     S
C448   C452    1.400   .     A
C449   C453    1.387   .     A
C449   C930    1.429   1_554 S
C449   C936    1.425   1_554 S
C450   C451    1.381   .     A
C450   C935    1.425   .     S
C451   C452    1.370   .     A
C451   H466    1.076   .     S
C452   H471    1.070   .     S
C453   H468    1.072   .     S
C454   C926    1.382   1_554 S
C454   H348    1.083   1_655 S
Cl455  C113    1.780   1_565 S
H457   N475    1.031   .     S
H461   N476    1.031   .     S
H465   N474    1.027   .     S
H469   C334    1.078   1_655 S
H470   C929    1.082   1_554 S
N473   N474    1.279   .     D
N473   N475    1.372   .     S
N473   Zn486   2.028   .     S
N474   Zn485   2.028   .     S
O477   Zn485   1.964   .     S
O477   C325    1.278   1_655 S
O478   Zn486   1.983   .     S
O479   Zn485   1.966   .     S
O479   C328    1.311   1_655 S
O480   Zn486   1.960   .     S
O481   Zn485   1.983   .     S
O482   Zn486   1.964   .     S
O483   Zn485   1.960   .     S
O484   Zn486   1.966   .     S
C487   O532    1.297   .     A
C487   C489    1.405   .     S
C487   O639    1.278   1_455 S
C488   C490    1.484   .     S
C488   C496    1.395   .     A
C488   C502    1.409   .     A
C489   C761    1.346   1_455 S
C489   H688    1.088   .     S
C490   O534    1.299   .     A
C490   O641    1.311   1_455 S
C491   C492    1.407   .     S
C491   C867    1.346   1_545 S
C491   Cl833   1.780   1_545 S
C492   O535    1.291   .     A
C492   O590    1.283   .     S
C493   O537    1.295   .     A
C493   C495    1.442   .     S
C493   O592    1.297   .     S
C494   H521    1.084   .     S
C494   C504    1.399   .     A
C494   C22     1.382   1_556 S
C495   C507    1.396   .     A
C495   C508    1.395   .     A
C496   C497    1.393   .     A
C496   H631    1.078   1_455 S
C497   C13     1.408   1_556 S
C497   H38     1.082   1_556 S
C498   C502    1.406   .     A
C498   C13     1.431   1_556 S
C498   C17     1.429   1_556 S
C499   N530    1.423   .     S
C500   H513    1.109   .     S
C500   H514    1.109   .     S
C500   H512    1.109   .     S
C500   N529    1.443   .     S
C501   N530    1.448   .     S
C501   H517    1.109   .     S
C501   H518    1.110   .     S
C501   H516    1.109   .     S
C502   C506    1.400   .     A
C503   C507    1.387   .     A
C504   C505    1.381   .     A
C504   C17     1.425   1_556 S
C505   C506    1.370   .     A
C505   H520    1.076   .     S
C506   H525    1.070   .     S
C507   H522    1.072   .     S
C508   H564    1.083   .     S
Cl509  C653    1.780   .     S
H510   C616    1.083   1_455 S
H511   N529    1.031   .     S
H515   N530    1.031   .     S
H519   N528    1.027   .     S
H523   C550    1.078   .     S
H526   C813    1.088   1_545 S
N527   N528    1.279   .     D
N527   N529    1.372   .     S
N527   Zn540   2.028   .     S
N528   Zn539   2.028   .     S
O531   Zn539   1.964   .     S
O531   C541    1.278   .     S
O532   Zn540   1.983   .     S
O533   Zn539   1.966   .     S
O533   C544    1.311   .     S
O534   Zn540   1.960   .     S
O535   Zn539   1.983   .     S
O536   Zn540   1.964   .     S
O536   C600    1.283   1_455 S
O537   Zn539   1.960   .     S
O538   Zn540   1.966   .     S
O538   C601    1.297   1_455 S
C541   O586    1.297   .     A
C541   C543    1.405   .     S
C542   C544    1.484   .     S
C542   C550    1.395   .     A
C542   C556    1.409   .     A
C543   C653    1.346   .     S
C543   H742    1.088   .     S
C544   O588    1.299   .     A
C545   C546    1.407   .     S
C545   C921    1.346   1_545 S
C545   Cl887   1.780   1_545 S
C546   O589    1.291   .     A
C546   O644    1.283   .     S
C547   O591    1.295   .     A
C547   C549    1.442   .     S
C547   O646    1.297   .     S
C548   H575    1.084   .     S
C548   C558    1.399   .     A
C548   C76     1.382   1_556 S
C549   C561    1.396   .     A
C549   C562    1.395   .     A
C550   C551    1.393   .     A
C551   C67     1.408   1_556 S
C551   H92     1.082   1_556 S
C552   C556    1.406   .     A
C552   C67     1.431   1_556 S
C552   C71     1.429   1_556 S
C553   N584    1.423   .     S
C554   H567    1.109   .     S
C554   H568    1.109   .     S
C554   H566    1.109   .     S
C554   N583    1.443   .     S
C555   N584    1.448   .     S
C555   H571    1.109   .     S
C555   H572    1.110   .     S
C555   H570    1.109   .     S
C556   C560    1.400   .     A
C557   C561    1.387   .     A
C558   C559    1.381   .     A
C558   C71     1.425   1_556 S
C559   C560    1.370   .     A
C559   H574    1.076   .     S
C560   H579    1.070   .     S
C561   H576    1.072   .     S
C562   H618    1.083   .     S
Cl563  C707    1.780   .     S
H565   N583    1.031   .     S
H569   N584    1.031   .     S
H573   N582    1.027   .     S
H577   C604    1.078   .     S
H580   C867    1.088   1_545 S
N581   N582    1.279   .     D
N581   N583    1.372   .     S
N581   Zn594   2.028   .     S
N582   Zn593   2.028   .     S
O585   Zn593   1.964   .     S
O585   C595    1.278   .     S
O586   Zn594   1.983   .     S
O587   Zn593   1.966   .     S
O587   C598    1.311   .     S
O588   Zn594   1.960   .     S
O589   Zn593   1.983   .     S
O590   Zn594   1.964   .     S
O591   Zn593   1.960   .     S
O592   Zn594   1.966   .     S
C595   O640    1.297   .     A
C595   C597    1.405   .     S
C596   C598    1.484   .     S
C596   C604    1.395   .     A
C596   C610    1.409   .     A
C597   C707    1.346   .     S
C597   H796    1.088   .     S
C598   O642    1.299   .     A
C599   C600    1.407   .     S
C599   C813    1.346   1_645 S
C599   Cl941   1.780   1_545 S
C600   O643    1.291   .     A
C600   O536    1.283   1_655 S
C601   O645    1.295   .     A
C601   C603    1.442   .     S
C601   O538    1.297   1_655 S
C602   H629    1.084   .     S
C602   C612    1.399   .     A
C602   C130    1.382   1_556 S
C603   C615    1.396   .     A
C603   C616    1.395   .     A
C604   C605    1.393   .     A
C605   C121    1.408   1_556 S
C605   H146    1.082   1_556 S
C606   C610    1.406   .     A
C606   C121    1.431   1_556 S
C606   C125    1.429   1_556 S
C607   N638    1.423   .     S
C608   H621    1.109   .     S
C608   H622    1.109   .     S
C608   H620    1.109   .     S
C608   N637    1.443   .     S
C609   N638    1.448   .     S
C609   H625    1.109   .     S
C609   H626    1.110   .     S
C609   H624    1.109   .     S
C610   C614    1.400   .     A
C611   C615    1.387   .     A
C612   C613    1.381   .     A
C612   C125    1.425   1_556 S
C613   C614    1.370   .     A
C613   H628    1.076   .     S
C614   H633    1.070   .     S
C615   H630    1.072   .     S
C616   H510    1.083   1_655 S
Cl617  C761    1.780   .     S
H619   N637    1.031   .     S
H623   N638    1.031   .     S
H627   N636    1.027   .     S
H631   C496    1.078   1_655 S
H634   C921    1.088   1_545 S
N635   N636    1.279   .     D
N635   N637    1.372   .     S
N635   Zn648   2.028   .     S
N636   Zn647   2.028   .     S
O639   Zn647   1.964   .     S
O639   C487    1.278   1_655 S
O640   Zn648   1.983   .     S
O641   Zn647   1.966   .     S
O641   C490    1.311   1_655 S
O642   Zn648   1.960   .     S
O643   Zn647   1.983   .     S
O644   Zn648   1.964   .     S
O645   Zn647   1.960   .     S
O646   Zn648   1.966   .     S
C649   O694    1.297   .     A
C649   C651    1.405   .     S
C649   O801    1.278   1_455 S
C650   C652    1.484   .     S
C650   C658    1.395   .     A
C650   C664    1.409   .     A
C651   C923    1.346   1_455 S
C651   H850    1.088   .     S
C652   O696    1.299   .     A
C652   O803    1.311   1_455 S
C653   C654    1.407   .     S
C654   O697    1.291   .     A
C654   O752    1.283   .     S
C655   O699    1.295   .     A
C655   C657    1.442   .     S
C655   O754    1.297   .     S
C656   H683    1.084   .     S
C656   C666    1.399   .     A
C656   C184    1.382   1_556 S
C657   C669    1.396   .     A
C657   C670    1.395   .     A
C658   C659    1.393   .     A
C658   H793    1.078   1_455 S
C659   C175    1.408   1_556 S
C659   H200    1.082   1_556 S
C660   C664    1.406   .     A
C660   C175    1.431   1_556 S
C660   C179    1.429   1_556 S
C661   N692    1.423   .     S
C662   H675    1.109   .     S
C662   H676    1.109   .     S
C662   H674    1.109   .     S
C662   N691    1.443   .     S
C663   N692    1.448   .     S
C663   H679    1.109   .     S
C663   H680    1.110   .     S
C663   H678    1.109   .     S
C664   C668    1.400   .     A
C665   C669    1.387   .     A
C666   C667    1.381   .     A
C666   C179    1.425   1_556 S
C667   C668    1.370   .     A
C667   H682    1.076   .     S
C668   H687    1.070   .     S
C669   H684    1.072   .     S
C670   H726    1.083   .     S
Cl671  C815    1.780   .     S
H672   C778    1.083   1_455 S
H673   N691    1.031   .     S
H677   N692    1.031   .     S
H681   N690    1.027   .     S
H685   C712    1.078   .     S
N689   N690    1.279   .     D
N689   N691    1.372   .     S
N689   Zn702   2.028   .     S
N690   Zn701   2.028   .     S
O693   Zn701   1.964   .     S
O693   C703    1.278   .     S
O694   Zn702   1.983   .     S
O695   Zn701   1.966   .     S
O695   C706    1.311   .     S
O696   Zn702   1.960   .     S
O697   Zn701   1.983   .     S
O698   Zn702   1.964   .     S
O698   C762    1.283   1_455 S
O699   Zn701   1.960   .     S
O700   Zn702   1.966   .     S
O700   C763    1.297   1_455 S
C703   O748    1.297   .     A
C703   C705    1.405   .     S
C704   C706    1.484   .     S
C704   C712    1.395   .     A
C704   C718    1.409   .     A
C705   C815    1.346   .     S
C705   H904    1.088   .     S
C706   O750    1.299   .     A
C707   C708    1.407   .     S
C708   O751    1.291   .     A
C708   O806    1.283   .     S
C709   O753    1.295   .     A
C709   C711    1.442   .     S
C709   O808    1.297   .     S
C710   H737    1.084   .     S
C710   C720    1.399   .     A
C710   C238    1.382   1_556 S
C711   C723    1.396   .     A
C711   C724    1.395   .     A
C712   C713    1.393   .     A
C713   C229    1.408   1_556 S
C713   H254    1.082   1_556 S
C714   C718    1.406   .     A
C714   C229    1.431   1_556 S
C714   C233    1.429   1_556 S
C715   N746    1.423   .     S
C716   H729    1.109   .     S
C716   H730    1.109   .     S
C716   H728    1.109   .     S
C716   N745    1.443   .     S
C717   N746    1.448   .     S
C717   H733    1.109   .     S
C717   H734    1.110   .     S
C717   H732    1.109   .     S
C718   C722    1.400   .     A
C719   C723    1.387   .     A
C720   C721    1.381   .     A
C720   C233    1.425   1_556 S
C721   C722    1.370   .     A
C721   H736    1.076   .     S
C722   H741    1.070   .     S
C723   H738    1.072   .     S
C724   H780    1.083   .     S
Cl725  C869    1.780   .     S
H727   N745    1.031   .     S
H731   N746    1.031   .     S
H735   N744    1.027   .     S
H739   C766    1.078   .     S
N743   N744    1.279   .     D
N743   N745    1.372   .     S
N743   Zn756   2.028   .     S
N744   Zn755   2.028   .     S
O747   Zn755   1.964   .     S
O747   C757    1.278   .     S
O748   Zn756   1.983   .     S
O749   Zn755   1.966   .     S
O749   C760    1.311   .     S
O750   Zn756   1.960   .     S
O751   Zn755   1.983   .     S
O752   Zn756   1.964   .     S
O753   Zn755   1.960   .     S
O754   Zn756   1.966   .     S
C757   O802    1.297   .     A
C757   C759    1.405   .     S
C758   C760    1.484   .     S
C758   C766    1.395   .     A
C758   C772    1.409   .     A
C759   C869    1.346   .     S
C759   H958    1.088   .     S
C760   O804    1.299   .     A
C761   C762    1.407   .     S
C761   C489    1.346   1_655 S
C762   O805    1.291   .     A
C762   O698    1.283   1_655 S
C763   O807    1.295   .     A
C763   C765    1.442   .     S
C763   O700    1.297   1_655 S
C764   H791    1.084   .     S
C764   C774    1.399   .     A
C764   C292    1.382   1_556 S
C765   C777    1.396   .     A
C765   C778    1.395   .     A
C766   C767    1.393   .     A
C767   C283    1.408   1_556 S
C767   H308    1.082   1_556 S
C768   C772    1.406   .     A
C768   C283    1.431   1_556 S
C768   C287    1.429   1_556 S
C769   N800    1.423   .     S
C770   H783    1.109   .     S
C770   H784    1.109   .     S
C770   H782    1.109   .     S
C770   N799    1.443   .     S
C771   N800    1.448   .     S
C771   H787    1.109   .     S
C771   H788    1.110   .     S
C771   H786    1.109   .     S
C772   C776    1.400   .     A
C773   C777    1.387   .     A
C774   C775    1.381   .     A
C774   C287    1.425   1_556 S
C775   C776    1.370   .     A
C775   H790    1.076   .     S
C776   H795    1.070   .     S
C777   H792    1.072   .     S
C778   H672    1.083   1_655 S
Cl779  C923    1.780   .     S
H781   N799    1.031   .     S
H785   N800    1.031   .     S
H789   N798    1.027   .     S
H793   C658    1.078   1_655 S
N797   N798    1.279   .     D
N797   N799    1.372   .     S
N797   Zn810   2.028   .     S
N798   Zn809   2.028   .     S
O801   Zn809   1.964   .     S
O801   C649    1.278   1_655 S
O802   Zn810   1.983   .     S
O803   Zn809   1.966   .     S
O803   C652    1.311   1_655 S
O804   Zn810   1.960   .     S
O805   Zn809   1.983   .     S
O806   Zn810   1.964   .     S
O807   Zn809   1.960   .     S
O808   Zn810   1.966   .     S
C811   O856    1.297   .     A
C811   C813    1.405   .     S
C811   O963    1.278   1_455 S
C812   C814    1.484   .     S
C812   C820    1.395   .     A
C812   C826    1.409   .     A
C813   C599    1.346   1_465 S
C813   H526    1.088   1_565 S
C814   O858    1.299   .     A
C814   O965    1.311   1_455 S
C815   C816    1.407   .     S
C816   O859    1.291   .     A
C816   O914    1.283   .     S
C817   O861    1.295   .     A
C817   C819    1.442   .     S
C817   O916    1.297   .     S
C818   H845    1.084   .     S
C818   C828    1.399   .     A
C818   C346    1.382   1_556 S
C819   C831    1.396   .     A
C819   C832    1.395   .     A
C820   C821    1.393   .     A
C820   H955    1.078   1_455 S
C821   C337    1.408   1_556 S
C821   H362    1.082   1_556 S
C822   C826    1.406   .     A
C822   C337    1.431   1_556 S
C822   C341    1.429   1_556 S
C823   N854    1.423   .     S
C824   H837    1.109   .     S
C824   H838    1.109   .     S
C824   H836    1.109   .     S
C824   N853    1.443   .     S
C825   N854    1.448   .     S
C825   H841    1.109   .     S
C825   H842    1.110   .     S
C825   H840    1.109   .     S
C826   C830    1.400   .     A
C827   C831    1.387   .     A
C828   C829    1.381   .     A
C828   C341    1.425   1_556 S
C829   C830    1.370   .     A
C829   H844    1.076   .     S
C830   H849    1.070   .     S
C831   H846    1.072   .     S
C832   H888    1.083   .     S
Cl833  C491    1.780   1_565 S
H834   C940    1.083   1_455 S
H835   N853    1.031   .     S
H839   N854    1.031   .     S
H843   N852    1.027   .     S
H847   C874    1.078   .     S
N851   N852    1.279   .     D
N851   N853    1.372   .     S
N851   Zn864   2.028   .     S
N852   Zn863   2.028   .     S
O855   Zn863   1.964   .     S
O855   C865    1.278   .     S
O856   Zn864   1.983   .     S
O857   Zn863   1.966   .     S
O857   C868    1.311   .     S
O858   Zn864   1.960   .     S
O859   Zn863   1.983   .     S
O860   Zn864   1.964   .     S
O860   C924    1.283   1_455 S
O861   Zn863   1.960   .     S
O862   Zn864   1.966   .     S
O862   C925    1.297   1_455 S
C865   O910    1.297   .     A
C865   C867    1.405   .     S
C866   C868    1.484   .     S
C866   C874    1.395   .     A
C866   C880    1.409   .     A
C867   C491    1.346   1_565 S
C867   H580    1.088   1_565 S
C868   O912    1.299   .     A
C869   C870    1.407   .     S
C870   O913    1.291   .     A
C870   O968    1.283   .     S
C871   O915    1.295   .     A
C871   C873    1.442   .     S
C871   O970    1.297   .     S
C872   H899    1.084   .     S
C872   C882    1.399   .     A
C872   C400    1.382   1_556 S
C873   C885    1.396   .     A
C873   C886    1.395   .     A
C874   C875    1.393   .     A
C875   C391    1.408   1_556 S
C875   H416    1.082   1_556 S
C876   C880    1.406   .     A
C876   C391    1.431   1_556 S
C876   C395    1.429   1_556 S
C877   N908    1.423   .     S
C878   H891    1.109   .     S
C878   H892    1.109   .     S
C878   H890    1.109   .     S
C878   N907    1.443   .     S
C879   N908    1.448   .     S
C879   H895    1.109   .     S
C879   H896    1.110   .     S
C879   H894    1.109   .     S
C880   C884    1.400   .     A
C881   C885    1.387   .     A
C882   C883    1.381   .     A
C882   C395    1.425   1_556 S
C883   C884    1.370   .     A
C883   H898    1.076   .     S
C884   H903    1.070   .     S
C885   H900    1.072   .     S
C886   H942    1.083   .     S
Cl887  C545    1.780   1_565 S
H889   N907    1.031   .     S
H893   N908    1.031   .     S
H897   N906    1.027   .     S
H901   C928    1.078   .     S
N905   N906    1.279   .     D
N905   N907    1.372   .     S
N905   Zn918   2.028   .     S
N906   Zn917   2.028   .     S
O909   Zn917   1.964   .     S
O909   C919    1.278   .     S
O910   Zn918   1.983   .     S
O911   Zn917   1.966   .     S
O911   C922    1.311   .     S
O912   Zn918   1.960   .     S
O913   Zn917   1.983   .     S
O914   Zn918   1.964   .     S
O915   Zn917   1.960   .     S
O916   Zn918   1.966   .     S
C919   O964    1.297   .     A
C919   C921    1.405   .     S
C920   C922    1.484   .     S
C920   C928    1.395   .     A
C920   C934    1.409   .     A
C921   C545    1.346   1_565 S
C921   H634    1.088   1_565 S
C922   O966    1.299   .     A
C923   C924    1.407   .     S
C923   C651    1.346   1_655 S
C924   O967    1.291   .     A
C924   O860    1.283   1_655 S
C925   O969    1.295   .     A
C925   C927    1.442   .     S
C925   O862    1.297   1_655 S
C926   H953    1.084   .     S
C926   C936    1.399   .     A
C926   C454    1.382   1_556 S
C927   C939    1.396   .     A
C927   C940    1.395   .     A
C928   C929    1.393   .     A
C929   C445    1.408   1_556 S
C929   H470    1.082   1_556 S
C930   C934    1.406   .     A
C930   C445    1.431   1_556 S
C930   C449    1.429   1_556 S
C931   N962    1.423   .     S
C932   H945    1.109   .     S
C932   H946    1.109   .     S
C932   H944    1.109   .     S
C932   N961    1.443   .     S
C933   N962    1.448   .     S
C933   H949    1.109   .     S
C933   H950    1.110   .     S
C933   H948    1.109   .     S
C934   C938    1.400   .     A
C935   C939    1.387   .     A
C936   C937    1.381   .     A
C936   C449    1.425   1_556 S
C937   C938    1.370   .     A
C937   H952    1.076   .     S
C938   H957    1.070   .     S
C939   H954    1.072   .     S
C940   H834    1.083   1_655 S
Cl941  C599    1.780   1_565 S
H943   N961    1.031   .     S
H947   N962    1.031   .     S
H951   N960    1.027   .     S
H955   C820    1.078   1_655 S
N959   N960    1.279   .     D
N959   N961    1.372   .     S
N959   Zn972   2.028   .     S
N960   Zn971   2.028   .     S
O963   Zn971   1.964   .     S
O963   C811    1.278   1_655 S
O964   Zn972   1.983   .     S
O965   Zn971   1.966   .     S
O965   C814    1.311   1_655 S
O966   Zn972   1.960   .     S
O967   Zn971   1.983   .     S
O968   Zn972   1.964   .     S
O969   Zn971   1.960   .     S
O970   Zn972   1.966   .     S
