data_str_m3_o1_o16_pcu_sym.54
_audit_creation_date              2020-01-03
_audit_creation_method            'Materials Studio'
_symmetry_space_group_name_H-M    'P1'
_symmetry_Int_Tables_number       1
_symmetry_cell_setting            triclinic
loop_
_symmetry_equiv_pos_as_xyz
  x,y,z
_cell_length_a                    29.7592
_cell_length_b                    32.1864
_cell_length_c                    26.2035
_cell_angle_alpha                 90.5092
_cell_angle_beta                  68.5921
_cell_angle_gamma                 89.7539
loop_
_atom_site_label
_atom_site_type_symbol
_atom_site_fract_x
_atom_site_fract_y
_atom_site_fract_z
_atom_site_U_iso_or_equiv
_atom_site_adp_type
_atom_site_occupancy
C1     C     0.16711   0.24663   0.24848   0.00000  Uiso   1.00
C2     C     0.12205   0.16342   0.41274   0.00000  Uiso   1.00
C3     C     0.20987   0.31190   0.24243   0.00000  Uiso   1.00
C4     C     0.13957   0.16521   0.35257   0.00000  Uiso   1.00
C5     C     0.20974   0.02113   0.24314   0.00000  Uiso   1.00
C6     C     0.16785   0.04252   0.24634   0.00000  Uiso   1.00
C7     C     0.12670   0.02147   0.24683   0.00000  Uiso   1.00
C8     C     0.12692   0.31225   0.24603   0.00000  Uiso   1.00
C9     C     0.16801   0.29082   0.24549   0.00000  Uiso   1.00
C10    C     0.31595   0.13330   0.23036   0.00000  Uiso   1.00
C11    C     0.03041   0.13341   0.23009   0.00000  Uiso   1.00
C12    C     0.14751   0.16514   0.49103   0.00000  Uiso   1.00
C13    C     0.01693   0.19989   0.27107   0.00000  Uiso   1.00
C14    C     0.30246   0.20013   0.27062   0.00000  Uiso   1.00
C15    C     0.16708   0.08670   0.24882   0.00000  Uiso   1.00
C16    C     0.19406   0.16581   0.14744   0.00000  Uiso   1.00
C17    C     0.26538   0.13132   0.00069   0.00000  Uiso   1.00
C18    C     0.21246   0.16116   0.08757   0.00000  Uiso   1.00
C19    C     0.07951   0.18454   0.44345   0.00000  Uiso   1.00
C20    C     0.07009   0.19533   0.49757   0.00000  Uiso   1.00
C21    C     0.10410   0.18697   0.02093   0.00000  Uiso   1.00
C22    C     0.28863   0.12501   0.08391   0.00000  Uiso   1.00
C23    C     0.15288   0.14842   0.43909   0.00000  Uiso   1.00
C24    C     0.02375   0.23088   0.34617   0.00000  Uiso   1.00
C25    C     0.05076   0.26403   0.36517   0.00000  Uiso   1.00
C26    C     0.24435   0.23855   0.33843   0.00000  Uiso   1.00
C27    C     0.24557   0.28181   0.36177   0.00000  Uiso   1.00
C28    C     0.24543   0.04368   0.44439   0.00000  Uiso   1.00
C29    C     0.28968   0.01648   0.43554   0.00000  Uiso   1.00
C30    C     0.31472   0.11815   0.46397   0.00000  Uiso   1.00
C31    C     0.18442   0.08662   0.37454   0.00000  Uiso   1.00
C32    C     0.18523   0.15895   0.01124   0.00000  Uiso   1.00
C33    C     0.22681   0.13505   0.48080   0.00000  Uiso   1.00
C34    C     0.22602   0.11140   0.43534   0.00000  Uiso   1.00
C35    C     0.18868   0.11730   0.41526   0.00000  Uiso   1.00
C36    C     0.18192   0.17505   0.06201   0.00000  Uiso   1.00
C37    C     0.25587   0.14022   0.05673   0.00000  Uiso   1.00
H38    H     0.24214   0.03711   0.24169   0.00000  Uiso   1.00
H39    H     0.24250   0.29573   0.24007   0.00000  Uiso   1.00
H40    H     0.27419   0.10697   0.12109   0.00000  Uiso   1.00
H41    H     0.03317   0.19960   0.35615   0.00000  Uiso   1.00
H42    H     0.31854   0.23542   0.37050   0.00000  Uiso   1.00
H43    H     0.03679   0.26567   0.41065   0.00000  Uiso   1.00
H44    H     0.08983   0.25654   0.35048   0.00000  Uiso   1.00
H45    H     0.04538   0.29491   0.34968   0.00000  Uiso   1.00
H46    H     0.25119   0.21434   0.36498   0.00000  Uiso   1.00
H47    H     0.20679   0.23464   0.34103   0.00000  Uiso   1.00
H48    H     0.28327   0.29248   0.35028   0.00000  Uiso   1.00
H49    H     0.09423   0.03770   0.24842   0.00000  Uiso   1.00
H50    H     0.22613   0.30430   0.34520   0.00000  Uiso   1.00
H51    H     0.22776   0.28141   0.40709   0.00000  Uiso   1.00
H52    H     0.21957   0.02620   0.43084   0.00000  Uiso   1.00
H53    H     0.22805   0.05010   0.48930   0.00000  Uiso   1.00
H54    H     0.31281   0.03067   0.45581   0.00000  Uiso   1.00
H55    H     0.27844   0.31866   0.45337   0.00000  Uiso   1.00
H56    H     0.31115   0.01309   0.39109   0.00000  Uiso   1.00
H57    H     0.00423   0.09970   0.47920   0.00000  Uiso   1.00
H58    H     0.21645   0.07162   0.34562   0.00000  Uiso   1.00
H59    H     0.09476   0.29634   0.24668   0.00000  Uiso   1.00
H60    H     0.30345   0.10658   0.21417   0.00000  Uiso   1.00
H61    H     0.05364   0.10677   0.21369   0.00000  Uiso   1.00
H62    H     0.15317   0.19582   0.08525   0.00000  Uiso   1.00
H63    H     0.05428   0.19436   0.42549   0.00000  Uiso   1.00
H64    H     0.09453   0.19743   0.06269   0.00000  Uiso   1.00
H65    H     0.03714   0.21195   0.02088   0.00000  Uiso   1.00
N66    N     0.04760   0.16668   0.25002   0.00000  Uiso   1.00
N67    N     0.28573   0.16665   0.25001   0.00000  Uiso   1.00
O68    O     0.12846   0.22775   0.25001   0.00000  Uiso   1.00
O69    O     0.03345   0.23483   0.28950   0.00000  Uiso   1.00
O70    O     0.27622   0.23692   0.28291   0.00000  Uiso   1.00
O71    O     0.25976   0.08008   0.41276   0.00000  Uiso   1.00
O72    O     0.33089   0.12890   0.41614   0.00000  Uiso   1.00
O73    O     0.14491   0.07629   0.37476   0.00000  Uiso   1.00
O74    O     0.20490   0.22774   0.25001   0.00000  Uiso   1.00
O75    O     0.10947   0.16666   0.32681   0.00000  Uiso   1.00
O76    O     0.18591   0.16665   0.32681   0.00000  Uiso   1.00
O77    O     0.12843   0.10559   0.25000   0.00000  Uiso   1.00
O78    O     0.20488   0.10558   0.25000   0.00000  Uiso   1.00
O79    O     0.14742   0.16668   0.17319   0.00000  Uiso   1.00
O80    O     0.22387   0.16667   0.17319   0.00000  Uiso   1.00
O81    O     0.33150   0.13327   0.06607   0.00000  Uiso   1.00
Zn82   Zn    0.11562   0.16667   0.25000   0.00000  Uiso   1.00
Zn83   Zn    0.21771   0.16666   0.25000   0.00000  Uiso   1.00
C84    C     0.50045   0.24663   0.24848   0.00000  Uiso   1.00
C85    C     0.45538   0.16342   0.41274   0.00000  Uiso   1.00
C86    C     0.54320   0.31190   0.24243   0.00000  Uiso   1.00
C87    C     0.47291   0.16521   0.35257   0.00000  Uiso   1.00
C88    C     0.54307   0.02113   0.24314   0.00000  Uiso   1.00
C89    C     0.50118   0.04252   0.24634   0.00000  Uiso   1.00
C90    C     0.46003   0.02147   0.24683   0.00000  Uiso   1.00
C91    C     0.46025   0.31225   0.24603   0.00000  Uiso   1.00
C92    C     0.50134   0.29082   0.24549   0.00000  Uiso   1.00
C93    C     0.64929   0.13330   0.23036   0.00000  Uiso   1.00
C94    C     0.36375   0.13341   0.23009   0.00000  Uiso   1.00
C95    C     0.48085   0.16514   0.49103   0.00000  Uiso   1.00
C96    C     0.35027   0.19989   0.27107   0.00000  Uiso   1.00
C97    C     0.63579   0.20013   0.27062   0.00000  Uiso   1.00
C98    C     0.50041   0.08670   0.24882   0.00000  Uiso   1.00
C99    C     0.52740   0.16581   0.14744   0.00000  Uiso   1.00
C100   C     0.59872   0.13132   0.00069   0.00000  Uiso   1.00
C101   C     0.54580   0.16116   0.08757   0.00000  Uiso   1.00
C102   C     0.41284   0.18454   0.44345   0.00000  Uiso   1.00
C103   C     0.40342   0.19533   0.49757   0.00000  Uiso   1.00
C104   C     0.43744   0.18697   0.02093   0.00000  Uiso   1.00
C105   C     0.62196   0.12501   0.08391   0.00000  Uiso   1.00
C106   C     0.48621   0.14842   0.43909   0.00000  Uiso   1.00
C107   C     0.35708   0.23088   0.34617   0.00000  Uiso   1.00
C108   C     0.38409   0.26403   0.36517   0.00000  Uiso   1.00
C109   C     0.57768   0.23855   0.33843   0.00000  Uiso   1.00
C110   C     0.57891   0.28181   0.36177   0.00000  Uiso   1.00
C111   C     0.57876   0.04368   0.44439   0.00000  Uiso   1.00
C112   C     0.62302   0.01648   0.43554   0.00000  Uiso   1.00
C113   C     0.64805   0.11815   0.46397   0.00000  Uiso   1.00
C114   C     0.51776   0.08662   0.37454   0.00000  Uiso   1.00
C115   C     0.51856   0.15895   0.01124   0.00000  Uiso   1.00
C116   C     0.56015   0.13505   0.48080   0.00000  Uiso   1.00
C117   C     0.55935   0.11140   0.43534   0.00000  Uiso   1.00
C118   C     0.52201   0.11730   0.41526   0.00000  Uiso   1.00
C119   C     0.51526   0.17505   0.06201   0.00000  Uiso   1.00
C120   C     0.58920   0.14022   0.05673   0.00000  Uiso   1.00
H121   H     0.57548   0.03711   0.24169   0.00000  Uiso   1.00
H122   H     0.57584   0.29573   0.24007   0.00000  Uiso   1.00
H123   H     0.60753   0.10697   0.12109   0.00000  Uiso   1.00
H124   H     0.36651   0.19960   0.35615   0.00000  Uiso   1.00
H125   H     0.65188   0.23542   0.37050   0.00000  Uiso   1.00
H126   H     0.37013   0.26567   0.41065   0.00000  Uiso   1.00
H127   H     0.42316   0.25654   0.35048   0.00000  Uiso   1.00
H128   H     0.37872   0.29491   0.34968   0.00000  Uiso   1.00
H129   H     0.58452   0.21434   0.36498   0.00000  Uiso   1.00
H130   H     0.54013   0.23464   0.34103   0.00000  Uiso   1.00
H131   H     0.61660   0.29248   0.35028   0.00000  Uiso   1.00
H132   H     0.42756   0.03770   0.24842   0.00000  Uiso   1.00
H133   H     0.55946   0.30430   0.34520   0.00000  Uiso   1.00
H134   H     0.56110   0.28141   0.40709   0.00000  Uiso   1.00
H135   H     0.55291   0.02620   0.43084   0.00000  Uiso   1.00
H136   H     0.56138   0.05010   0.48930   0.00000  Uiso   1.00
H137   H     0.64614   0.03067   0.45581   0.00000  Uiso   1.00
H138   H     0.61177   0.31866   0.45337   0.00000  Uiso   1.00
H139   H     0.64448   0.01309   0.39109   0.00000  Uiso   1.00
H140   H     0.33757   0.09970   0.47920   0.00000  Uiso   1.00
H141   H     0.54978   0.07162   0.34562   0.00000  Uiso   1.00
H142   H     0.42809   0.29634   0.24668   0.00000  Uiso   1.00
H143   H     0.63678   0.10658   0.21417   0.00000  Uiso   1.00
H144   H     0.38697   0.10677   0.21369   0.00000  Uiso   1.00
H145   H     0.48651   0.19582   0.08525   0.00000  Uiso   1.00
H146   H     0.38761   0.19436   0.42549   0.00000  Uiso   1.00
H147   H     0.42787   0.19743   0.06269   0.00000  Uiso   1.00
H148   H     0.37048   0.21195   0.02088   0.00000  Uiso   1.00
N149   N     0.38093   0.16668   0.25002   0.00000  Uiso   1.00
N150   N     0.61906   0.16665   0.25001   0.00000  Uiso   1.00
O151   O     0.46179   0.22775   0.25001   0.00000  Uiso   1.00
O152   O     0.36678   0.23483   0.28950   0.00000  Uiso   1.00
O153   O     0.60956   0.23692   0.28291   0.00000  Uiso   1.00
O154   O     0.59309   0.08008   0.41276   0.00000  Uiso   1.00
O155   O     0.66422   0.12890   0.41614   0.00000  Uiso   1.00
O156   O     0.47825   0.07629   0.37476   0.00000  Uiso   1.00
O157   O     0.53823   0.22774   0.25001   0.00000  Uiso   1.00
O158   O     0.44280   0.16666   0.32681   0.00000  Uiso   1.00
O159   O     0.51924   0.16665   0.32681   0.00000  Uiso   1.00
O160   O     0.46177   0.10559   0.25000   0.00000  Uiso   1.00
O161   O     0.53821   0.10558   0.25000   0.00000  Uiso   1.00
O162   O     0.48076   0.16668   0.17319   0.00000  Uiso   1.00
O163   O     0.55720   0.16667   0.17319   0.00000  Uiso   1.00
O164   O     0.66483   0.13327   0.06607   0.00000  Uiso   1.00
Zn165  Zn    0.44896   0.16667   0.25000   0.00000  Uiso   1.00
Zn166  Zn    0.55104   0.16666   0.25000   0.00000  Uiso   1.00
C167   C     0.83378   0.24663   0.24848   0.00000  Uiso   1.00
C168   C     0.78871   0.16342   0.41274   0.00000  Uiso   1.00
C169   C     0.87654   0.31190   0.24243   0.00000  Uiso   1.00
C170   C     0.80624   0.16521   0.35257   0.00000  Uiso   1.00
C171   C     0.87640   0.02113   0.24314   0.00000  Uiso   1.00
C172   C     0.83451   0.04252   0.24634   0.00000  Uiso   1.00
C173   C     0.79336   0.02147   0.24683   0.00000  Uiso   1.00
C174   C     0.79359   0.31225   0.24603   0.00000  Uiso   1.00
C175   C     0.83467   0.29082   0.24549   0.00000  Uiso   1.00
C176   C     0.98262   0.13330   0.23036   0.00000  Uiso   1.00
C177   C     0.69708   0.13341   0.23009   0.00000  Uiso   1.00
C178   C     0.81418   0.16514   0.49103   0.00000  Uiso   1.00
C179   C     0.68360   0.19989   0.27107   0.00000  Uiso   1.00
C180   C     0.96913   0.20013   0.27062   0.00000  Uiso   1.00
C181   C     0.83374   0.08670   0.24882   0.00000  Uiso   1.00
C182   C     0.86073   0.16581   0.14744   0.00000  Uiso   1.00
C183   C     0.93205   0.13132   0.00069   0.00000  Uiso   1.00
C184   C     0.87913   0.16116   0.08757   0.00000  Uiso   1.00
C185   C     0.74617   0.18454   0.44345   0.00000  Uiso   1.00
C186   C     0.73676   0.19533   0.49757   0.00000  Uiso   1.00
C187   C     0.77077   0.18697   0.02093   0.00000  Uiso   1.00
C188   C     0.95529   0.12501   0.08391   0.00000  Uiso   1.00
C189   C     0.81954   0.14842   0.43909   0.00000  Uiso   1.00
C190   C     0.69041   0.23088   0.34617   0.00000  Uiso   1.00
C191   C     0.71743   0.26403   0.36517   0.00000  Uiso   1.00
C192   C     0.91102   0.23855   0.33843   0.00000  Uiso   1.00
C193   C     0.91224   0.28181   0.36177   0.00000  Uiso   1.00
C194   C     0.91210   0.04368   0.44439   0.00000  Uiso   1.00
C195   C     0.95635   0.01648   0.43554   0.00000  Uiso   1.00
C196   C     0.98138   0.11815   0.46397   0.00000  Uiso   1.00
C197   C     0.85109   0.08662   0.37454   0.00000  Uiso   1.00
C198   C     0.85190   0.15895   0.01124   0.00000  Uiso   1.00
C199   C     0.89348   0.13505   0.48080   0.00000  Uiso   1.00
C200   C     0.89268   0.11140   0.43534   0.00000  Uiso   1.00
C201   C     0.85535   0.11730   0.41526   0.00000  Uiso   1.00
C202   C     0.84859   0.17505   0.06201   0.00000  Uiso   1.00
C203   C     0.92254   0.14022   0.05673   0.00000  Uiso   1.00
H204   H     0.90881   0.03711   0.24169   0.00000  Uiso   1.00
H205   H     0.90917   0.29573   0.24007   0.00000  Uiso   1.00
H206   H     0.94086   0.10697   0.12109   0.00000  Uiso   1.00
H207   H     0.69984   0.19960   0.35615   0.00000  Uiso   1.00
H208   H     0.98521   0.23542   0.37050   0.00000  Uiso   1.00
H209   H     0.70346   0.26567   0.41065   0.00000  Uiso   1.00
H210   H     0.75650   0.25654   0.35048   0.00000  Uiso   1.00
H211   H     0.71205   0.29491   0.34968   0.00000  Uiso   1.00
H212   H     0.91786   0.21434   0.36498   0.00000  Uiso   1.00
H213   H     0.87346   0.23464   0.34103   0.00000  Uiso   1.00
H214   H     0.94993   0.29248   0.35028   0.00000  Uiso   1.00
H215   H     0.76090   0.03770   0.24842   0.00000  Uiso   1.00
H216   H     0.89279   0.30430   0.34520   0.00000  Uiso   1.00
H217   H     0.89443   0.28141   0.40709   0.00000  Uiso   1.00
H218   H     0.88624   0.02620   0.43084   0.00000  Uiso   1.00
H219   H     0.89472   0.05010   0.48930   0.00000  Uiso   1.00
H220   H     0.97948   0.03067   0.45581   0.00000  Uiso   1.00
H221   H     0.94510   0.31866   0.45337   0.00000  Uiso   1.00
H222   H     0.97781   0.01309   0.39109   0.00000  Uiso   1.00
H223   H     0.67090   0.09970   0.47920   0.00000  Uiso   1.00
H224   H     0.88312   0.07162   0.34562   0.00000  Uiso   1.00
H225   H     0.76143   0.29634   0.24668   0.00000  Uiso   1.00
H226   H     0.97011   0.10658   0.21417   0.00000  Uiso   1.00
H227   H     0.72031   0.10677   0.21369   0.00000  Uiso   1.00
H228   H     0.81984   0.19582   0.08525   0.00000  Uiso   1.00
H229   H     0.72094   0.19436   0.42549   0.00000  Uiso   1.00
H230   H     0.76120   0.19743   0.06269   0.00000  Uiso   1.00
H231   H     0.70381   0.21195   0.02088   0.00000  Uiso   1.00
N232   N     0.71426   0.16668   0.25002   0.00000  Uiso   1.00
N233   N     0.95239   0.16665   0.25001   0.00000  Uiso   1.00
O234   O     0.79512   0.22775   0.25001   0.00000  Uiso   1.00
O235   O     0.70011   0.23483   0.28950   0.00000  Uiso   1.00
O236   O     0.94289   0.23692   0.28291   0.00000  Uiso   1.00
O237   O     0.92642   0.08008   0.41276   0.00000  Uiso   1.00
O238   O     0.99755   0.12890   0.41614   0.00000  Uiso   1.00
O239   O     0.81158   0.07629   0.37476   0.00000  Uiso   1.00
O240   O     0.87157   0.22774   0.25001   0.00000  Uiso   1.00
O241   O     0.77613   0.16666   0.32681   0.00000  Uiso   1.00
O242   O     0.85258   0.16665   0.32681   0.00000  Uiso   1.00
O243   O     0.79510   0.10559   0.25000   0.00000  Uiso   1.00
O244   O     0.87154   0.10558   0.25000   0.00000  Uiso   1.00
O245   O     0.81409   0.16668   0.17319   0.00000  Uiso   1.00
O246   O     0.89053   0.16667   0.17319   0.00000  Uiso   1.00
O247   O     0.99817   0.13327   0.06607   0.00000  Uiso   1.00
Zn248  Zn    0.78229   0.16667   0.25000   0.00000  Uiso   1.00
Zn249  Zn    0.88438   0.16666   0.25000   0.00000  Uiso   1.00
C250   C     0.16711   0.57996   0.24848   0.00000  Uiso   1.00
C251   C     0.12205   0.49675   0.41274   0.00000  Uiso   1.00
C252   C     0.20987   0.64523   0.24243   0.00000  Uiso   1.00
C253   C     0.13957   0.49854   0.35257   0.00000  Uiso   1.00
C254   C     0.20974   0.35447   0.24314   0.00000  Uiso   1.00
C255   C     0.16785   0.37585   0.24634   0.00000  Uiso   1.00
C256   C     0.12670   0.35480   0.24683   0.00000  Uiso   1.00
C257   C     0.12692   0.64558   0.24603   0.00000  Uiso   1.00
C258   C     0.16801   0.62416   0.24549   0.00000  Uiso   1.00
C259   C     0.31595   0.46664   0.23036   0.00000  Uiso   1.00
C260   C     0.03041   0.46675   0.23009   0.00000  Uiso   1.00
C261   C     0.14751   0.49848   0.49103   0.00000  Uiso   1.00
C262   C     0.01693   0.53323   0.27107   0.00000  Uiso   1.00
C263   C     0.30246   0.53346   0.27062   0.00000  Uiso   1.00
C264   C     0.16708   0.42004   0.24882   0.00000  Uiso   1.00
C265   C     0.19406   0.49914   0.14744   0.00000  Uiso   1.00
C266   C     0.26538   0.46465   0.00069   0.00000  Uiso   1.00
C267   C     0.21246   0.49450   0.08757   0.00000  Uiso   1.00
C268   C     0.07951   0.51787   0.44345   0.00000  Uiso   1.00
C269   C     0.07009   0.52866   0.49757   0.00000  Uiso   1.00
C270   C     0.10410   0.52030   0.02093   0.00000  Uiso   1.00
C271   C     0.28863   0.45834   0.08391   0.00000  Uiso   1.00
C272   C     0.15288   0.48175   0.43909   0.00000  Uiso   1.00
C273   C     0.02375   0.56421   0.34617   0.00000  Uiso   1.00
C274   C     0.05076   0.59736   0.36517   0.00000  Uiso   1.00
C275   C     0.24435   0.57188   0.33843   0.00000  Uiso   1.00
C276   C     0.24557   0.61514   0.36177   0.00000  Uiso   1.00
C277   C     0.24543   0.37702   0.44439   0.00000  Uiso   1.00
C278   C     0.28968   0.34981   0.43554   0.00000  Uiso   1.00
C279   C     0.31472   0.45148   0.46397   0.00000  Uiso   1.00
C280   C     0.18442   0.41995   0.37454   0.00000  Uiso   1.00
C281   C     0.18523   0.49228   0.01124   0.00000  Uiso   1.00
C282   C     0.22681   0.46838   0.48080   0.00000  Uiso   1.00
C283   C     0.22602   0.44473   0.43534   0.00000  Uiso   1.00
C284   C     0.18868   0.45064   0.41526   0.00000  Uiso   1.00
C285   C     0.18192   0.50838   0.06201   0.00000  Uiso   1.00
C286   C     0.25587   0.47355   0.05673   0.00000  Uiso   1.00
H287   H     0.24214   0.37045   0.24169   0.00000  Uiso   1.00
H288   H     0.24250   0.62906   0.24007   0.00000  Uiso   1.00
H289   H     0.27419   0.44030   0.12109   0.00000  Uiso   1.00
H290   H     0.03317   0.53293   0.35615   0.00000  Uiso   1.00
H291   H     0.31854   0.56875   0.37050   0.00000  Uiso   1.00
H292   H     0.03679   0.59900   0.41065   0.00000  Uiso   1.00
H293   H     0.08983   0.58988   0.35048   0.00000  Uiso   1.00
H294   H     0.04538   0.62824   0.34968   0.00000  Uiso   1.00
H295   H     0.25119   0.54768   0.36498   0.00000  Uiso   1.00
H296   H     0.20679   0.56797   0.34103   0.00000  Uiso   1.00
H297   H     0.28327   0.62582   0.35028   0.00000  Uiso   1.00
H298   H     0.09423   0.37103   0.24842   0.00000  Uiso   1.00
H299   H     0.22613   0.63764   0.34520   0.00000  Uiso   1.00
H300   H     0.22776   0.61474   0.40709   0.00000  Uiso   1.00
H301   H     0.21957   0.35953   0.43084   0.00000  Uiso   1.00
H302   H     0.22805   0.38344   0.48930   0.00000  Uiso   1.00
H303   H     0.31281   0.36400   0.45581   0.00000  Uiso   1.00
H304   H     0.27844   0.65200   0.45337   0.00000  Uiso   1.00
H305   H     0.31115   0.34642   0.39109   0.00000  Uiso   1.00
H306   H     0.00423   0.43303   0.47920   0.00000  Uiso   1.00
H307   H     0.21645   0.40496   0.34562   0.00000  Uiso   1.00
H308   H     0.09476   0.62967   0.24668   0.00000  Uiso   1.00
H309   H     0.30345   0.43992   0.21417   0.00000  Uiso   1.00
H310   H     0.05364   0.44010   0.21369   0.00000  Uiso   1.00
H311   H     0.15317   0.52915   0.08525   0.00000  Uiso   1.00
H312   H     0.05428   0.52769   0.42549   0.00000  Uiso   1.00
H313   H     0.09453   0.53076   0.06269   0.00000  Uiso   1.00
H314   H     0.03714   0.54528   0.02088   0.00000  Uiso   1.00
N315   N     0.04760   0.50001   0.25002   0.00000  Uiso   1.00
N316   N     0.28573   0.49998   0.25001   0.00000  Uiso   1.00
O317   O     0.12846   0.56108   0.25001   0.00000  Uiso   1.00
O318   O     0.03345   0.56816   0.28950   0.00000  Uiso   1.00
O319   O     0.27622   0.57025   0.28291   0.00000  Uiso   1.00
O320   O     0.25976   0.41341   0.41276   0.00000  Uiso   1.00
O321   O     0.33089   0.46223   0.41614   0.00000  Uiso   1.00
O322   O     0.14491   0.40963   0.37476   0.00000  Uiso   1.00
O323   O     0.20490   0.56107   0.25001   0.00000  Uiso   1.00
O324   O     0.10947   0.50000   0.32681   0.00000  Uiso   1.00
O325   O     0.18591   0.49999   0.32681   0.00000  Uiso   1.00
O326   O     0.12843   0.43893   0.25000   0.00000  Uiso   1.00
O327   O     0.20488   0.43892   0.25000   0.00000  Uiso   1.00
O328   O     0.14742   0.50001   0.17319   0.00000  Uiso   1.00
O329   O     0.22387   0.50000   0.17319   0.00000  Uiso   1.00
O330   O     0.33150   0.46660   0.06607   0.00000  Uiso   1.00
Zn331  Zn    0.11562   0.50001   0.25000   0.00000  Uiso   1.00
Zn332  Zn    0.21771   0.49999   0.25000   0.00000  Uiso   1.00
C333   C     0.50045   0.57996   0.24848   0.00000  Uiso   1.00
C334   C     0.45538   0.49675   0.41274   0.00000  Uiso   1.00
C335   C     0.54320   0.64523   0.24243   0.00000  Uiso   1.00
C336   C     0.47291   0.49854   0.35257   0.00000  Uiso   1.00
C337   C     0.54307   0.35447   0.24314   0.00000  Uiso   1.00
C338   C     0.50118   0.37585   0.24634   0.00000  Uiso   1.00
C339   C     0.46003   0.35480   0.24683   0.00000  Uiso   1.00
C340   C     0.46025   0.64558   0.24603   0.00000  Uiso   1.00
C341   C     0.50134   0.62416   0.24549   0.00000  Uiso   1.00
C342   C     0.64929   0.46664   0.23036   0.00000  Uiso   1.00
C343   C     0.36375   0.46675   0.23009   0.00000  Uiso   1.00
C344   C     0.48085   0.49848   0.49103   0.00000  Uiso   1.00
C345   C     0.35027   0.53323   0.27107   0.00000  Uiso   1.00
C346   C     0.63579   0.53346   0.27062   0.00000  Uiso   1.00
C347   C     0.50041   0.42004   0.24882   0.00000  Uiso   1.00
C348   C     0.52740   0.49914   0.14744   0.00000  Uiso   1.00
C349   C     0.59872   0.46465   0.00069   0.00000  Uiso   1.00
C350   C     0.54580   0.49450   0.08757   0.00000  Uiso   1.00
C351   C     0.41284   0.51787   0.44345   0.00000  Uiso   1.00
C352   C     0.40342   0.52866   0.49757   0.00000  Uiso   1.00
C353   C     0.43744   0.52030   0.02093   0.00000  Uiso   1.00
C354   C     0.62196   0.45834   0.08391   0.00000  Uiso   1.00
C355   C     0.48621   0.48175   0.43909   0.00000  Uiso   1.00
C356   C     0.35708   0.56421   0.34617   0.00000  Uiso   1.00
C357   C     0.38409   0.59736   0.36517   0.00000  Uiso   1.00
C358   C     0.57768   0.57188   0.33843   0.00000  Uiso   1.00
C359   C     0.57891   0.61514   0.36177   0.00000  Uiso   1.00
C360   C     0.57876   0.37702   0.44439   0.00000  Uiso   1.00
C361   C     0.62302   0.34981   0.43554   0.00000  Uiso   1.00
C362   C     0.64805   0.45148   0.46397   0.00000  Uiso   1.00
C363   C     0.51776   0.41995   0.37454   0.00000  Uiso   1.00
C364   C     0.51856   0.49228   0.01124   0.00000  Uiso   1.00
C365   C     0.56015   0.46838   0.48080   0.00000  Uiso   1.00
C366   C     0.55935   0.44473   0.43534   0.00000  Uiso   1.00
C367   C     0.52201   0.45064   0.41526   0.00000  Uiso   1.00
C368   C     0.51526   0.50838   0.06201   0.00000  Uiso   1.00
C369   C     0.58920   0.47355   0.05673   0.00000  Uiso   1.00
H370   H     0.57548   0.37045   0.24169   0.00000  Uiso   1.00
H371   H     0.57584   0.62906   0.24007   0.00000  Uiso   1.00
H372   H     0.60753   0.44030   0.12109   0.00000  Uiso   1.00
H373   H     0.36651   0.53293   0.35615   0.00000  Uiso   1.00
H374   H     0.65188   0.56875   0.37050   0.00000  Uiso   1.00
H375   H     0.37013   0.59900   0.41065   0.00000  Uiso   1.00
H376   H     0.42316   0.58988   0.35048   0.00000  Uiso   1.00
H377   H     0.37872   0.62824   0.34968   0.00000  Uiso   1.00
H378   H     0.58452   0.54768   0.36498   0.00000  Uiso   1.00
H379   H     0.54013   0.56797   0.34103   0.00000  Uiso   1.00
H380   H     0.61660   0.62582   0.35028   0.00000  Uiso   1.00
H381   H     0.42756   0.37103   0.24842   0.00000  Uiso   1.00
H382   H     0.55946   0.63764   0.34520   0.00000  Uiso   1.00
H383   H     0.56110   0.61474   0.40709   0.00000  Uiso   1.00
H384   H     0.55291   0.35953   0.43084   0.00000  Uiso   1.00
H385   H     0.56138   0.38344   0.48930   0.00000  Uiso   1.00
H386   H     0.64614   0.36400   0.45581   0.00000  Uiso   1.00
H387   H     0.61177   0.65200   0.45337   0.00000  Uiso   1.00
H388   H     0.64448   0.34642   0.39109   0.00000  Uiso   1.00
H389   H     0.33757   0.43303   0.47920   0.00000  Uiso   1.00
H390   H     0.54978   0.40496   0.34562   0.00000  Uiso   1.00
H391   H     0.42809   0.62967   0.24668   0.00000  Uiso   1.00
H392   H     0.63678   0.43992   0.21417   0.00000  Uiso   1.00
H393   H     0.38697   0.44010   0.21369   0.00000  Uiso   1.00
H394   H     0.48651   0.52915   0.08525   0.00000  Uiso   1.00
H395   H     0.38761   0.52769   0.42549   0.00000  Uiso   1.00
H396   H     0.42787   0.53076   0.06269   0.00000  Uiso   1.00
H397   H     0.37048   0.54528   0.02088   0.00000  Uiso   1.00
N398   N     0.38093   0.50001   0.25002   0.00000  Uiso   1.00
N399   N     0.61906   0.49998   0.25001   0.00000  Uiso   1.00
O400   O     0.46179   0.56108   0.25001   0.00000  Uiso   1.00
O401   O     0.36678   0.56816   0.28950   0.00000  Uiso   1.00
O402   O     0.60956   0.57025   0.28291   0.00000  Uiso   1.00
O403   O     0.59309   0.41341   0.41276   0.00000  Uiso   1.00
O404   O     0.66422   0.46223   0.41614   0.00000  Uiso   1.00
O405   O     0.47825   0.40963   0.37476   0.00000  Uiso   1.00
O406   O     0.53823   0.56107   0.25001   0.00000  Uiso   1.00
O407   O     0.44280   0.50000   0.32681   0.00000  Uiso   1.00
O408   O     0.51924   0.49999   0.32681   0.00000  Uiso   1.00
O409   O     0.46177   0.43893   0.25000   0.00000  Uiso   1.00
O410   O     0.53821   0.43892   0.25000   0.00000  Uiso   1.00
O411   O     0.48076   0.50001   0.17319   0.00000  Uiso   1.00
O412   O     0.55720   0.50000   0.17319   0.00000  Uiso   1.00
O413   O     0.66483   0.46660   0.06607   0.00000  Uiso   1.00
Zn414  Zn    0.44896   0.50001   0.25000   0.00000  Uiso   1.00
Zn415  Zn    0.55104   0.49999   0.25000   0.00000  Uiso   1.00
C416   C     0.83378   0.57996   0.24848   0.00000  Uiso   1.00
C417   C     0.78871   0.49675   0.41274   0.00000  Uiso   1.00
C418   C     0.87654   0.64523   0.24243   0.00000  Uiso   1.00
C419   C     0.80624   0.49854   0.35257   0.00000  Uiso   1.00
C420   C     0.87640   0.35447   0.24314   0.00000  Uiso   1.00
C421   C     0.83451   0.37585   0.24634   0.00000  Uiso   1.00
C422   C     0.79336   0.35480   0.24683   0.00000  Uiso   1.00
C423   C     0.79359   0.64558   0.24603   0.00000  Uiso   1.00
C424   C     0.83467   0.62416   0.24549   0.00000  Uiso   1.00
C425   C     0.98262   0.46664   0.23036   0.00000  Uiso   1.00
C426   C     0.69708   0.46675   0.23009   0.00000  Uiso   1.00
C427   C     0.81418   0.49848   0.49103   0.00000  Uiso   1.00
C428   C     0.68360   0.53323   0.27107   0.00000  Uiso   1.00
C429   C     0.96913   0.53346   0.27062   0.00000  Uiso   1.00
C430   C     0.83374   0.42004   0.24882   0.00000  Uiso   1.00
C431   C     0.86073   0.49914   0.14744   0.00000  Uiso   1.00
C432   C     0.93205   0.46465   0.00069   0.00000  Uiso   1.00
C433   C     0.87913   0.49450   0.08757   0.00000  Uiso   1.00
C434   C     0.74617   0.51787   0.44345   0.00000  Uiso   1.00
C435   C     0.73676   0.52866   0.49757   0.00000  Uiso   1.00
C436   C     0.77077   0.52030   0.02093   0.00000  Uiso   1.00
C437   C     0.95529   0.45834   0.08391   0.00000  Uiso   1.00
C438   C     0.81954   0.48175   0.43909   0.00000  Uiso   1.00
C439   C     0.69041   0.56421   0.34617   0.00000  Uiso   1.00
C440   C     0.71743   0.59736   0.36517   0.00000  Uiso   1.00
C441   C     0.91102   0.57188   0.33843   0.00000  Uiso   1.00
C442   C     0.91224   0.61514   0.36177   0.00000  Uiso   1.00
C443   C     0.91210   0.37702   0.44439   0.00000  Uiso   1.00
C444   C     0.95635   0.34981   0.43554   0.00000  Uiso   1.00
C445   C     0.98138   0.45148   0.46397   0.00000  Uiso   1.00
C446   C     0.85109   0.41995   0.37454   0.00000  Uiso   1.00
C447   C     0.85190   0.49228   0.01124   0.00000  Uiso   1.00
C448   C     0.89348   0.46838   0.48080   0.00000  Uiso   1.00
C449   C     0.89268   0.44473   0.43534   0.00000  Uiso   1.00
C450   C     0.85535   0.45064   0.41526   0.00000  Uiso   1.00
C451   C     0.84859   0.50838   0.06201   0.00000  Uiso   1.00
C452   C     0.92254   0.47355   0.05673   0.00000  Uiso   1.00
H453   H     0.90881   0.37045   0.24169   0.00000  Uiso   1.00
H454   H     0.90917   0.62906   0.24007   0.00000  Uiso   1.00
H455   H     0.94086   0.44030   0.12109   0.00000  Uiso   1.00
H456   H     0.69984   0.53293   0.35615   0.00000  Uiso   1.00
H457   H     0.98521   0.56875   0.37050   0.00000  Uiso   1.00
H458   H     0.70346   0.59900   0.41065   0.00000  Uiso   1.00
H459   H     0.75650   0.58988   0.35048   0.00000  Uiso   1.00
H460   H     0.71205   0.62824   0.34968   0.00000  Uiso   1.00
H461   H     0.91786   0.54768   0.36498   0.00000  Uiso   1.00
H462   H     0.87346   0.56797   0.34103   0.00000  Uiso   1.00
H463   H     0.94993   0.62582   0.35028   0.00000  Uiso   1.00
H464   H     0.76090   0.37103   0.24842   0.00000  Uiso   1.00
H465   H     0.89279   0.63764   0.34520   0.00000  Uiso   1.00
H466   H     0.89443   0.61474   0.40709   0.00000  Uiso   1.00
H467   H     0.88624   0.35953   0.43084   0.00000  Uiso   1.00
H468   H     0.89472   0.38344   0.48930   0.00000  Uiso   1.00
H469   H     0.97948   0.36400   0.45581   0.00000  Uiso   1.00
H470   H     0.94510   0.65200   0.45337   0.00000  Uiso   1.00
H471   H     0.97781   0.34642   0.39109   0.00000  Uiso   1.00
H472   H     0.67090   0.43303   0.47920   0.00000  Uiso   1.00
H473   H     0.88312   0.40496   0.34562   0.00000  Uiso   1.00
H474   H     0.76143   0.62967   0.24668   0.00000  Uiso   1.00
H475   H     0.97011   0.43992   0.21417   0.00000  Uiso   1.00
H476   H     0.72031   0.44010   0.21369   0.00000  Uiso   1.00
H477   H     0.81984   0.52915   0.08525   0.00000  Uiso   1.00
H478   H     0.72094   0.52769   0.42549   0.00000  Uiso   1.00
H479   H     0.76120   0.53076   0.06269   0.00000  Uiso   1.00
H480   H     0.70381   0.54528   0.02088   0.00000  Uiso   1.00
N481   N     0.71426   0.50001   0.25002   0.00000  Uiso   1.00
N482   N     0.95239   0.49998   0.25001   0.00000  Uiso   1.00
O483   O     0.79512   0.56108   0.25001   0.00000  Uiso   1.00
O484   O     0.70011   0.56816   0.28950   0.00000  Uiso   1.00
O485   O     0.94289   0.57025   0.28291   0.00000  Uiso   1.00
O486   O     0.92642   0.41341   0.41276   0.00000  Uiso   1.00
O487   O     0.99755   0.46223   0.41614   0.00000  Uiso   1.00
O488   O     0.81158   0.40963   0.37476   0.00000  Uiso   1.00
O489   O     0.87157   0.56107   0.25001   0.00000  Uiso   1.00
O490   O     0.77613   0.50000   0.32681   0.00000  Uiso   1.00
O491   O     0.85258   0.49999   0.32681   0.00000  Uiso   1.00
O492   O     0.79510   0.43893   0.25000   0.00000  Uiso   1.00
O493   O     0.87154   0.43892   0.25000   0.00000  Uiso   1.00
O494   O     0.81409   0.50001   0.17319   0.00000  Uiso   1.00
O495   O     0.89053   0.50000   0.17319   0.00000  Uiso   1.00
O496   O     0.99817   0.46660   0.06607   0.00000  Uiso   1.00
Zn497  Zn    0.78229   0.50001   0.25000   0.00000  Uiso   1.00
Zn498  Zn    0.88438   0.49999   0.25000   0.00000  Uiso   1.00
C499   C     0.16711   0.91330   0.24848   0.00000  Uiso   1.00
C500   C     0.12205   0.83008   0.41274   0.00000  Uiso   1.00
C501   C     0.20987   0.97856   0.24243   0.00000  Uiso   1.00
C502   C     0.13957   0.83187   0.35257   0.00000  Uiso   1.00
C503   C     0.20974   0.68780   0.24314   0.00000  Uiso   1.00
C504   C     0.16785   0.70918   0.24634   0.00000  Uiso   1.00
C505   C     0.12670   0.68814   0.24683   0.00000  Uiso   1.00
C506   C     0.12692   0.97891   0.24603   0.00000  Uiso   1.00
C507   C     0.16801   0.95749   0.24549   0.00000  Uiso   1.00
C508   C     0.31595   0.79997   0.23036   0.00000  Uiso   1.00
C509   C     0.03041   0.80008   0.23009   0.00000  Uiso   1.00
C510   C     0.14751   0.83181   0.49103   0.00000  Uiso   1.00
C511   C     0.01693   0.86656   0.27107   0.00000  Uiso   1.00
C512   C     0.30246   0.86679   0.27062   0.00000  Uiso   1.00
C513   C     0.16708   0.75337   0.24882   0.00000  Uiso   1.00
C514   C     0.19406   0.83247   0.14744   0.00000  Uiso   1.00
C515   C     0.26538   0.79798   0.00069   0.00000  Uiso   1.00
C516   C     0.21246   0.82783   0.08757   0.00000  Uiso   1.00
C517   C     0.07951   0.85121   0.44345   0.00000  Uiso   1.00
C518   C     0.07009   0.86199   0.49757   0.00000  Uiso   1.00
C519   C     0.10410   0.85363   0.02093   0.00000  Uiso   1.00
C520   C     0.28863   0.79167   0.08391   0.00000  Uiso   1.00
C521   C     0.15288   0.81509   0.43909   0.00000  Uiso   1.00
C522   C     0.02375   0.89755   0.34617   0.00000  Uiso   1.00
C523   C     0.05076   0.93070   0.36517   0.00000  Uiso   1.00
C524   C     0.24435   0.90521   0.33843   0.00000  Uiso   1.00
C525   C     0.24557   0.94848   0.36177   0.00000  Uiso   1.00
C526   C     0.24543   0.71035   0.44439   0.00000  Uiso   1.00
C527   C     0.28968   0.68315   0.43554   0.00000  Uiso   1.00
C528   C     0.31472   0.78481   0.46397   0.00000  Uiso   1.00
C529   C     0.18442   0.75329   0.37454   0.00000  Uiso   1.00
C530   C     0.18523   0.82562   0.01124   0.00000  Uiso   1.00
C531   C     0.22681   0.80171   0.48080   0.00000  Uiso   1.00
C532   C     0.22602   0.77807   0.43534   0.00000  Uiso   1.00
C533   C     0.18868   0.78397   0.41526   0.00000  Uiso   1.00
C534   C     0.18192   0.84172   0.06201   0.00000  Uiso   1.00
C535   C     0.25587   0.80689   0.05673   0.00000  Uiso   1.00
H536   H     0.24214   0.70378   0.24169   0.00000  Uiso   1.00
H537   H     0.24250   0.96240   0.24007   0.00000  Uiso   1.00
H538   H     0.27419   0.77364   0.12109   0.00000  Uiso   1.00
H539   H     0.03317   0.86626   0.35615   0.00000  Uiso   1.00
H540   H     0.31854   0.90209   0.37050   0.00000  Uiso   1.00
H541   H     0.03679   0.93234   0.41065   0.00000  Uiso   1.00
H542   H     0.08983   0.92321   0.35048   0.00000  Uiso   1.00
H543   H     0.04538   0.96158   0.34968   0.00000  Uiso   1.00
H544   H     0.25119   0.88101   0.36498   0.00000  Uiso   1.00
H545   H     0.20679   0.90130   0.34103   0.00000  Uiso   1.00
H546   H     0.28327   0.95915   0.35028   0.00000  Uiso   1.00
H547   H     0.09423   0.70436   0.24842   0.00000  Uiso   1.00
H548   H     0.22613   0.97097   0.34520   0.00000  Uiso   1.00
H549   H     0.22776   0.94807   0.40709   0.00000  Uiso   1.00
H550   H     0.21957   0.69287   0.43084   0.00000  Uiso   1.00
H551   H     0.22805   0.71677   0.48930   0.00000  Uiso   1.00
H552   H     0.31281   0.69733   0.45581   0.00000  Uiso   1.00
H553   H     0.27844   0.98533   0.45337   0.00000  Uiso   1.00
H554   H     0.31115   0.67975   0.39109   0.00000  Uiso   1.00
H555   H     0.00423   0.76636   0.47920   0.00000  Uiso   1.00
H556   H     0.21645   0.73829   0.34562   0.00000  Uiso   1.00
H557   H     0.09476   0.96301   0.24668   0.00000  Uiso   1.00
H558   H     0.30345   0.77325   0.21417   0.00000  Uiso   1.00
H559   H     0.05364   0.77343   0.21369   0.00000  Uiso   1.00
H560   H     0.15317   0.86248   0.08525   0.00000  Uiso   1.00
H561   H     0.05428   0.86103   0.42549   0.00000  Uiso   1.00
H562   H     0.09453   0.86409   0.06269   0.00000  Uiso   1.00
H563   H     0.03714   0.87861   0.02088   0.00000  Uiso   1.00
N564   N     0.04760   0.83334   0.25002   0.00000  Uiso   1.00
N565   N     0.28573   0.83331   0.25001   0.00000  Uiso   1.00
O566   O     0.12846   0.89442   0.25001   0.00000  Uiso   1.00
O567   O     0.03345   0.90150   0.28950   0.00000  Uiso   1.00
O568   O     0.27622   0.90358   0.28291   0.00000  Uiso   1.00
O569   O     0.25976   0.74674   0.41276   0.00000  Uiso   1.00
O570   O     0.33089   0.79556   0.41614   0.00000  Uiso   1.00
O571   O     0.14491   0.74296   0.37476   0.00000  Uiso   1.00
O572   O     0.20490   0.89441   0.25001   0.00000  Uiso   1.00
O573   O     0.10947   0.83333   0.32681   0.00000  Uiso   1.00
O574   O     0.18591   0.83332   0.32681   0.00000  Uiso   1.00
O575   O     0.12843   0.77226   0.25000   0.00000  Uiso   1.00
O576   O     0.20488   0.77225   0.25000   0.00000  Uiso   1.00
O577   O     0.14742   0.83335   0.17319   0.00000  Uiso   1.00
O578   O     0.22387   0.83334   0.17319   0.00000  Uiso   1.00
O579   O     0.33150   0.79994   0.06607   0.00000  Uiso   1.00
Zn580  Zn    0.11562   0.83334   0.25000   0.00000  Uiso   1.00
Zn581  Zn    0.21771   0.83333   0.25000   0.00000  Uiso   1.00
C582   C     0.50045   0.91330   0.24848   0.00000  Uiso   1.00
C583   C     0.45538   0.83008   0.41274   0.00000  Uiso   1.00
C584   C     0.54320   0.97856   0.24243   0.00000  Uiso   1.00
C585   C     0.47291   0.83187   0.35257   0.00000  Uiso   1.00
C586   C     0.54307   0.68780   0.24314   0.00000  Uiso   1.00
C587   C     0.50118   0.70918   0.24634   0.00000  Uiso   1.00
C588   C     0.46003   0.68814   0.24683   0.00000  Uiso   1.00
C589   C     0.46025   0.97891   0.24603   0.00000  Uiso   1.00
C590   C     0.50134   0.95749   0.24549   0.00000  Uiso   1.00
C591   C     0.64929   0.79997   0.23036   0.00000  Uiso   1.00
C592   C     0.36375   0.80008   0.23009   0.00000  Uiso   1.00
C593   C     0.48085   0.83181   0.49103   0.00000  Uiso   1.00
C594   C     0.35027   0.86656   0.27107   0.00000  Uiso   1.00
C595   C     0.63579   0.86679   0.27062   0.00000  Uiso   1.00
C596   C     0.50041   0.75337   0.24882   0.00000  Uiso   1.00
C597   C     0.52740   0.83247   0.14744   0.00000  Uiso   1.00
C598   C     0.59872   0.79798   0.00069   0.00000  Uiso   1.00
C599   C     0.54580   0.82783   0.08757   0.00000  Uiso   1.00
C600   C     0.41284   0.85121   0.44345   0.00000  Uiso   1.00
C601   C     0.40342   0.86199   0.49757   0.00000  Uiso   1.00
C602   C     0.43744   0.85363   0.02093   0.00000  Uiso   1.00
C603   C     0.62196   0.79167   0.08391   0.00000  Uiso   1.00
C604   C     0.48621   0.81509   0.43909   0.00000  Uiso   1.00
C605   C     0.35708   0.89755   0.34617   0.00000  Uiso   1.00
C606   C     0.38409   0.93070   0.36517   0.00000  Uiso   1.00
C607   C     0.57768   0.90521   0.33843   0.00000  Uiso   1.00
C608   C     0.57891   0.94848   0.36177   0.00000  Uiso   1.00
C609   C     0.57876   0.71035   0.44439   0.00000  Uiso   1.00
C610   C     0.62302   0.68315   0.43554   0.00000  Uiso   1.00
C611   C     0.64805   0.78481   0.46397   0.00000  Uiso   1.00
C612   C     0.51776   0.75329   0.37454   0.00000  Uiso   1.00
C613   C     0.51856   0.82562   0.01124   0.00000  Uiso   1.00
C614   C     0.56015   0.80171   0.48080   0.00000  Uiso   1.00
C615   C     0.55935   0.77807   0.43534   0.00000  Uiso   1.00
C616   C     0.52201   0.78397   0.41526   0.00000  Uiso   1.00
C617   C     0.51526   0.84172   0.06201   0.00000  Uiso   1.00
C618   C     0.58920   0.80689   0.05673   0.00000  Uiso   1.00
H619   H     0.57548   0.70378   0.24169   0.00000  Uiso   1.00
H620   H     0.57584   0.96240   0.24007   0.00000  Uiso   1.00
H621   H     0.60753   0.77364   0.12109   0.00000  Uiso   1.00
H622   H     0.36651   0.86626   0.35615   0.00000  Uiso   1.00
H623   H     0.65188   0.90209   0.37050   0.00000  Uiso   1.00
H624   H     0.37013   0.93234   0.41065   0.00000  Uiso   1.00
H625   H     0.42316   0.92321   0.35048   0.00000  Uiso   1.00
H626   H     0.37872   0.96158   0.34968   0.00000  Uiso   1.00
H627   H     0.58452   0.88101   0.36498   0.00000  Uiso   1.00
H628   H     0.54013   0.90130   0.34103   0.00000  Uiso   1.00
H629   H     0.61660   0.95915   0.35028   0.00000  Uiso   1.00
H630   H     0.42756   0.70436   0.24842   0.00000  Uiso   1.00
H631   H     0.55946   0.97097   0.34520   0.00000  Uiso   1.00
H632   H     0.56110   0.94807   0.40709   0.00000  Uiso   1.00
H633   H     0.55291   0.69287   0.43084   0.00000  Uiso   1.00
H634   H     0.56138   0.71677   0.48930   0.00000  Uiso   1.00
H635   H     0.64614   0.69733   0.45581   0.00000  Uiso   1.00
H636   H     0.61177   0.98533   0.45337   0.00000  Uiso   1.00
H637   H     0.64448   0.67975   0.39109   0.00000  Uiso   1.00
H638   H     0.33757   0.76636   0.47920   0.00000  Uiso   1.00
H639   H     0.54978   0.73829   0.34562   0.00000  Uiso   1.00
H640   H     0.42809   0.96301   0.24668   0.00000  Uiso   1.00
H641   H     0.63678   0.77325   0.21417   0.00000  Uiso   1.00
H642   H     0.38697   0.77343   0.21369   0.00000  Uiso   1.00
H643   H     0.48651   0.86248   0.08525   0.00000  Uiso   1.00
H644   H     0.38761   0.86103   0.42549   0.00000  Uiso   1.00
H645   H     0.42787   0.86409   0.06269   0.00000  Uiso   1.00
H646   H     0.37048   0.87861   0.02088   0.00000  Uiso   1.00
N647   N     0.38093   0.83334   0.25002   0.00000  Uiso   1.00
N648   N     0.61906   0.83331   0.25001   0.00000  Uiso   1.00
O649   O     0.46179   0.89442   0.25001   0.00000  Uiso   1.00
O650   O     0.36678   0.90150   0.28950   0.00000  Uiso   1.00
O651   O     0.60956   0.90358   0.28291   0.00000  Uiso   1.00
O652   O     0.59309   0.74674   0.41276   0.00000  Uiso   1.00
O653   O     0.66422   0.79556   0.41614   0.00000  Uiso   1.00
O654   O     0.47825   0.74296   0.37476   0.00000  Uiso   1.00
O655   O     0.53823   0.89441   0.25001   0.00000  Uiso   1.00
O656   O     0.44280   0.83333   0.32681   0.00000  Uiso   1.00
O657   O     0.51924   0.83332   0.32681   0.00000  Uiso   1.00
O658   O     0.46177   0.77226   0.25000   0.00000  Uiso   1.00
O659   O     0.53821   0.77225   0.25000   0.00000  Uiso   1.00
O660   O     0.48076   0.83335   0.17319   0.00000  Uiso   1.00
O661   O     0.55720   0.83334   0.17319   0.00000  Uiso   1.00
O662   O     0.66483   0.79994   0.06607   0.00000  Uiso   1.00
Zn663  Zn    0.44896   0.83334   0.25000   0.00000  Uiso   1.00
Zn664  Zn    0.55104   0.83333   0.25000   0.00000  Uiso   1.00
C665   C     0.83378   0.91330   0.24848   0.00000  Uiso   1.00
C666   C     0.78871   0.83008   0.41274   0.00000  Uiso   1.00
C667   C     0.87654   0.97856   0.24243   0.00000  Uiso   1.00
C668   C     0.80624   0.83187   0.35257   0.00000  Uiso   1.00
C669   C     0.87640   0.68780   0.24314   0.00000  Uiso   1.00
C670   C     0.83451   0.70918   0.24634   0.00000  Uiso   1.00
C671   C     0.79336   0.68814   0.24683   0.00000  Uiso   1.00
C672   C     0.79359   0.97891   0.24603   0.00000  Uiso   1.00
C673   C     0.83467   0.95749   0.24549   0.00000  Uiso   1.00
C674   C     0.98262   0.79997   0.23036   0.00000  Uiso   1.00
C675   C     0.69708   0.80008   0.23009   0.00000  Uiso   1.00
C676   C     0.81418   0.83181   0.49103   0.00000  Uiso   1.00
C677   C     0.68360   0.86656   0.27107   0.00000  Uiso   1.00
C678   C     0.96913   0.86679   0.27062   0.00000  Uiso   1.00
C679   C     0.83374   0.75337   0.24882   0.00000  Uiso   1.00
C680   C     0.86073   0.83247   0.14744   0.00000  Uiso   1.00
C681   C     0.93205   0.79798   0.00069   0.00000  Uiso   1.00
C682   C     0.87913   0.82783   0.08757   0.00000  Uiso   1.00
C683   C     0.74617   0.85121   0.44345   0.00000  Uiso   1.00
C684   C     0.73676   0.86199   0.49757   0.00000  Uiso   1.00
C685   C     0.77077   0.85363   0.02093   0.00000  Uiso   1.00
C686   C     0.95529   0.79167   0.08391   0.00000  Uiso   1.00
C687   C     0.81954   0.81509   0.43909   0.00000  Uiso   1.00
C688   C     0.69041   0.89755   0.34617   0.00000  Uiso   1.00
C689   C     0.71743   0.93070   0.36517   0.00000  Uiso   1.00
C690   C     0.91102   0.90521   0.33843   0.00000  Uiso   1.00
C691   C     0.91224   0.94848   0.36177   0.00000  Uiso   1.00
C692   C     0.91210   0.71035   0.44439   0.00000  Uiso   1.00
C693   C     0.95635   0.68315   0.43554   0.00000  Uiso   1.00
C694   C     0.98138   0.78481   0.46397   0.00000  Uiso   1.00
C695   C     0.85109   0.75329   0.37454   0.00000  Uiso   1.00
C696   C     0.85190   0.82562   0.01124   0.00000  Uiso   1.00
C697   C     0.89348   0.80171   0.48080   0.00000  Uiso   1.00
C698   C     0.89268   0.77807   0.43534   0.00000  Uiso   1.00
C699   C     0.85535   0.78397   0.41526   0.00000  Uiso   1.00
C700   C     0.84859   0.84172   0.06201   0.00000  Uiso   1.00
C701   C     0.92254   0.80689   0.05673   0.00000  Uiso   1.00
H702   H     0.90881   0.70378   0.24169   0.00000  Uiso   1.00
H703   H     0.90917   0.96240   0.24007   0.00000  Uiso   1.00
H704   H     0.94086   0.77364   0.12109   0.00000  Uiso   1.00
H705   H     0.69984   0.86626   0.35615   0.00000  Uiso   1.00
H706   H     0.98521   0.90209   0.37050   0.00000  Uiso   1.00
H707   H     0.70346   0.93234   0.41065   0.00000  Uiso   1.00
H708   H     0.75650   0.92321   0.35048   0.00000  Uiso   1.00
H709   H     0.71205   0.96158   0.34968   0.00000  Uiso   1.00
H710   H     0.91786   0.88101   0.36498   0.00000  Uiso   1.00
H711   H     0.87346   0.90130   0.34103   0.00000  Uiso   1.00
H712   H     0.94993   0.95915   0.35028   0.00000  Uiso   1.00
H713   H     0.76090   0.70436   0.24842   0.00000  Uiso   1.00
H714   H     0.89279   0.97097   0.34520   0.00000  Uiso   1.00
H715   H     0.89443   0.94807   0.40709   0.00000  Uiso   1.00
H716   H     0.88624   0.69287   0.43084   0.00000  Uiso   1.00
H717   H     0.89472   0.71677   0.48930   0.00000  Uiso   1.00
H718   H     0.97948   0.69733   0.45581   0.00000  Uiso   1.00
H719   H     0.94510   0.98533   0.45337   0.00000  Uiso   1.00
H720   H     0.97781   0.67975   0.39109   0.00000  Uiso   1.00
H721   H     0.67090   0.76636   0.47920   0.00000  Uiso   1.00
H722   H     0.88312   0.73829   0.34562   0.00000  Uiso   1.00
H723   H     0.76143   0.96301   0.24668   0.00000  Uiso   1.00
H724   H     0.97011   0.77325   0.21417   0.00000  Uiso   1.00
H725   H     0.72031   0.77343   0.21369   0.00000  Uiso   1.00
H726   H     0.81984   0.86248   0.08525   0.00000  Uiso   1.00
H727   H     0.72094   0.86103   0.42549   0.00000  Uiso   1.00
H728   H     0.76120   0.86409   0.06269   0.00000  Uiso   1.00
H729   H     0.70381   0.87861   0.02088   0.00000  Uiso   1.00
N730   N     0.71426   0.83334   0.25002   0.00000  Uiso   1.00
N731   N     0.95239   0.83331   0.25001   0.00000  Uiso   1.00
O732   O     0.79512   0.89442   0.25001   0.00000  Uiso   1.00
O733   O     0.70011   0.90150   0.28950   0.00000  Uiso   1.00
O734   O     0.94289   0.90358   0.28291   0.00000  Uiso   1.00
O735   O     0.92642   0.74674   0.41276   0.00000  Uiso   1.00
O736   O     0.99755   0.79556   0.41614   0.00000  Uiso   1.00
O737   O     0.81158   0.74296   0.37476   0.00000  Uiso   1.00
O738   O     0.87157   0.89441   0.25001   0.00000  Uiso   1.00
O739   O     0.77613   0.83333   0.32681   0.00000  Uiso   1.00
O740   O     0.85258   0.83332   0.32681   0.00000  Uiso   1.00
O741   O     0.79510   0.77226   0.25000   0.00000  Uiso   1.00
O742   O     0.87154   0.77225   0.25000   0.00000  Uiso   1.00
O743   O     0.81409   0.83335   0.17319   0.00000  Uiso   1.00
O744   O     0.89053   0.83334   0.17319   0.00000  Uiso   1.00
O745   O     0.99817   0.79994   0.06607   0.00000  Uiso   1.00
Zn746  Zn    0.78229   0.83334   0.25000   0.00000  Uiso   1.00
Zn747  Zn    0.88438   0.83333   0.25000   0.00000  Uiso   1.00
C748   C     0.16711   0.24663   0.74848   0.00000  Uiso   1.00
C749   C     0.12205   0.16342   0.91274   0.00000  Uiso   1.00
C750   C     0.20987   0.31190   0.74243   0.00000  Uiso   1.00
C751   C     0.13957   0.16521   0.85257   0.00000  Uiso   1.00
C752   C     0.20974   0.02113   0.74314   0.00000  Uiso   1.00
C753   C     0.16785   0.04252   0.74634   0.00000  Uiso   1.00
C754   C     0.12670   0.02147   0.74683   0.00000  Uiso   1.00
C755   C     0.12692   0.31225   0.74603   0.00000  Uiso   1.00
C756   C     0.16801   0.29082   0.74549   0.00000  Uiso   1.00
C757   C     0.31595   0.13330   0.73036   0.00000  Uiso   1.00
C758   C     0.03041   0.13341   0.73009   0.00000  Uiso   1.00
C759   C     0.14751   0.16514   0.99103   0.00000  Uiso   1.00
C760   C     0.01693   0.19989   0.77107   0.00000  Uiso   1.00
C761   C     0.30246   0.20013   0.77062   0.00000  Uiso   1.00
C762   C     0.16708   0.08670   0.74882   0.00000  Uiso   1.00
C763   C     0.19406   0.16581   0.64744   0.00000  Uiso   1.00
C764   C     0.26538   0.13132   0.50069   0.00000  Uiso   1.00
C765   C     0.21246   0.16116   0.58757   0.00000  Uiso   1.00
C766   C     0.07951   0.18454   0.94345   0.00000  Uiso   1.00
C767   C     0.07009   0.19533   0.99757   0.00000  Uiso   1.00
C768   C     0.10410   0.18697   0.52093   0.00000  Uiso   1.00
C769   C     0.28863   0.12501   0.58391   0.00000  Uiso   1.00
C770   C     0.15288   0.14842   0.93909   0.00000  Uiso   1.00
C771   C     0.02375   0.23088   0.84617   0.00000  Uiso   1.00
C772   C     0.05076   0.26403   0.86517   0.00000  Uiso   1.00
C773   C     0.24435   0.23855   0.83843   0.00000  Uiso   1.00
C774   C     0.24557   0.28181   0.86177   0.00000  Uiso   1.00
C775   C     0.24543   0.04368   0.94439   0.00000  Uiso   1.00
C776   C     0.28968   0.01648   0.93554   0.00000  Uiso   1.00
C777   C     0.31472   0.11815   0.96397   0.00000  Uiso   1.00
C778   C     0.18442   0.08662   0.87454   0.00000  Uiso   1.00
C779   C     0.18523   0.15895   0.51124   0.00000  Uiso   1.00
C780   C     0.22681   0.13505   0.98080   0.00000  Uiso   1.00
C781   C     0.22602   0.11140   0.93534   0.00000  Uiso   1.00
C782   C     0.18868   0.11730   0.91526   0.00000  Uiso   1.00
C783   C     0.18192   0.17505   0.56201   0.00000  Uiso   1.00
C784   C     0.25587   0.14022   0.55673   0.00000  Uiso   1.00
H785   H     0.24214   0.03711   0.74169   0.00000  Uiso   1.00
H786   H     0.24250   0.29573   0.74007   0.00000  Uiso   1.00
H787   H     0.27419   0.10697   0.62109   0.00000  Uiso   1.00
H788   H     0.03317   0.19960   0.85615   0.00000  Uiso   1.00
H789   H     0.31854   0.23542   0.87050   0.00000  Uiso   1.00
H790   H     0.03679   0.26567   0.91065   0.00000  Uiso   1.00
H791   H     0.08983   0.25654   0.85048   0.00000  Uiso   1.00
H792   H     0.04538   0.29491   0.84968   0.00000  Uiso   1.00
H793   H     0.25119   0.21434   0.86498   0.00000  Uiso   1.00
H794   H     0.20679   0.23464   0.84103   0.00000  Uiso   1.00
H795   H     0.28327   0.29248   0.85028   0.00000  Uiso   1.00
H796   H     0.09423   0.03770   0.74842   0.00000  Uiso   1.00
H797   H     0.22613   0.30430   0.84520   0.00000  Uiso   1.00
H798   H     0.22776   0.28141   0.90709   0.00000  Uiso   1.00
H799   H     0.21957   0.02620   0.93084   0.00000  Uiso   1.00
H800   H     0.22805   0.05010   0.98930   0.00000  Uiso   1.00
H801   H     0.31281   0.03067   0.95581   0.00000  Uiso   1.00
H802   H     0.27844   0.31866   0.95337   0.00000  Uiso   1.00
H803   H     0.31115   0.01309   0.89109   0.00000  Uiso   1.00
H804   H     0.00423   0.09970   0.97920   0.00000  Uiso   1.00
H805   H     0.21645   0.07162   0.84562   0.00000  Uiso   1.00
H806   H     0.09476   0.29634   0.74668   0.00000  Uiso   1.00
H807   H     0.30345   0.10658   0.71417   0.00000  Uiso   1.00
H808   H     0.05364   0.10677   0.71369   0.00000  Uiso   1.00
H809   H     0.15317   0.19582   0.58525   0.00000  Uiso   1.00
H810   H     0.05428   0.19436   0.92549   0.00000  Uiso   1.00
H811   H     0.09453   0.19743   0.56269   0.00000  Uiso   1.00
H812   H     0.03714   0.21195   0.52088   0.00000  Uiso   1.00
N813   N     0.04760   0.16668   0.75002   0.00000  Uiso   1.00
N814   N     0.28573   0.16665   0.75001   0.00000  Uiso   1.00
O815   O     0.12846   0.22775   0.75001   0.00000  Uiso   1.00
O816   O     0.03345   0.23483   0.78950   0.00000  Uiso   1.00
O817   O     0.27622   0.23692   0.78291   0.00000  Uiso   1.00
O818   O     0.25976   0.08008   0.91276   0.00000  Uiso   1.00
O819   O     0.33089   0.12890   0.91614   0.00000  Uiso   1.00
O820   O     0.14491   0.07629   0.87476   0.00000  Uiso   1.00
O821   O     0.20490   0.22774   0.75001   0.00000  Uiso   1.00
O822   O     0.10947   0.16666   0.82681   0.00000  Uiso   1.00
O823   O     0.18591   0.16665   0.82681   0.00000  Uiso   1.00
O824   O     0.12843   0.10559   0.75000   0.00000  Uiso   1.00
O825   O     0.20488   0.10558   0.75000   0.00000  Uiso   1.00
O826   O     0.14742   0.16668   0.67319   0.00000  Uiso   1.00
O827   O     0.22387   0.16667   0.67319   0.00000  Uiso   1.00
O828   O     0.33150   0.13327   0.56607   0.00000  Uiso   1.00
Zn829  Zn    0.11562   0.16667   0.75000   0.00000  Uiso   1.00
Zn830  Zn    0.21771   0.16666   0.75000   0.00000  Uiso   1.00
C831   C     0.50045   0.24663   0.74848   0.00000  Uiso   1.00
C832   C     0.45538   0.16342   0.91274   0.00000  Uiso   1.00
C833   C     0.54320   0.31190   0.74243   0.00000  Uiso   1.00
C834   C     0.47291   0.16521   0.85257   0.00000  Uiso   1.00
C835   C     0.54307   0.02113   0.74314   0.00000  Uiso   1.00
C836   C     0.50118   0.04252   0.74634   0.00000  Uiso   1.00
C837   C     0.46003   0.02147   0.74683   0.00000  Uiso   1.00
C838   C     0.46025   0.31225   0.74603   0.00000  Uiso   1.00
C839   C     0.50134   0.29082   0.74549   0.00000  Uiso   1.00
C840   C     0.64929   0.13330   0.73036   0.00000  Uiso   1.00
C841   C     0.36375   0.13341   0.73009   0.00000  Uiso   1.00
C842   C     0.48085   0.16514   0.99103   0.00000  Uiso   1.00
C843   C     0.35027   0.19989   0.77107   0.00000  Uiso   1.00
C844   C     0.63579   0.20013   0.77062   0.00000  Uiso   1.00
C845   C     0.50041   0.08670   0.74882   0.00000  Uiso   1.00
C846   C     0.52740   0.16581   0.64744   0.00000  Uiso   1.00
C847   C     0.59872   0.13132   0.50069   0.00000  Uiso   1.00
C848   C     0.54580   0.16116   0.58757   0.00000  Uiso   1.00
C849   C     0.41284   0.18454   0.94345   0.00000  Uiso   1.00
C850   C     0.40342   0.19533   0.99757   0.00000  Uiso   1.00
C851   C     0.43744   0.18697   0.52093   0.00000  Uiso   1.00
C852   C     0.62196   0.12501   0.58391   0.00000  Uiso   1.00
C853   C     0.48621   0.14842   0.93909   0.00000  Uiso   1.00
C854   C     0.35708   0.23088   0.84617   0.00000  Uiso   1.00
C855   C     0.38409   0.26403   0.86517   0.00000  Uiso   1.00
C856   C     0.57768   0.23855   0.83843   0.00000  Uiso   1.00
C857   C     0.57891   0.28181   0.86177   0.00000  Uiso   1.00
C858   C     0.57876   0.04368   0.94439   0.00000  Uiso   1.00
C859   C     0.62302   0.01648   0.93554   0.00000  Uiso   1.00
C860   C     0.64805   0.11815   0.96397   0.00000  Uiso   1.00
C861   C     0.51776   0.08662   0.87454   0.00000  Uiso   1.00
C862   C     0.51856   0.15895   0.51124   0.00000  Uiso   1.00
C863   C     0.56015   0.13505   0.98080   0.00000  Uiso   1.00
C864   C     0.55935   0.11140   0.93534   0.00000  Uiso   1.00
C865   C     0.52201   0.11730   0.91526   0.00000  Uiso   1.00
C866   C     0.51526   0.17505   0.56201   0.00000  Uiso   1.00
C867   C     0.58920   0.14022   0.55673   0.00000  Uiso   1.00
H868   H     0.57548   0.03711   0.74169   0.00000  Uiso   1.00
H869   H     0.57584   0.29573   0.74007   0.00000  Uiso   1.00
H870   H     0.60753   0.10697   0.62109   0.00000  Uiso   1.00
H871   H     0.36651   0.19960   0.85615   0.00000  Uiso   1.00
H872   H     0.65188   0.23542   0.87050   0.00000  Uiso   1.00
H873   H     0.37013   0.26567   0.91065   0.00000  Uiso   1.00
H874   H     0.42316   0.25654   0.85048   0.00000  Uiso   1.00
H875   H     0.37872   0.29491   0.84968   0.00000  Uiso   1.00
H876   H     0.58452   0.21434   0.86498   0.00000  Uiso   1.00
H877   H     0.54013   0.23464   0.84103   0.00000  Uiso   1.00
H878   H     0.61660   0.29248   0.85028   0.00000  Uiso   1.00
H879   H     0.42756   0.03770   0.74842   0.00000  Uiso   1.00
H880   H     0.55946   0.30430   0.84520   0.00000  Uiso   1.00
H881   H     0.56110   0.28141   0.90709   0.00000  Uiso   1.00
H882   H     0.55291   0.02620   0.93084   0.00000  Uiso   1.00
H883   H     0.56138   0.05010   0.98930   0.00000  Uiso   1.00
H884   H     0.64614   0.03067   0.95581   0.00000  Uiso   1.00
H885   H     0.61177   0.31866   0.95337   0.00000  Uiso   1.00
H886   H     0.64448   0.01309   0.89109   0.00000  Uiso   1.00
H887   H     0.33757   0.09970   0.97920   0.00000  Uiso   1.00
H888   H     0.54978   0.07162   0.84562   0.00000  Uiso   1.00
H889   H     0.42809   0.29634   0.74668   0.00000  Uiso   1.00
H890   H     0.63678   0.10658   0.71417   0.00000  Uiso   1.00
H891   H     0.38697   0.10677   0.71369   0.00000  Uiso   1.00
H892   H     0.48651   0.19582   0.58525   0.00000  Uiso   1.00
H893   H     0.38761   0.19436   0.92549   0.00000  Uiso   1.00
H894   H     0.42787   0.19743   0.56269   0.00000  Uiso   1.00
H895   H     0.37048   0.21195   0.52088   0.00000  Uiso   1.00
N896   N     0.38093   0.16668   0.75002   0.00000  Uiso   1.00
N897   N     0.61906   0.16665   0.75001   0.00000  Uiso   1.00
O898   O     0.46179   0.22775   0.75001   0.00000  Uiso   1.00
O899   O     0.36678   0.23483   0.78950   0.00000  Uiso   1.00
O900   O     0.60956   0.23692   0.78291   0.00000  Uiso   1.00
O901   O     0.59309   0.08008   0.91276   0.00000  Uiso   1.00
O902   O     0.66422   0.12890   0.91614   0.00000  Uiso   1.00
O903   O     0.47825   0.07629   0.87476   0.00000  Uiso   1.00
O904   O     0.53823   0.22774   0.75001   0.00000  Uiso   1.00
O905   O     0.44280   0.16666   0.82681   0.00000  Uiso   1.00
O906   O     0.51924   0.16665   0.82681   0.00000  Uiso   1.00
O907   O     0.46177   0.10559   0.75000   0.00000  Uiso   1.00
O908   O     0.53821   0.10558   0.75000   0.00000  Uiso   1.00
O909   O     0.48076   0.16668   0.67319   0.00000  Uiso   1.00
O910   O     0.55720   0.16667   0.67319   0.00000  Uiso   1.00
O911   O     0.66483   0.13327   0.56607   0.00000  Uiso   1.00
Zn912  Zn    0.44896   0.16667   0.75000   0.00000  Uiso   1.00
Zn913  Zn    0.55104   0.16666   0.75000   0.00000  Uiso   1.00
C914   C     0.83378   0.24663   0.74848   0.00000  Uiso   1.00
C915   C     0.78871   0.16342   0.91274   0.00000  Uiso   1.00
C916   C     0.87654   0.31190   0.74243   0.00000  Uiso   1.00
C917   C     0.80624   0.16521   0.85257   0.00000  Uiso   1.00
C918   C     0.87640   0.02113   0.74314   0.00000  Uiso   1.00
C919   C     0.83451   0.04252   0.74634   0.00000  Uiso   1.00
C920   C     0.79336   0.02147   0.74683   0.00000  Uiso   1.00
C921   C     0.79359   0.31225   0.74603   0.00000  Uiso   1.00
C922   C     0.83467   0.29082   0.74549   0.00000  Uiso   1.00
C923   C     0.98262   0.13330   0.73036   0.00000  Uiso   1.00
C924   C     0.69708   0.13341   0.73009   0.00000  Uiso   1.00
C925   C     0.81418   0.16514   0.99103   0.00000  Uiso   1.00
C926   C     0.68360   0.19989   0.77107   0.00000  Uiso   1.00
C927   C     0.96913   0.20013   0.77062   0.00000  Uiso   1.00
C928   C     0.83374   0.08670   0.74882   0.00000  Uiso   1.00
C929   C     0.86073   0.16581   0.64744   0.00000  Uiso   1.00
C930   C     0.93205   0.13132   0.50069   0.00000  Uiso   1.00
C931   C     0.87913   0.16116   0.58757   0.00000  Uiso   1.00
C932   C     0.74617   0.18454   0.94345   0.00000  Uiso   1.00
C933   C     0.73676   0.19533   0.99757   0.00000  Uiso   1.00
C934   C     0.77077   0.18697   0.52093   0.00000  Uiso   1.00
C935   C     0.95529   0.12501   0.58391   0.00000  Uiso   1.00
C936   C     0.81954   0.14842   0.93909   0.00000  Uiso   1.00
C937   C     0.69041   0.23088   0.84617   0.00000  Uiso   1.00
C938   C     0.71743   0.26403   0.86517   0.00000  Uiso   1.00
C939   C     0.91102   0.23855   0.83843   0.00000  Uiso   1.00
C940   C     0.91224   0.28181   0.86177   0.00000  Uiso   1.00
C941   C     0.91210   0.04368   0.94439   0.00000  Uiso   1.00
C942   C     0.95635   0.01648   0.93554   0.00000  Uiso   1.00
C943   C     0.98138   0.11815   0.96397   0.00000  Uiso   1.00
C944   C     0.85109   0.08662   0.87454   0.00000  Uiso   1.00
C945   C     0.85190   0.15895   0.51124   0.00000  Uiso   1.00
C946   C     0.89348   0.13505   0.98080   0.00000  Uiso   1.00
C947   C     0.89268   0.11140   0.93534   0.00000  Uiso   1.00
C948   C     0.85535   0.11730   0.91526   0.00000  Uiso   1.00
C949   C     0.84859   0.17505   0.56201   0.00000  Uiso   1.00
C950   C     0.92254   0.14022   0.55673   0.00000  Uiso   1.00
H951   H     0.90881   0.03711   0.74169   0.00000  Uiso   1.00
H952   H     0.90917   0.29573   0.74007   0.00000  Uiso   1.00
H953   H     0.94086   0.10697   0.62109   0.00000  Uiso   1.00
H954   H     0.69984   0.19960   0.85615   0.00000  Uiso   1.00
H955   H     0.98521   0.23542   0.87050   0.00000  Uiso   1.00
H956   H     0.70346   0.26567   0.91065   0.00000  Uiso   1.00
H957   H     0.75650   0.25654   0.85048   0.00000  Uiso   1.00
H958   H     0.71205   0.29491   0.84968   0.00000  Uiso   1.00
H959   H     0.91786   0.21434   0.86498   0.00000  Uiso   1.00
H960   H     0.87346   0.23464   0.84103   0.00000  Uiso   1.00
H961   H     0.94993   0.29248   0.85028   0.00000  Uiso   1.00
H962   H     0.76090   0.03770   0.74842   0.00000  Uiso   1.00
H963   H     0.89279   0.30430   0.84520   0.00000  Uiso   1.00
H964   H     0.89443   0.28141   0.90709   0.00000  Uiso   1.00
H965   H     0.88624   0.02620   0.93084   0.00000  Uiso   1.00
H966   H     0.89472   0.05010   0.98930   0.00000  Uiso   1.00
H967   H     0.97948   0.03067   0.95581   0.00000  Uiso   1.00
H968   H     0.94510   0.31866   0.95337   0.00000  Uiso   1.00
H969   H     0.97781   0.01309   0.89109   0.00000  Uiso   1.00
H970   H     0.67090   0.09970   0.97920   0.00000  Uiso   1.00
H971   H     0.88312   0.07162   0.84562   0.00000  Uiso   1.00
H972   H     0.76143   0.29634   0.74668   0.00000  Uiso   1.00
H973   H     0.97011   0.10658   0.71417   0.00000  Uiso   1.00
H974   H     0.72031   0.10677   0.71369   0.00000  Uiso   1.00
H975   H     0.81984   0.19582   0.58525   0.00000  Uiso   1.00
H976   H     0.72094   0.19436   0.92549   0.00000  Uiso   1.00
H977   H     0.76120   0.19743   0.56269   0.00000  Uiso   1.00
H978   H     0.70381   0.21195   0.52088   0.00000  Uiso   1.00
N979   N     0.71426   0.16668   0.75002   0.00000  Uiso   1.00
N980   N     0.95239   0.16665   0.75001   0.00000  Uiso   1.00
O981   O     0.79512   0.22775   0.75001   0.00000  Uiso   1.00
O982   O     0.70011   0.23483   0.78950   0.00000  Uiso   1.00
O983   O     0.94289   0.23692   0.78291   0.00000  Uiso   1.00
O984   O     0.92642   0.08008   0.91276   0.00000  Uiso   1.00
O985   O     0.99755   0.12890   0.91614   0.00000  Uiso   1.00
O986   O     0.81158   0.07629   0.87476   0.00000  Uiso   1.00
O987   O     0.87157   0.22774   0.75001   0.00000  Uiso   1.00
O988   O     0.77613   0.16666   0.82681   0.00000  Uiso   1.00
O989   O     0.85258   0.16665   0.82681   0.00000  Uiso   1.00
O990   O     0.79510   0.10559   0.75000   0.00000  Uiso   1.00
O991   O     0.87154   0.10558   0.75000   0.00000  Uiso   1.00
O992   O     0.81409   0.16668   0.67319   0.00000  Uiso   1.00
O993   O     0.89053   0.16667   0.67319   0.00000  Uiso   1.00
O994   O     0.99817   0.13327   0.56607   0.00000  Uiso   1.00
Zn995  Zn    0.78229   0.16667   0.75000   0.00000  Uiso   1.00
Zn996  Zn    0.88438   0.16666   0.75000   0.00000  Uiso   1.00
C997   C     0.16711   0.57996   0.74848   0.00000  Uiso   1.00
C998   C     0.12205   0.49675   0.91274   0.00000  Uiso   1.00
C999   C     0.20987   0.64523   0.74243   0.00000  Uiso   1.00
C1000  C     0.13957   0.49854   0.85257   0.00000  Uiso   1.00
C1001  C     0.20974   0.35447   0.74314   0.00000  Uiso   1.00
C1002  C     0.16785   0.37585   0.74634   0.00000  Uiso   1.00
C1003  C     0.12670   0.35480   0.74683   0.00000  Uiso   1.00
C1004  C     0.12692   0.64558   0.74603   0.00000  Uiso   1.00
C1005  C     0.16801   0.62416   0.74549   0.00000  Uiso   1.00
C1006  C     0.31595   0.46664   0.73036   0.00000  Uiso   1.00
C1007  C     0.03041   0.46675   0.73009   0.00000  Uiso   1.00
C1008  C     0.14751   0.49848   0.99103   0.00000  Uiso   1.00
C1009  C     0.01693   0.53323   0.77107   0.00000  Uiso   1.00
C1010  C     0.30246   0.53346   0.77062   0.00000  Uiso   1.00
C1011  C     0.16708   0.42004   0.74882   0.00000  Uiso   1.00
C1012  C     0.19406   0.49914   0.64744   0.00000  Uiso   1.00
C1013  C     0.26538   0.46465   0.50069   0.00000  Uiso   1.00
C1014  C     0.21246   0.49450   0.58757   0.00000  Uiso   1.00
C1015  C     0.07951   0.51787   0.94345   0.00000  Uiso   1.00
C1016  C     0.07009   0.52866   0.99757   0.00000  Uiso   1.00
C1017  C     0.10410   0.52030   0.52093   0.00000  Uiso   1.00
C1018  C     0.28863   0.45834   0.58391   0.00000  Uiso   1.00
C1019  C     0.15288   0.48175   0.93909   0.00000  Uiso   1.00
C1020  C     0.02375   0.56421   0.84617   0.00000  Uiso   1.00
C1021  C     0.05076   0.59736   0.86517   0.00000  Uiso   1.00
C1022  C     0.24435   0.57188   0.83843   0.00000  Uiso   1.00
C1023  C     0.24557   0.61514   0.86177   0.00000  Uiso   1.00
C1024  C     0.24543   0.37702   0.94439   0.00000  Uiso   1.00
C1025  C     0.28968   0.34981   0.93554   0.00000  Uiso   1.00
C1026  C     0.31472   0.45148   0.96397   0.00000  Uiso   1.00
C1027  C     0.18442   0.41995   0.87454   0.00000  Uiso   1.00
C1028  C     0.18523   0.49228   0.51124   0.00000  Uiso   1.00
C1029  C     0.22681   0.46838   0.98080   0.00000  Uiso   1.00
C1030  C     0.22602   0.44473   0.93534   0.00000  Uiso   1.00
C1031  C     0.18868   0.45064   0.91526   0.00000  Uiso   1.00
C1032  C     0.18192   0.50838   0.56201   0.00000  Uiso   1.00
C1033  C     0.25587   0.47355   0.55673   0.00000  Uiso   1.00
H1034  H     0.24214   0.37045   0.74169   0.00000  Uiso   1.00
H1035  H     0.24250   0.62906   0.74007   0.00000  Uiso   1.00
H1036  H     0.27419   0.44030   0.62109   0.00000  Uiso   1.00
H1037  H     0.03317   0.53293   0.85615   0.00000  Uiso   1.00
H1038  H     0.31854   0.56875   0.87050   0.00000  Uiso   1.00
H1039  H     0.03679   0.59900   0.91065   0.00000  Uiso   1.00
H1040  H     0.08983   0.58988   0.85048   0.00000  Uiso   1.00
H1041  H     0.04538   0.62824   0.84968   0.00000  Uiso   1.00
H1042  H     0.25119   0.54768   0.86498   0.00000  Uiso   1.00
H1043  H     0.20679   0.56797   0.84103   0.00000  Uiso   1.00
H1044  H     0.28327   0.62582   0.85028   0.00000  Uiso   1.00
H1045  H     0.09423   0.37103   0.74842   0.00000  Uiso   1.00
H1046  H     0.22613   0.63764   0.84520   0.00000  Uiso   1.00
H1047  H     0.22776   0.61474   0.90709   0.00000  Uiso   1.00
H1048  H     0.21957   0.35953   0.93084   0.00000  Uiso   1.00
H1049  H     0.22805   0.38344   0.98930   0.00000  Uiso   1.00
H1050  H     0.31281   0.36400   0.95581   0.00000  Uiso   1.00
H1051  H     0.27844   0.65200   0.95337   0.00000  Uiso   1.00
H1052  H     0.31115   0.34642   0.89109   0.00000  Uiso   1.00
H1053  H     0.00423   0.43303   0.97920   0.00000  Uiso   1.00
H1054  H     0.21645   0.40496   0.84562   0.00000  Uiso   1.00
H1055  H     0.09476   0.62967   0.74668   0.00000  Uiso   1.00
H1056  H     0.30345   0.43992   0.71417   0.00000  Uiso   1.00
H1057  H     0.05364   0.44010   0.71369   0.00000  Uiso   1.00
H1058  H     0.15317   0.52915   0.58525   0.00000  Uiso   1.00
H1059  H     0.05428   0.52769   0.92549   0.00000  Uiso   1.00
H1060  H     0.09453   0.53076   0.56269   0.00000  Uiso   1.00
H1061  H     0.03714   0.54528   0.52088   0.00000  Uiso   1.00
N1062  N     0.04760   0.50001   0.75002   0.00000  Uiso   1.00
N1063  N     0.28573   0.49998   0.75001   0.00000  Uiso   1.00
O1064  O     0.12846   0.56108   0.75001   0.00000  Uiso   1.00
O1065  O     0.03345   0.56816   0.78950   0.00000  Uiso   1.00
O1066  O     0.27622   0.57025   0.78291   0.00000  Uiso   1.00
O1067  O     0.25976   0.41341   0.91276   0.00000  Uiso   1.00
O1068  O     0.33089   0.46223   0.91614   0.00000  Uiso   1.00
O1069  O     0.14491   0.40963   0.87476   0.00000  Uiso   1.00
O1070  O     0.20490   0.56107   0.75001   0.00000  Uiso   1.00
O1071  O     0.10947   0.50000   0.82681   0.00000  Uiso   1.00
O1072  O     0.18591   0.49999   0.82681   0.00000  Uiso   1.00
O1073  O     0.12843   0.43893   0.75000   0.00000  Uiso   1.00
O1074  O     0.20488   0.43892   0.75000   0.00000  Uiso   1.00
O1075  O     0.14742   0.50001   0.67319   0.00000  Uiso   1.00
O1076  O     0.22387   0.50000   0.67319   0.00000  Uiso   1.00
O1077  O     0.33150   0.46660   0.56607   0.00000  Uiso   1.00
Zn1078 Zn    0.11562   0.50001   0.75000   0.00000  Uiso   1.00
Zn1079 Zn    0.21771   0.49999   0.75000   0.00000  Uiso   1.00
C1080  C     0.50045   0.57996   0.74848   0.00000  Uiso   1.00
C1081  C     0.45538   0.49675   0.91274   0.00000  Uiso   1.00
C1082  C     0.54320   0.64523   0.74243   0.00000  Uiso   1.00
C1083  C     0.47291   0.49854   0.85257   0.00000  Uiso   1.00
C1084  C     0.54307   0.35447   0.74314   0.00000  Uiso   1.00
C1085  C     0.50118   0.37585   0.74634   0.00000  Uiso   1.00
C1086  C     0.46003   0.35480   0.74683   0.00000  Uiso   1.00
C1087  C     0.46025   0.64558   0.74603   0.00000  Uiso   1.00
C1088  C     0.50134   0.62416   0.74549   0.00000  Uiso   1.00
C1089  C     0.64929   0.46664   0.73036   0.00000  Uiso   1.00
C1090  C     0.36375   0.46675   0.73009   0.00000  Uiso   1.00
C1091  C     0.48085   0.49848   0.99103   0.00000  Uiso   1.00
C1092  C     0.35027   0.53323   0.77107   0.00000  Uiso   1.00
C1093  C     0.63579   0.53346   0.77062   0.00000  Uiso   1.00
C1094  C     0.50041   0.42004   0.74882   0.00000  Uiso   1.00
C1095  C     0.52740   0.49914   0.64744   0.00000  Uiso   1.00
C1096  C     0.59872   0.46465   0.50069   0.00000  Uiso   1.00
C1097  C     0.54580   0.49450   0.58757   0.00000  Uiso   1.00
C1098  C     0.41284   0.51787   0.94345   0.00000  Uiso   1.00
C1099  C     0.40342   0.52866   0.99757   0.00000  Uiso   1.00
C1100  C     0.43744   0.52030   0.52093   0.00000  Uiso   1.00
C1101  C     0.62196   0.45834   0.58391   0.00000  Uiso   1.00
C1102  C     0.48621   0.48175   0.93909   0.00000  Uiso   1.00
C1103  C     0.35708   0.56421   0.84617   0.00000  Uiso   1.00
C1104  C     0.38409   0.59736   0.86517   0.00000  Uiso   1.00
C1105  C     0.57768   0.57188   0.83843   0.00000  Uiso   1.00
C1106  C     0.57891   0.61514   0.86177   0.00000  Uiso   1.00
C1107  C     0.57876   0.37702   0.94439   0.00000  Uiso   1.00
C1108  C     0.62302   0.34981   0.93554   0.00000  Uiso   1.00
C1109  C     0.64805   0.45148   0.96397   0.00000  Uiso   1.00
C1110  C     0.51776   0.41995   0.87454   0.00000  Uiso   1.00
C1111  C     0.51856   0.49228   0.51124   0.00000  Uiso   1.00
C1112  C     0.56015   0.46838   0.98080   0.00000  Uiso   1.00
C1113  C     0.55935   0.44473   0.93534   0.00000  Uiso   1.00
C1114  C     0.52201   0.45064   0.91526   0.00000  Uiso   1.00
C1115  C     0.51526   0.50838   0.56201   0.00000  Uiso   1.00
C1116  C     0.58920   0.47355   0.55673   0.00000  Uiso   1.00
H1117  H     0.57548   0.37045   0.74169   0.00000  Uiso   1.00
H1118  H     0.57584   0.62906   0.74007   0.00000  Uiso   1.00
H1119  H     0.60753   0.44030   0.62109   0.00000  Uiso   1.00
H1120  H     0.36651   0.53293   0.85615   0.00000  Uiso   1.00
H1121  H     0.65188   0.56875   0.87050   0.00000  Uiso   1.00
H1122  H     0.37013   0.59900   0.91065   0.00000  Uiso   1.00
H1123  H     0.42316   0.58988   0.85048   0.00000  Uiso   1.00
H1124  H     0.37872   0.62824   0.84968   0.00000  Uiso   1.00
H1125  H     0.58452   0.54768   0.86498   0.00000  Uiso   1.00
H1126  H     0.54013   0.56797   0.84103   0.00000  Uiso   1.00
H1127  H     0.61660   0.62582   0.85028   0.00000  Uiso   1.00
H1128  H     0.42756   0.37103   0.74842   0.00000  Uiso   1.00
H1129  H     0.55946   0.63764   0.84520   0.00000  Uiso   1.00
H1130  H     0.56110   0.61474   0.90709   0.00000  Uiso   1.00
H1131  H     0.55291   0.35953   0.93084   0.00000  Uiso   1.00
H1132  H     0.56138   0.38344   0.98930   0.00000  Uiso   1.00
H1133  H     0.64614   0.36400   0.95581   0.00000  Uiso   1.00
H1134  H     0.61177   0.65200   0.95337   0.00000  Uiso   1.00
H1135  H     0.64448   0.34642   0.89109   0.00000  Uiso   1.00
H1136  H     0.33757   0.43303   0.97920   0.00000  Uiso   1.00
H1137  H     0.54978   0.40496   0.84562   0.00000  Uiso   1.00
H1138  H     0.42809   0.62967   0.74668   0.00000  Uiso   1.00
H1139  H     0.63678   0.43992   0.71417   0.00000  Uiso   1.00
H1140  H     0.38697   0.44010   0.71369   0.00000  Uiso   1.00
H1141  H     0.48651   0.52915   0.58525   0.00000  Uiso   1.00
H1142  H     0.38761   0.52769   0.92549   0.00000  Uiso   1.00
H1143  H     0.42787   0.53076   0.56269   0.00000  Uiso   1.00
H1144  H     0.37048   0.54528   0.52088   0.00000  Uiso   1.00
N1145  N     0.38093   0.50001   0.75002   0.00000  Uiso   1.00
N1146  N     0.61906   0.49998   0.75001   0.00000  Uiso   1.00
O1147  O     0.46179   0.56108   0.75001   0.00000  Uiso   1.00
O1148  O     0.36678   0.56816   0.78950   0.00000  Uiso   1.00
O1149  O     0.60956   0.57025   0.78291   0.00000  Uiso   1.00
O1150  O     0.59309   0.41341   0.91276   0.00000  Uiso   1.00
O1151  O     0.66422   0.46223   0.91614   0.00000  Uiso   1.00
O1152  O     0.47825   0.40963   0.87476   0.00000  Uiso   1.00
O1153  O     0.53823   0.56107   0.75001   0.00000  Uiso   1.00
O1154  O     0.44280   0.50000   0.82681   0.00000  Uiso   1.00
O1155  O     0.51924   0.49999   0.82681   0.00000  Uiso   1.00
O1156  O     0.46177   0.43893   0.75000   0.00000  Uiso   1.00
O1157  O     0.53821   0.43892   0.75000   0.00000  Uiso   1.00
O1158  O     0.48076   0.50001   0.67319   0.00000  Uiso   1.00
O1159  O     0.55720   0.50000   0.67319   0.00000  Uiso   1.00
O1160  O     0.66483   0.46660   0.56607   0.00000  Uiso   1.00
Zn1161 Zn    0.44896   0.50001   0.75000   0.00000  Uiso   1.00
Zn1162 Zn    0.55104   0.49999   0.75000   0.00000  Uiso   1.00
C1163  C     0.83378   0.57996   0.74848   0.00000  Uiso   1.00
C1164  C     0.78871   0.49675   0.91274   0.00000  Uiso   1.00
C1165  C     0.87654   0.64523   0.74243   0.00000  Uiso   1.00
C1166  C     0.80624   0.49854   0.85257   0.00000  Uiso   1.00
C1167  C     0.87640   0.35447   0.74314   0.00000  Uiso   1.00
C1168  C     0.83451   0.37585   0.74634   0.00000  Uiso   1.00
C1169  C     0.79336   0.35480   0.74683   0.00000  Uiso   1.00
C1170  C     0.79359   0.64558   0.74603   0.00000  Uiso   1.00
C1171  C     0.83467   0.62416   0.74549   0.00000  Uiso   1.00
C1172  C     0.98262   0.46664   0.73036   0.00000  Uiso   1.00
C1173  C     0.69708   0.46675   0.73009   0.00000  Uiso   1.00
C1174  C     0.81418   0.49848   0.99103   0.00000  Uiso   1.00
C1175  C     0.68360   0.53323   0.77107   0.00000  Uiso   1.00
C1176  C     0.96913   0.53346   0.77062   0.00000  Uiso   1.00
C1177  C     0.83374   0.42004   0.74882   0.00000  Uiso   1.00
C1178  C     0.86073   0.49914   0.64744   0.00000  Uiso   1.00
C1179  C     0.93205   0.46465   0.50069   0.00000  Uiso   1.00
C1180  C     0.87913   0.49450   0.58757   0.00000  Uiso   1.00
C1181  C     0.74617   0.51787   0.94345   0.00000  Uiso   1.00
C1182  C     0.73676   0.52866   0.99757   0.00000  Uiso   1.00
C1183  C     0.77077   0.52030   0.52093   0.00000  Uiso   1.00
C1184  C     0.95529   0.45834   0.58391   0.00000  Uiso   1.00
C1185  C     0.81954   0.48175   0.93909   0.00000  Uiso   1.00
C1186  C     0.69041   0.56421   0.84617   0.00000  Uiso   1.00
C1187  C     0.71743   0.59736   0.86517   0.00000  Uiso   1.00
C1188  C     0.91102   0.57188   0.83843   0.00000  Uiso   1.00
C1189  C     0.91224   0.61514   0.86177   0.00000  Uiso   1.00
C1190  C     0.91210   0.37702   0.94439   0.00000  Uiso   1.00
C1191  C     0.95635   0.34981   0.93554   0.00000  Uiso   1.00
C1192  C     0.98138   0.45148   0.96397   0.00000  Uiso   1.00
C1193  C     0.85109   0.41995   0.87454   0.00000  Uiso   1.00
C1194  C     0.85190   0.49228   0.51124   0.00000  Uiso   1.00
C1195  C     0.89348   0.46838   0.98080   0.00000  Uiso   1.00
C1196  C     0.89268   0.44473   0.93534   0.00000  Uiso   1.00
C1197  C     0.85535   0.45064   0.91526   0.00000  Uiso   1.00
C1198  C     0.84859   0.50838   0.56201   0.00000  Uiso   1.00
C1199  C     0.92254   0.47355   0.55673   0.00000  Uiso   1.00
H1200  H     0.90881   0.37045   0.74169   0.00000  Uiso   1.00
H1201  H     0.90917   0.62906   0.74007   0.00000  Uiso   1.00
H1202  H     0.94086   0.44030   0.62109   0.00000  Uiso   1.00
H1203  H     0.69984   0.53293   0.85615   0.00000  Uiso   1.00
H1204  H     0.98521   0.56875   0.87050   0.00000  Uiso   1.00
H1205  H     0.70346   0.59900   0.91065   0.00000  Uiso   1.00
H1206  H     0.75650   0.58988   0.85048   0.00000  Uiso   1.00
H1207  H     0.71205   0.62824   0.84968   0.00000  Uiso   1.00
H1208  H     0.91786   0.54768   0.86498   0.00000  Uiso   1.00
H1209  H     0.87346   0.56797   0.84103   0.00000  Uiso   1.00
H1210  H     0.94993   0.62582   0.85028   0.00000  Uiso   1.00
H1211  H     0.76090   0.37103   0.74842   0.00000  Uiso   1.00
H1212  H     0.89279   0.63764   0.84520   0.00000  Uiso   1.00
H1213  H     0.89443   0.61474   0.90709   0.00000  Uiso   1.00
H1214  H     0.88624   0.35953   0.93084   0.00000  Uiso   1.00
H1215  H     0.89472   0.38344   0.98930   0.00000  Uiso   1.00
H1216  H     0.97948   0.36400   0.95581   0.00000  Uiso   1.00
H1217  H     0.94510   0.65200   0.95337   0.00000  Uiso   1.00
H1218  H     0.97781   0.34642   0.89109   0.00000  Uiso   1.00
H1219  H     0.67090   0.43303   0.97920   0.00000  Uiso   1.00
H1220  H     0.88312   0.40496   0.84562   0.00000  Uiso   1.00
H1221  H     0.76143   0.62967   0.74668   0.00000  Uiso   1.00
H1222  H     0.97011   0.43992   0.71417   0.00000  Uiso   1.00
H1223  H     0.72031   0.44010   0.71369   0.00000  Uiso   1.00
H1224  H     0.81984   0.52915   0.58525   0.00000  Uiso   1.00
H1225  H     0.72094   0.52769   0.92549   0.00000  Uiso   1.00
H1226  H     0.76120   0.53076   0.56269   0.00000  Uiso   1.00
H1227  H     0.70381   0.54528   0.52088   0.00000  Uiso   1.00
N1228  N     0.71426   0.50001   0.75002   0.00000  Uiso   1.00
N1229  N     0.95239   0.49998   0.75001   0.00000  Uiso   1.00
O1230  O     0.79512   0.56108   0.75001   0.00000  Uiso   1.00
O1231  O     0.70011   0.56816   0.78950   0.00000  Uiso   1.00
O1232  O     0.94289   0.57025   0.78291   0.00000  Uiso   1.00
O1233  O     0.92642   0.41341   0.91276   0.00000  Uiso   1.00
O1234  O     0.99755   0.46223   0.91614   0.00000  Uiso   1.00
O1235  O     0.81158   0.40963   0.87476   0.00000  Uiso   1.00
O1236  O     0.87157   0.56107   0.75001   0.00000  Uiso   1.00
O1237  O     0.77613   0.50000   0.82681   0.00000  Uiso   1.00
O1238  O     0.85258   0.49999   0.82681   0.00000  Uiso   1.00
O1239  O     0.79510   0.43893   0.75000   0.00000  Uiso   1.00
O1240  O     0.87154   0.43892   0.75000   0.00000  Uiso   1.00
O1241  O     0.81409   0.50001   0.67319   0.00000  Uiso   1.00
O1242  O     0.89053   0.50000   0.67319   0.00000  Uiso   1.00
O1243  O     0.99817   0.46660   0.56607   0.00000  Uiso   1.00
Zn1244 Zn    0.78229   0.50001   0.75000   0.00000  Uiso   1.00
Zn1245 Zn    0.88438   0.49999   0.75000   0.00000  Uiso   1.00
C1246  C     0.16711   0.91330   0.74848   0.00000  Uiso   1.00
C1247  C     0.12205   0.83008   0.91274   0.00000  Uiso   1.00
C1248  C     0.20987   0.97856   0.74243   0.00000  Uiso   1.00
C1249  C     0.13957   0.83187   0.85257   0.00000  Uiso   1.00
C1250  C     0.20974   0.68780   0.74314   0.00000  Uiso   1.00
C1251  C     0.16785   0.70918   0.74634   0.00000  Uiso   1.00
C1252  C     0.12670   0.68814   0.74683   0.00000  Uiso   1.00
C1253  C     0.12692   0.97891   0.74603   0.00000  Uiso   1.00
C1254  C     0.16801   0.95749   0.74549   0.00000  Uiso   1.00
C1255  C     0.31595   0.79997   0.73036   0.00000  Uiso   1.00
C1256  C     0.03041   0.80008   0.73009   0.00000  Uiso   1.00
C1257  C     0.14751   0.83181   0.99103   0.00000  Uiso   1.00
C1258  C     0.01693   0.86656   0.77107   0.00000  Uiso   1.00
C1259  C     0.30246   0.86679   0.77062   0.00000  Uiso   1.00
C1260  C     0.16708   0.75337   0.74882   0.00000  Uiso   1.00
C1261  C     0.19406   0.83247   0.64744   0.00000  Uiso   1.00
C1262  C     0.26538   0.79798   0.50069   0.00000  Uiso   1.00
C1263  C     0.21246   0.82783   0.58757   0.00000  Uiso   1.00
C1264  C     0.07951   0.85121   0.94345   0.00000  Uiso   1.00
C1265  C     0.07009   0.86199   0.99757   0.00000  Uiso   1.00
C1266  C     0.10410   0.85363   0.52093   0.00000  Uiso   1.00
C1267  C     0.28863   0.79167   0.58391   0.00000  Uiso   1.00
C1268  C     0.15288   0.81509   0.93909   0.00000  Uiso   1.00
C1269  C     0.02375   0.89755   0.84617   0.00000  Uiso   1.00
C1270  C     0.05076   0.93070   0.86517   0.00000  Uiso   1.00
C1271  C     0.24435   0.90521   0.83843   0.00000  Uiso   1.00
C1272  C     0.24557   0.94848   0.86177   0.00000  Uiso   1.00
C1273  C     0.24543   0.71035   0.94439   0.00000  Uiso   1.00
C1274  C     0.28968   0.68315   0.93554   0.00000  Uiso   1.00
C1275  C     0.31472   0.78481   0.96397   0.00000  Uiso   1.00
C1276  C     0.18442   0.75329   0.87454   0.00000  Uiso   1.00
C1277  C     0.18523   0.82562   0.51124   0.00000  Uiso   1.00
C1278  C     0.22681   0.80171   0.98080   0.00000  Uiso   1.00
C1279  C     0.22602   0.77807   0.93534   0.00000  Uiso   1.00
C1280  C     0.18868   0.78397   0.91526   0.00000  Uiso   1.00
C1281  C     0.18192   0.84172   0.56201   0.00000  Uiso   1.00
C1282  C     0.25587   0.80689   0.55673   0.00000  Uiso   1.00
H1283  H     0.24214   0.70378   0.74169   0.00000  Uiso   1.00
H1284  H     0.24250   0.96240   0.74007   0.00000  Uiso   1.00
H1285  H     0.27419   0.77364   0.62109   0.00000  Uiso   1.00
H1286  H     0.03317   0.86626   0.85615   0.00000  Uiso   1.00
H1287  H     0.31854   0.90209   0.87050   0.00000  Uiso   1.00
H1288  H     0.03679   0.93234   0.91065   0.00000  Uiso   1.00
H1289  H     0.08983   0.92321   0.85048   0.00000  Uiso   1.00
H1290  H     0.04538   0.96158   0.84968   0.00000  Uiso   1.00
H1291  H     0.25119   0.88101   0.86498   0.00000  Uiso   1.00
H1292  H     0.20679   0.90130   0.84103   0.00000  Uiso   1.00
H1293  H     0.28327   0.95915   0.85028   0.00000  Uiso   1.00
H1294  H     0.09423   0.70436   0.74842   0.00000  Uiso   1.00
H1295  H     0.22613   0.97097   0.84520   0.00000  Uiso   1.00
H1296  H     0.22776   0.94807   0.90709   0.00000  Uiso   1.00
H1297  H     0.21957   0.69287   0.93084   0.00000  Uiso   1.00
H1298  H     0.22805   0.71677   0.98930   0.00000  Uiso   1.00
H1299  H     0.31281   0.69733   0.95581   0.00000  Uiso   1.00
H1300  H     0.27844   0.98533   0.95337   0.00000  Uiso   1.00
H1301  H     0.31115   0.67975   0.89109   0.00000  Uiso   1.00
H1302  H     0.00423   0.76636   0.97920   0.00000  Uiso   1.00
H1303  H     0.21645   0.73829   0.84562   0.00000  Uiso   1.00
H1304  H     0.09476   0.96301   0.74668   0.00000  Uiso   1.00
H1305  H     0.30345   0.77325   0.71417   0.00000  Uiso   1.00
H1306  H     0.05364   0.77343   0.71369   0.00000  Uiso   1.00
H1307  H     0.15317   0.86248   0.58525   0.00000  Uiso   1.00
H1308  H     0.05428   0.86103   0.92549   0.00000  Uiso   1.00
H1309  H     0.09453   0.86409   0.56269   0.00000  Uiso   1.00
H1310  H     0.03714   0.87861   0.52088   0.00000  Uiso   1.00
N1311  N     0.04760   0.83334   0.75002   0.00000  Uiso   1.00
N1312  N     0.28573   0.83331   0.75001   0.00000  Uiso   1.00
O1313  O     0.12846   0.89442   0.75001   0.00000  Uiso   1.00
O1314  O     0.03345   0.90150   0.78950   0.00000  Uiso   1.00
O1315  O     0.27622   0.90358   0.78291   0.00000  Uiso   1.00
O1316  O     0.25976   0.74674   0.91276   0.00000  Uiso   1.00
O1317  O     0.33089   0.79556   0.91614   0.00000  Uiso   1.00
O1318  O     0.14491   0.74296   0.87476   0.00000  Uiso   1.00
O1319  O     0.20490   0.89441   0.75001   0.00000  Uiso   1.00
O1320  O     0.10947   0.83333   0.82681   0.00000  Uiso   1.00
O1321  O     0.18591   0.83332   0.82681   0.00000  Uiso   1.00
O1322  O     0.12843   0.77226   0.75000   0.00000  Uiso   1.00
O1323  O     0.20488   0.77225   0.75000   0.00000  Uiso   1.00
O1324  O     0.14742   0.83335   0.67319   0.00000  Uiso   1.00
O1325  O     0.22387   0.83334   0.67319   0.00000  Uiso   1.00
O1326  O     0.33150   0.79994   0.56607   0.00000  Uiso   1.00
Zn1327 Zn    0.11562   0.83334   0.75000   0.00000  Uiso   1.00
Zn1328 Zn    0.21771   0.83333   0.75000   0.00000  Uiso   1.00
C1329  C     0.50045   0.91330   0.74848   0.00000  Uiso   1.00
C1330  C     0.45538   0.83008   0.91274   0.00000  Uiso   1.00
C1331  C     0.54320   0.97856   0.74243   0.00000  Uiso   1.00
C1332  C     0.47291   0.83187   0.85257   0.00000  Uiso   1.00
C1333  C     0.54307   0.68780   0.74314   0.00000  Uiso   1.00
C1334  C     0.50118   0.70918   0.74634   0.00000  Uiso   1.00
C1335  C     0.46003   0.68814   0.74683   0.00000  Uiso   1.00
C1336  C     0.46025   0.97891   0.74603   0.00000  Uiso   1.00
C1337  C     0.50134   0.95749   0.74549   0.00000  Uiso   1.00
C1338  C     0.64929   0.79997   0.73036   0.00000  Uiso   1.00
C1339  C     0.36375   0.80008   0.73009   0.00000  Uiso   1.00
C1340  C     0.48085   0.83181   0.99103   0.00000  Uiso   1.00
C1341  C     0.35027   0.86656   0.77107   0.00000  Uiso   1.00
C1342  C     0.63579   0.86679   0.77062   0.00000  Uiso   1.00
C1343  C     0.50041   0.75337   0.74882   0.00000  Uiso   1.00
C1344  C     0.52740   0.83247   0.64744   0.00000  Uiso   1.00
C1345  C     0.59872   0.79798   0.50069   0.00000  Uiso   1.00
C1346  C     0.54580   0.82783   0.58757   0.00000  Uiso   1.00
C1347  C     0.41284   0.85121   0.94345   0.00000  Uiso   1.00
C1348  C     0.40342   0.86199   0.99757   0.00000  Uiso   1.00
C1349  C     0.43744   0.85363   0.52093   0.00000  Uiso   1.00
C1350  C     0.62196   0.79167   0.58391   0.00000  Uiso   1.00
C1351  C     0.48621   0.81509   0.93909   0.00000  Uiso   1.00
C1352  C     0.35708   0.89755   0.84617   0.00000  Uiso   1.00
C1353  C     0.38409   0.93070   0.86517   0.00000  Uiso   1.00
C1354  C     0.57768   0.90521   0.83843   0.00000  Uiso   1.00
C1355  C     0.57891   0.94848   0.86177   0.00000  Uiso   1.00
C1356  C     0.57876   0.71035   0.94439   0.00000  Uiso   1.00
C1357  C     0.62302   0.68315   0.93554   0.00000  Uiso   1.00
C1358  C     0.64805   0.78481   0.96397   0.00000  Uiso   1.00
C1359  C     0.51776   0.75329   0.87454   0.00000  Uiso   1.00
C1360  C     0.51856   0.82562   0.51124   0.00000  Uiso   1.00
C1361  C     0.56015   0.80171   0.98080   0.00000  Uiso   1.00
C1362  C     0.55935   0.77807   0.93534   0.00000  Uiso   1.00
C1363  C     0.52201   0.78397   0.91526   0.00000  Uiso   1.00
C1364  C     0.51526   0.84172   0.56201   0.00000  Uiso   1.00
C1365  C     0.58920   0.80689   0.55673   0.00000  Uiso   1.00
H1366  H     0.57548   0.70378   0.74169   0.00000  Uiso   1.00
H1367  H     0.57584   0.96240   0.74007   0.00000  Uiso   1.00
H1368  H     0.60753   0.77364   0.62109   0.00000  Uiso   1.00
H1369  H     0.36651   0.86626   0.85615   0.00000  Uiso   1.00
H1370  H     0.65188   0.90209   0.87050   0.00000  Uiso   1.00
H1371  H     0.37013   0.93234   0.91065   0.00000  Uiso   1.00
H1372  H     0.42316   0.92321   0.85048   0.00000  Uiso   1.00
H1373  H     0.37872   0.96158   0.84968   0.00000  Uiso   1.00
H1374  H     0.58452   0.88101   0.86498   0.00000  Uiso   1.00
H1375  H     0.54013   0.90130   0.84103   0.00000  Uiso   1.00
H1376  H     0.61660   0.95915   0.85028   0.00000  Uiso   1.00
H1377  H     0.42756   0.70436   0.74842   0.00000  Uiso   1.00
H1378  H     0.55946   0.97097   0.84520   0.00000  Uiso   1.00
H1379  H     0.56110   0.94807   0.90709   0.00000  Uiso   1.00
H1380  H     0.55291   0.69287   0.93084   0.00000  Uiso   1.00
H1381  H     0.56138   0.71677   0.98930   0.00000  Uiso   1.00
H1382  H     0.64614   0.69733   0.95581   0.00000  Uiso   1.00
H1383  H     0.61177   0.98533   0.95337   0.00000  Uiso   1.00
H1384  H     0.64448   0.67975   0.89109   0.00000  Uiso   1.00
H1385  H     0.33757   0.76636   0.97920   0.00000  Uiso   1.00
H1386  H     0.54978   0.73829   0.84562   0.00000  Uiso   1.00
H1387  H     0.42809   0.96301   0.74668   0.00000  Uiso   1.00
H1388  H     0.63678   0.77325   0.71417   0.00000  Uiso   1.00
H1389  H     0.38697   0.77343   0.71369   0.00000  Uiso   1.00
H1390  H     0.48651   0.86248   0.58525   0.00000  Uiso   1.00
H1391  H     0.38761   0.86103   0.92549   0.00000  Uiso   1.00
H1392  H     0.42787   0.86409   0.56269   0.00000  Uiso   1.00
H1393  H     0.37048   0.87861   0.52088   0.00000  Uiso   1.00
N1394  N     0.38093   0.83334   0.75002   0.00000  Uiso   1.00
N1395  N     0.61906   0.83331   0.75001   0.00000  Uiso   1.00
O1396  O     0.46179   0.89442   0.75001   0.00000  Uiso   1.00
O1397  O     0.36678   0.90150   0.78950   0.00000  Uiso   1.00
O1398  O     0.60956   0.90358   0.78291   0.00000  Uiso   1.00
O1399  O     0.59309   0.74674   0.91276   0.00000  Uiso   1.00
O1400  O     0.66422   0.79556   0.91614   0.00000  Uiso   1.00
O1401  O     0.47825   0.74296   0.87476   0.00000  Uiso   1.00
O1402  O     0.53823   0.89441   0.75001   0.00000  Uiso   1.00
O1403  O     0.44280   0.83333   0.82681   0.00000  Uiso   1.00
O1404  O     0.51924   0.83332   0.82681   0.00000  Uiso   1.00
O1405  O     0.46177   0.77226   0.75000   0.00000  Uiso   1.00
O1406  O     0.53821   0.77225   0.75000   0.00000  Uiso   1.00
O1407  O     0.48076   0.83335   0.67319   0.00000  Uiso   1.00
O1408  O     0.55720   0.83334   0.67319   0.00000  Uiso   1.00
O1409  O     0.66483   0.79994   0.56607   0.00000  Uiso   1.00
Zn1410 Zn    0.44896   0.83334   0.75000   0.00000  Uiso   1.00
Zn1411 Zn    0.55104   0.83333   0.75000   0.00000  Uiso   1.00
C1412  C     0.83378   0.91330   0.74848   0.00000  Uiso   1.00
C1413  C     0.78871   0.83008   0.91274   0.00000  Uiso   1.00
C1414  C     0.87654   0.97856   0.74243   0.00000  Uiso   1.00
C1415  C     0.80624   0.83187   0.85257   0.00000  Uiso   1.00
C1416  C     0.87640   0.68780   0.74314   0.00000  Uiso   1.00
C1417  C     0.83451   0.70918   0.74634   0.00000  Uiso   1.00
C1418  C     0.79336   0.68814   0.74683   0.00000  Uiso   1.00
C1419  C     0.79359   0.97891   0.74603   0.00000  Uiso   1.00
C1420  C     0.83467   0.95749   0.74549   0.00000  Uiso   1.00
C1421  C     0.98262   0.79997   0.73036   0.00000  Uiso   1.00
C1422  C     0.69708   0.80008   0.73009   0.00000  Uiso   1.00
C1423  C     0.81418   0.83181   0.99103   0.00000  Uiso   1.00
C1424  C     0.68360   0.86656   0.77107   0.00000  Uiso   1.00
C1425  C     0.96913   0.86679   0.77062   0.00000  Uiso   1.00
C1426  C     0.83374   0.75337   0.74882   0.00000  Uiso   1.00
C1427  C     0.86073   0.83247   0.64744   0.00000  Uiso   1.00
C1428  C     0.93205   0.79798   0.50069   0.00000  Uiso   1.00
C1429  C     0.87913   0.82783   0.58757   0.00000  Uiso   1.00
C1430  C     0.74617   0.85121   0.94345   0.00000  Uiso   1.00
C1431  C     0.73676   0.86199   0.99757   0.00000  Uiso   1.00
C1432  C     0.77077   0.85363   0.52093   0.00000  Uiso   1.00
C1433  C     0.95529   0.79167   0.58391   0.00000  Uiso   1.00
C1434  C     0.81954   0.81509   0.93909   0.00000  Uiso   1.00
C1435  C     0.69041   0.89755   0.84617   0.00000  Uiso   1.00
C1436  C     0.71743   0.93070   0.86517   0.00000  Uiso   1.00
C1437  C     0.91102   0.90521   0.83843   0.00000  Uiso   1.00
C1438  C     0.91224   0.94848   0.86177   0.00000  Uiso   1.00
C1439  C     0.91210   0.71035   0.94439   0.00000  Uiso   1.00
C1440  C     0.95635   0.68315   0.93554   0.00000  Uiso   1.00
C1441  C     0.98138   0.78481   0.96397   0.00000  Uiso   1.00
C1442  C     0.85109   0.75329   0.87454   0.00000  Uiso   1.00
C1443  C     0.85190   0.82562   0.51124   0.00000  Uiso   1.00
C1444  C     0.89348   0.80171   0.98080   0.00000  Uiso   1.00
C1445  C     0.89268   0.77807   0.93534   0.00000  Uiso   1.00
C1446  C     0.85535   0.78397   0.91526   0.00000  Uiso   1.00
C1447  C     0.84859   0.84172   0.56201   0.00000  Uiso   1.00
C1448  C     0.92254   0.80689   0.55673   0.00000  Uiso   1.00
H1449  H     0.90881   0.70378   0.74169   0.00000  Uiso   1.00
H1450  H     0.90917   0.96240   0.74007   0.00000  Uiso   1.00
H1451  H     0.94086   0.77364   0.62109   0.00000  Uiso   1.00
H1452  H     0.69984   0.86626   0.85615   0.00000  Uiso   1.00
H1453  H     0.98521   0.90209   0.87050   0.00000  Uiso   1.00
H1454  H     0.70346   0.93234   0.91065   0.00000  Uiso   1.00
H1455  H     0.75650   0.92321   0.85048   0.00000  Uiso   1.00
H1456  H     0.71205   0.96158   0.84968   0.00000  Uiso   1.00
H1457  H     0.91786   0.88101   0.86498   0.00000  Uiso   1.00
H1458  H     0.87346   0.90130   0.84103   0.00000  Uiso   1.00
H1459  H     0.94993   0.95915   0.85028   0.00000  Uiso   1.00
H1460  H     0.76090   0.70436   0.74842   0.00000  Uiso   1.00
H1461  H     0.89279   0.97097   0.84520   0.00000  Uiso   1.00
H1462  H     0.89443   0.94807   0.90709   0.00000  Uiso   1.00
H1463  H     0.88624   0.69287   0.93084   0.00000  Uiso   1.00
H1464  H     0.89472   0.71677   0.98930   0.00000  Uiso   1.00
H1465  H     0.97948   0.69733   0.95581   0.00000  Uiso   1.00
H1466  H     0.94510   0.98533   0.95337   0.00000  Uiso   1.00
H1467  H     0.97781   0.67975   0.89109   0.00000  Uiso   1.00
H1468  H     0.67090   0.76636   0.97920   0.00000  Uiso   1.00
H1469  H     0.88312   0.73829   0.84562   0.00000  Uiso   1.00
H1470  H     0.76143   0.96301   0.74668   0.00000  Uiso   1.00
H1471  H     0.97011   0.77325   0.71417   0.00000  Uiso   1.00
H1472  H     0.72031   0.77343   0.71369   0.00000  Uiso   1.00
H1473  H     0.81984   0.86248   0.58525   0.00000  Uiso   1.00
H1474  H     0.72094   0.86103   0.92549   0.00000  Uiso   1.00
H1475  H     0.76120   0.86409   0.56269   0.00000  Uiso   1.00
H1476  H     0.70381   0.87861   0.52088   0.00000  Uiso   1.00
N1477  N     0.71426   0.83334   0.75002   0.00000  Uiso   1.00
N1478  N     0.95239   0.83331   0.75001   0.00000  Uiso   1.00
O1479  O     0.79512   0.89442   0.75001   0.00000  Uiso   1.00
O1480  O     0.70011   0.90150   0.78950   0.00000  Uiso   1.00
O1481  O     0.94289   0.90358   0.78291   0.00000  Uiso   1.00
O1482  O     0.92642   0.74674   0.91276   0.00000  Uiso   1.00
O1483  O     0.99755   0.79556   0.91614   0.00000  Uiso   1.00
O1484  O     0.81158   0.74296   0.87476   0.00000  Uiso   1.00
O1485  O     0.87157   0.89441   0.75001   0.00000  Uiso   1.00
O1486  O     0.77613   0.83333   0.82681   0.00000  Uiso   1.00
O1487  O     0.85258   0.83332   0.82681   0.00000  Uiso   1.00
O1488  O     0.79510   0.77226   0.75000   0.00000  Uiso   1.00
O1489  O     0.87154   0.77225   0.75000   0.00000  Uiso   1.00
O1490  O     0.81409   0.83335   0.67319   0.00000  Uiso   1.00
O1491  O     0.89053   0.83334   0.67319   0.00000  Uiso   1.00
O1492  O     0.99817   0.79994   0.56607   0.00000  Uiso   1.00
Zn1493 Zn    0.78229   0.83334   0.75000   0.00000  Uiso   1.00
Zn1494 Zn    0.88438   0.83333   0.75000   0.00000  Uiso   1.00
loop_
_geom_bond_atom_site_label_1
_geom_bond_atom_site_label_2
_geom_bond_distance
_geom_bond_site_symmetry_2
_ccdc_geom_bond_type
C1     O74     1.290   .     A
C1     O68     1.291   .     A
C1     C9      1.425   .     S
C2     C4      1.471   .     S
C2     C19     1.397   .     A
C2     C23     1.420   .     A
C3     H39     1.081   .     S
C3     C9      1.398   .     A
C3     C254    1.370   .     S
C4     O75     1.305   .     A
C4     O76     1.297   .     A
C5     C6      1.396   .     A
C5     H38     1.084   .     S
C5     C501    1.370   1_545 S
C6     C15     1.423   .     S
C6     C7      1.398   .     A
C7     H49     1.083   .     S
C7     C506    1.370   1_545 S
C8     H59     1.082   .     S
C8     C9      1.397   .     A
C8     C256    1.370   .     S
C10    H60     1.081   .     S
C10    N67     1.367   .     A
C10    C94     1.420   .     S
C11    H61     1.081   .     S
C11    N66     1.368   .     A
C11    C176    1.420   1_455 S
C12    C23     1.412   .     A
C12    C768    1.421   .     S
C12    C779    1.419   .     S
C13    N66     1.376   .     A
C13    O69     1.381   .     S
C13    C180    1.427   1_455 S
C14    N67     1.375   .     A
C14    O70     1.385   .     S
C14    C96     1.427   .     S
C15    O78     1.291   .     A
C15    O77     1.289   .     A
C16    O80     1.296   .     A
C16    O79     1.303   .     A
C16    C18     1.467   .     S
C17    C37     1.417   .     A
C17    C777    1.489   1_554 S
C17    C780    1.428   1_554 S
C18    C37     1.413   .     A
C18    C36     1.386   .     A
C19    C20     1.382   .     A
C19    H63     1.069   .     S
C20    C768    1.387   .     S
C20    H812    1.083   .     S
C21    H64     1.076   .     S
C21    C767    1.387   1_554 S
C21    C759    1.421   1_554 S
C22    O81     1.219   .     D
C22    C37     1.485   .     S
C22    H40     1.085   .     S
C23    C35     1.422   .     A
C24    H41     1.103   .     S
C24    O69     1.412   .     S
C24    C25     1.524   .     S
C24    H208    1.098   1_455 S
C25    H43     1.110   .     S
C25    H44     1.108   .     S
C25    H45     1.110   .     S
C26    C27     1.522   .     S
C26    H47     1.102   .     S
C26    O70     1.418   .     S
C26    H46     1.115   .     S
C27    H48     1.107   .     S
C27    H50     1.110   .     S
C27    H51     1.110   .     S
C28    C29     1.523   .     S
C28    O71     1.416   .     S
C28    H53     1.116   .     S
C28    H52     1.111   .     S
C29    H54     1.109   .     S
C29    H56     1.109   .     S
C29    H553    1.110   1_545 S
C30    O72     1.221   .     D
C30    C764    1.489   .     S
C30    H140    1.083   .     S
C31    H58     1.085   .     S
C31    O73     1.221   .     D
C31    C35     1.487   .     S
C32    C36     1.393   .     A
C32    C759    1.419   1_554 S
C32    C780    1.421   1_554 S
C33    C34     1.416   .     A
C33    C764    1.428   .     S
C33    C779    1.421   .     S
C34    C35     1.405   .     A
C34    O71     1.386   .     S
C36    H62     1.076   .     S
H42    C107    1.098   .     S
H55    C278    1.110   .     S
H57    C196    1.083   1_455 S
H65    C767    1.083   1_554 S
N66    Zn82    2.024   .     S
N67    Zn83    2.024   .     S
O68    Zn82    2.004   .     S
O74    Zn83    2.001   .     S
O75    Zn82    1.953   .     S
O76    Zn83    1.886   .     S
O77    Zn82    2.001   .     S
O78    Zn83    2.004   .     S
O79    Zn82    1.886   .     S
O80    Zn83    1.953   .     S
C84    O157    1.290   .     A
C84    O151    1.291   .     A
C84    C92     1.425   .     S
C85    C87     1.471   .     S
C85    C102    1.397   .     A
C85    C106    1.420   .     A
C86    H122    1.081   .     S
C86    C92     1.398   .     A
C86    C337    1.370   .     S
C87    O158    1.305   .     A
C87    O159    1.297   .     A
C88    C89     1.396   .     A
C88    H121    1.084   .     S
C88    C584    1.370   1_545 S
C89    C98     1.423   .     S
C89    C90     1.398   .     A
C90    H132    1.083   .     S
C90    C589    1.370   1_545 S
C91    H142    1.082   .     S
C91    C92     1.397   .     A
C91    C339    1.370   .     S
C93    H143    1.081   .     S
C93    N150    1.367   .     A
C93    C177    1.420   .     S
C94    H144    1.081   .     S
C94    N149    1.368   .     A
C95    C106    1.412   .     A
C95    C851    1.421   .     S
C95    C862    1.419   .     S
C96    N149    1.376   .     A
C96    O152    1.381   .     S
C97    N150    1.375   .     A
C97    O153    1.385   .     S
C97    C179    1.427   .     S
C98    O161    1.291   .     A
C98    O160    1.289   .     A
C99    O163    1.296   .     A
C99    O162    1.303   .     A
C99    C101    1.467   .     S
C100   C120    1.417   .     A
C100   C860    1.489   1_554 S
C100   C863    1.428   1_554 S
C101   C120    1.413   .     A
C101   C119    1.386   .     A
C102   C103    1.382   .     A
C102   H146    1.069   .     S
C103   C851    1.387   .     S
C103   H895    1.083   .     S
C104   H147    1.076   .     S
C104   C850    1.387   1_554 S
C104   C842    1.421   1_554 S
C105   O164    1.219   .     D
C105   C120    1.485   .     S
C105   H123    1.085   .     S
C106   C118    1.422   .     A
C107   H124    1.103   .     S
C107   O152    1.412   .     S
C107   C108    1.524   .     S
C108   H126    1.110   .     S
C108   H127    1.108   .     S
C108   H128    1.110   .     S
C109   C110    1.522   .     S
C109   H130    1.102   .     S
C109   O153    1.418   .     S
C109   H129    1.115   .     S
C110   H131    1.107   .     S
C110   H133    1.110   .     S
C110   H134    1.110   .     S
C111   C112    1.523   .     S
C111   O154    1.416   .     S
C111   H136    1.116   .     S
C111   H135    1.111   .     S
C112   H137    1.109   .     S
C112   H139    1.109   .     S
C112   H636    1.110   1_545 S
C113   O155    1.221   .     D
C113   C847    1.489   .     S
C113   H223    1.083   .     S
C114   H141    1.085   .     S
C114   O156    1.221   .     D
C114   C118    1.487   .     S
C115   C119    1.393   .     A
C115   C842    1.419   1_554 S
C115   C863    1.421   1_554 S
C116   C117    1.416   .     A
C116   C847    1.428   .     S
C116   C862    1.421   .     S
C117   C118    1.405   .     A
C117   O154    1.386   .     S
C119   H145    1.076   .     S
H125   C190    1.098   .     S
H138   C361    1.110   .     S
H148   C850    1.083   1_554 S
N149   Zn165   2.024   .     S
N150   Zn166   2.024   .     S
O151   Zn165   2.004   .     S
O157   Zn166   2.001   .     S
O158   Zn165   1.953   .     S
O159   Zn166   1.886   .     S
O160   Zn165   2.001   .     S
O161   Zn166   2.004   .     S
O162   Zn165   1.886   .     S
O163   Zn166   1.953   .     S
C167   O240    1.290   .     A
C167   O234    1.291   .     A
C167   C175    1.425   .     S
C168   C170    1.471   .     S
C168   C185    1.397   .     A
C168   C189    1.420   .     A
C169   H205    1.081   .     S
C169   C175    1.398   .     A
C169   C420    1.370   .     S
C170   O241    1.305   .     A
C170   O242    1.297   .     A
C171   C172    1.396   .     A
C171   H204    1.084   .     S
C171   C667    1.370   1_545 S
C172   C181    1.423   .     S
C172   C173    1.398   .     A
C173   H215    1.083   .     S
C173   C672    1.370   1_545 S
C174   H225    1.082   .     S
C174   C175    1.397   .     A
C174   C422    1.370   .     S
C176   H226    1.081   .     S
C176   N233    1.367   .     A
C176   C11     1.420   1_655 S
C177   H227    1.081   .     S
C177   N232    1.368   .     A
C178   C189    1.412   .     A
C178   C934    1.421   .     S
C178   C945    1.419   .     S
C179   N232    1.376   .     A
C179   O235    1.381   .     S
C180   N233    1.375   .     A
C180   O236    1.385   .     S
C180   C13     1.427   1_655 S
C181   O244    1.291   .     A
C181   O243    1.289   .     A
C182   O246    1.296   .     A
C182   O245    1.303   .     A
C182   C184    1.467   .     S
C183   C203    1.417   .     A
C183   C943    1.489   1_554 S
C183   C946    1.428   1_554 S
C184   C203    1.413   .     A
C184   C202    1.386   .     A
C185   C186    1.382   .     A
C185   H229    1.069   .     S
C186   C934    1.387   .     S
C186   H978    1.083   .     S
C187   H230    1.076   .     S
C187   C933    1.387   1_554 S
C187   C925    1.421   1_554 S
C188   O247    1.219   .     D
C188   C203    1.485   .     S
C188   H206    1.085   .     S
C189   C201    1.422   .     A
C190   H207    1.103   .     S
C190   O235    1.412   .     S
C190   C191    1.524   .     S
C191   H209    1.110   .     S
C191   H210    1.108   .     S
C191   H211    1.110   .     S
C192   C193    1.522   .     S
C192   H213    1.102   .     S
C192   O236    1.418   .     S
C192   H212    1.115   .     S
C193   H214    1.107   .     S
C193   H216    1.110   .     S
C193   H217    1.110   .     S
C194   C195    1.523   .     S
C194   O237    1.416   .     S
C194   H219    1.116   .     S
C194   H218    1.111   .     S
C195   H220    1.109   .     S
C195   H222    1.109   .     S
C195   H719    1.110   1_545 S
C196   O238    1.221   .     D
C196   C930    1.489   .     S
C196   H57     1.083   1_655 S
C197   H224    1.085   .     S
C197   O239    1.221   .     D
C197   C201    1.487   .     S
C198   C202    1.393   .     A
C198   C925    1.419   1_554 S
C198   C946    1.421   1_554 S
C199   C200    1.416   .     A
C199   C930    1.428   .     S
C199   C945    1.421   .     S
C200   C201    1.405   .     A
C200   O237    1.386   .     S
C202   H228    1.076   .     S
H208   C24     1.098   1_655 S
H221   C444    1.110   .     S
H231   C933    1.083   1_554 S
N232   Zn248   2.024   .     S
N233   Zn249   2.024   .     S
O234   Zn248   2.004   .     S
O240   Zn249   2.001   .     S
O241   Zn248   1.953   .     S
O242   Zn249   1.886   .     S
O243   Zn248   2.001   .     S
O244   Zn249   2.004   .     S
O245   Zn248   1.886   .     S
O246   Zn249   1.953   .     S
C250   O323    1.290   .     A
C250   O317    1.291   .     A
C250   C258    1.425   .     S
C251   C253    1.471   .     S
C251   C268    1.397   .     A
C251   C272    1.420   .     A
C252   H288    1.081   .     S
C252   C258    1.398   .     A
C252   C503    1.370   .     S
C253   O324    1.305   .     A
C253   O325    1.297   .     A
C254   C255    1.396   .     A
C254   H287    1.084   .     S
C255   C264    1.423   .     S
C255   C256    1.398   .     A
C256   H298    1.083   .     S
C257   H308    1.082   .     S
C257   C258    1.397   .     A
C257   C505    1.370   .     S
C259   H309    1.081   .     S
C259   N316    1.367   .     A
C259   C343    1.420   .     S
C260   H310    1.081   .     S
C260   N315    1.368   .     A
C260   C425    1.420   1_455 S
C261   C272    1.412   .     A
C261   C1017   1.421   .     S
C261   C1028   1.419   .     S
C262   N315    1.376   .     A
C262   O318    1.381   .     S
C262   C429    1.427   1_455 S
C263   N316    1.375   .     A
C263   O319    1.385   .     S
C263   C345    1.427   .     S
C264   O327    1.291   .     A
C264   O326    1.289   .     A
C265   O329    1.296   .     A
C265   O328    1.303   .     A
C265   C267    1.467   .     S
C266   C286    1.417   .     A
C266   C1026   1.489   1_554 S
C266   C1029   1.428   1_554 S
C267   C286    1.413   .     A
C267   C285    1.386   .     A
C268   C269    1.382   .     A
C268   H312    1.069   .     S
C269   C1017   1.387   .     S
C269   H1061   1.083   .     S
C270   H313    1.076   .     S
C270   C1016   1.387   1_554 S
C270   C1008   1.421   1_554 S
C271   O330    1.219   .     D
C271   C286    1.485   .     S
C271   H289    1.085   .     S
C272   C284    1.422   .     A
C273   H290    1.103   .     S
C273   O318    1.412   .     S
C273   C274    1.524   .     S
C273   H457    1.098   1_455 S
C274   H292    1.110   .     S
C274   H293    1.108   .     S
C274   H294    1.110   .     S
C275   C276    1.522   .     S
C275   H296    1.102   .     S
C275   O319    1.418   .     S
C275   H295    1.115   .     S
C276   H297    1.107   .     S
C276   H299    1.110   .     S
C276   H300    1.110   .     S
C277   C278    1.523   .     S
C277   O320    1.416   .     S
C277   H302    1.116   .     S
C277   H301    1.111   .     S
C278   H303    1.109   .     S
C278   H305    1.109   .     S
C279   O321    1.221   .     D
C279   C1013   1.489   .     S
C279   H389    1.083   .     S
C280   H307    1.085   .     S
C280   O322    1.221   .     D
C280   C284    1.487   .     S
C281   C285    1.393   .     A
C281   C1008   1.419   1_554 S
C281   C1029   1.421   1_554 S
C282   C283    1.416   .     A
C282   C1013   1.428   .     S
C282   C1028   1.421   .     S
C283   C284    1.405   .     A
C283   O320    1.386   .     S
C285   H311    1.076   .     S
H291   C356    1.098   .     S
H304   C527    1.110   .     S
H306   C445    1.083   1_455 S
H314   C1016   1.083   1_554 S
N315   Zn331   2.024   .     S
N316   Zn332   2.024   .     S
O317   Zn331   2.004   .     S
O323   Zn332   2.001   .     S
O324   Zn331   1.953   .     S
O325   Zn332   1.886   .     S
O326   Zn331   2.001   .     S
O327   Zn332   2.004   .     S
O328   Zn331   1.886   .     S
O329   Zn332   1.953   .     S
C333   O406    1.290   .     A
C333   O400    1.291   .     A
C333   C341    1.425   .     S
C334   C336    1.471   .     S
C334   C351    1.397   .     A
C334   C355    1.420   .     A
C335   H371    1.081   .     S
C335   C341    1.398   .     A
C335   C586    1.370   .     S
C336   O407    1.305   .     A
C336   O408    1.297   .     A
C337   C338    1.396   .     A
C337   H370    1.084   .     S
C338   C347    1.423   .     S
C338   C339    1.398   .     A
C339   H381    1.083   .     S
C340   H391    1.082   .     S
C340   C341    1.397   .     A
C340   C588    1.370   .     S
C342   H392    1.081   .     S
C342   N399    1.367   .     A
C342   C426    1.420   .     S
C343   H393    1.081   .     S
C343   N398    1.368   .     A
C344   C355    1.412   .     A
C344   C1100   1.421   .     S
C344   C1111   1.419   .     S
C345   N398    1.376   .     A
C345   O401    1.381   .     S
C346   N399    1.375   .     A
C346   O402    1.385   .     S
C346   C428    1.427   .     S
C347   O410    1.291   .     A
C347   O409    1.289   .     A
C348   O412    1.296   .     A
C348   O411    1.303   .     A
C348   C350    1.467   .     S
C349   C369    1.417   .     A
C349   C1109   1.489   1_554 S
C349   C1112   1.428   1_554 S
C350   C369    1.413   .     A
C350   C368    1.386   .     A
C351   C352    1.382   .     A
C351   H395    1.069   .     S
C352   C1100   1.387   .     S
C352   H1144   1.083   .     S
C353   H396    1.076   .     S
C353   C1099   1.387   1_554 S
C353   C1091   1.421   1_554 S
C354   O413    1.219   .     D
C354   C369    1.485   .     S
C354   H372    1.085   .     S
C355   C367    1.422   .     A
C356   H373    1.103   .     S
C356   O401    1.412   .     S
C356   C357    1.524   .     S
C357   H375    1.110   .     S
C357   H376    1.108   .     S
C357   H377    1.110   .     S
C358   C359    1.522   .     S
C358   H379    1.102   .     S
C358   O402    1.418   .     S
C358   H378    1.115   .     S
C359   H380    1.107   .     S
C359   H382    1.110   .     S
C359   H383    1.110   .     S
C360   C361    1.523   .     S
C360   O403    1.416   .     S
C360   H385    1.116   .     S
C360   H384    1.111   .     S
C361   H386    1.109   .     S
C361   H388    1.109   .     S
C362   O404    1.221   .     D
C362   C1096   1.489   .     S
C362   H472    1.083   .     S
C363   H390    1.085   .     S
C363   O405    1.221   .     D
C363   C367    1.487   .     S
C364   C368    1.393   .     A
C364   C1091   1.419   1_554 S
C364   C1112   1.421   1_554 S
C365   C366    1.416   .     A
C365   C1096   1.428   .     S
C365   C1111   1.421   .     S
C366   C367    1.405   .     A
C366   O403    1.386   .     S
C368   H394    1.076   .     S
H374   C439    1.098   .     S
H387   C610    1.110   .     S
H397   C1099   1.083   1_554 S
N398   Zn414   2.024   .     S
N399   Zn415   2.024   .     S
O400   Zn414   2.004   .     S
O406   Zn415   2.001   .     S
O407   Zn414   1.953   .     S
O408   Zn415   1.886   .     S
O409   Zn414   2.001   .     S
O410   Zn415   2.004   .     S
O411   Zn414   1.886   .     S
O412   Zn415   1.953   .     S
C416   O489    1.290   .     A
C416   O483    1.291   .     A
C416   C424    1.425   .     S
C417   C419    1.471   .     S
C417   C434    1.397   .     A
C417   C438    1.420   .     A
C418   H454    1.081   .     S
C418   C424    1.398   .     A
C418   C669    1.370   .     S
C419   O490    1.305   .     A
C419   O491    1.297   .     A
C420   C421    1.396   .     A
C420   H453    1.084   .     S
C421   C430    1.423   .     S
C421   C422    1.398   .     A
C422   H464    1.083   .     S
C423   H474    1.082   .     S
C423   C424    1.397   .     A
C423   C671    1.370   .     S
C425   H475    1.081   .     S
C425   N482    1.367   .     A
C425   C260    1.420   1_655 S
C426   H476    1.081   .     S
C426   N481    1.368   .     A
C427   C438    1.412   .     A
C427   C1183   1.421   .     S
C427   C1194   1.419   .     S
C428   N481    1.376   .     A
C428   O484    1.381   .     S
C429   N482    1.375   .     A
C429   O485    1.385   .     S
C429   C262    1.427   1_655 S
C430   O493    1.291   .     A
C430   O492    1.289   .     A
C431   O495    1.296   .     A
C431   O494    1.303   .     A
C431   C433    1.467   .     S
C432   C452    1.417   .     A
C432   C1192   1.489   1_554 S
C432   C1195   1.428   1_554 S
C433   C452    1.413   .     A
C433   C451    1.386   .     A
C434   C435    1.382   .     A
C434   H478    1.069   .     S
C435   C1183   1.387   .     S
C435   H1227   1.083   .     S
C436   H479    1.076   .     S
C436   C1182   1.387   1_554 S
C436   C1174   1.421   1_554 S
C437   O496    1.219   .     D
C437   C452    1.485   .     S
C437   H455    1.085   .     S
C438   C450    1.422   .     A
C439   H456    1.103   .     S
C439   O484    1.412   .     S
C439   C440    1.524   .     S
C440   H458    1.110   .     S
C440   H459    1.108   .     S
C440   H460    1.110   .     S
C441   C442    1.522   .     S
C441   H462    1.102   .     S
C441   O485    1.418   .     S
C441   H461    1.115   .     S
C442   H463    1.107   .     S
C442   H465    1.110   .     S
C442   H466    1.110   .     S
C443   C444    1.523   .     S
C443   O486    1.416   .     S
C443   H468    1.116   .     S
C443   H467    1.111   .     S
C444   H469    1.109   .     S
C444   H471    1.109   .     S
C445   O487    1.221   .     D
C445   C1179   1.489   .     S
C445   H306    1.083   1_655 S
C446   H473    1.085   .     S
C446   O488    1.221   .     D
C446   C450    1.487   .     S
C447   C451    1.393   .     A
C447   C1174   1.419   1_554 S
C447   C1195   1.421   1_554 S
C448   C449    1.416   .     A
C448   C1179   1.428   .     S
C448   C1194   1.421   .     S
C449   C450    1.405   .     A
C449   O486    1.386   .     S
C451   H477    1.076   .     S
H457   C273    1.098   1_655 S
H470   C693    1.110   .     S
H480   C1182   1.083   1_554 S
N481   Zn497   2.024   .     S
N482   Zn498   2.024   .     S
O483   Zn497   2.004   .     S
O489   Zn498   2.001   .     S
O490   Zn497   1.953   .     S
O491   Zn498   1.886   .     S
O492   Zn497   2.001   .     S
O493   Zn498   2.004   .     S
O494   Zn497   1.886   .     S
O495   Zn498   1.953   .     S
C499   O572    1.290   .     A
C499   O566    1.291   .     A
C499   C507    1.425   .     S
C500   C502    1.471   .     S
C500   C517    1.397   .     A
C500   C521    1.420   .     A
C501   H537    1.081   .     S
C501   C507    1.398   .     A
C501   C5      1.370   1_565 S
C502   O573    1.305   .     A
C502   O574    1.297   .     A
C503   C504    1.396   .     A
C503   H536    1.084   .     S
C504   C513    1.423   .     S
C504   C505    1.398   .     A
C505   H547    1.083   .     S
C506   H557    1.082   .     S
C506   C507    1.397   .     A
C506   C7      1.370   1_565 S
C508   H558    1.081   .     S
C508   N565    1.367   .     A
C508   C592    1.420   .     S
C509   H559    1.081   .     S
C509   N564    1.368   .     A
C509   C674    1.420   1_455 S
C510   C521    1.412   .     A
C510   C1266   1.421   .     S
C510   C1277   1.419   .     S
C511   N564    1.376   .     A
C511   O567    1.381   .     S
C511   C678    1.427   1_455 S
C512   N565    1.375   .     A
C512   O568    1.385   .     S
C512   C594    1.427   .     S
C513   O576    1.291   .     A
C513   O575    1.289   .     A
C514   O578    1.296   .     A
C514   O577    1.303   .     A
C514   C516    1.467   .     S
C515   C535    1.417   .     A
C515   C1275   1.489   1_554 S
C515   C1278   1.428   1_554 S
C516   C535    1.413   .     A
C516   C534    1.386   .     A
C517   C518    1.382   .     A
C517   H561    1.069   .     S
C518   C1266   1.387   .     S
C518   H1310   1.083   .     S
C519   H562    1.076   .     S
C519   C1265   1.387   1_554 S
C519   C1257   1.421   1_554 S
C520   O579    1.219   .     D
C520   C535    1.485   .     S
C520   H538    1.085   .     S
C521   C533    1.422   .     A
C522   H539    1.103   .     S
C522   O567    1.412   .     S
C522   C523    1.524   .     S
C522   H706    1.098   1_455 S
C523   H541    1.110   .     S
C523   H542    1.108   .     S
C523   H543    1.110   .     S
C524   C525    1.522   .     S
C524   H545    1.102   .     S
C524   O568    1.418   .     S
C524   H544    1.115   .     S
C525   H546    1.107   .     S
C525   H548    1.110   .     S
C525   H549    1.110   .     S
C526   C527    1.523   .     S
C526   O569    1.416   .     S
C526   H551    1.116   .     S
C526   H550    1.111   .     S
C527   H552    1.109   .     S
C527   H554    1.109   .     S
C528   O570    1.221   .     D
C528   C1262   1.489   .     S
C528   H638    1.083   .     S
C529   H556    1.085   .     S
C529   O571    1.221   .     D
C529   C533    1.487   .     S
C530   C534    1.393   .     A
C530   C1257   1.419   1_554 S
C530   C1278   1.421   1_554 S
C531   C532    1.416   .     A
C531   C1262   1.428   .     S
C531   C1277   1.421   .     S
C532   C533    1.405   .     A
C532   O569    1.386   .     S
C534   H560    1.076   .     S
H540   C605    1.098   .     S
H553   C29     1.110   1_565 S
H555   C694    1.083   1_455 S
H563   C1265   1.083   1_554 S
N564   Zn580   2.024   .     S
N565   Zn581   2.024   .     S
O566   Zn580   2.004   .     S
O572   Zn581   2.001   .     S
O573   Zn580   1.953   .     S
O574   Zn581   1.886   .     S
O575   Zn580   2.001   .     S
O576   Zn581   2.004   .     S
O577   Zn580   1.886   .     S
O578   Zn581   1.953   .     S
C582   O655    1.290   .     A
C582   O649    1.291   .     A
C582   C590    1.425   .     S
C583   C585    1.471   .     S
C583   C600    1.397   .     A
C583   C604    1.420   .     A
C584   H620    1.081   .     S
C584   C590    1.398   .     A
C584   C88     1.370   1_565 S
C585   O656    1.305   .     A
C585   O657    1.297   .     A
C586   C587    1.396   .     A
C586   H619    1.084   .     S
C587   C596    1.423   .     S
C587   C588    1.398   .     A
C588   H630    1.083   .     S
C589   H640    1.082   .     S
C589   C590    1.397   .     A
C589   C90     1.370   1_565 S
C591   H641    1.081   .     S
C591   N648    1.367   .     A
C591   C675    1.420   .     S
C592   H642    1.081   .     S
C592   N647    1.368   .     A
C593   C604    1.412   .     A
C593   C1349   1.421   .     S
C593   C1360   1.419   .     S
C594   N647    1.376   .     A
C594   O650    1.381   .     S
C595   N648    1.375   .     A
C595   O651    1.385   .     S
C595   C677    1.427   .     S
C596   O659    1.291   .     A
C596   O658    1.289   .     A
C597   O661    1.296   .     A
C597   O660    1.303   .     A
C597   C599    1.467   .     S
C598   C618    1.417   .     A
C598   C1358   1.489   1_554 S
C598   C1361   1.428   1_554 S
C599   C618    1.413   .     A
C599   C617    1.386   .     A
C600   C601    1.382   .     A
C600   H644    1.069   .     S
C601   C1349   1.387   .     S
C601   H1393   1.083   .     S
C602   H645    1.076   .     S
C602   C1348   1.387   1_554 S
C602   C1340   1.421   1_554 S
C603   O662    1.219   .     D
C603   C618    1.485   .     S
C603   H621    1.085   .     S
C604   C616    1.422   .     A
C605   H622    1.103   .     S
C605   O650    1.412   .     S
C605   C606    1.524   .     S
C606   H624    1.110   .     S
C606   H625    1.108   .     S
C606   H626    1.110   .     S
C607   C608    1.522   .     S
C607   H628    1.102   .     S
C607   O651    1.418   .     S
C607   H627    1.115   .     S
C608   H629    1.107   .     S
C608   H631    1.110   .     S
C608   H632    1.110   .     S
C609   C610    1.523   .     S
C609   O652    1.416   .     S
C609   H634    1.116   .     S
C609   H633    1.111   .     S
C610   H635    1.109   .     S
C610   H637    1.109   .     S
C611   O653    1.221   .     D
C611   C1345   1.489   .     S
C611   H721    1.083   .     S
C612   H639    1.085   .     S
C612   O654    1.221   .     D
C612   C616    1.487   .     S
C613   C617    1.393   .     A
C613   C1340   1.419   1_554 S
C613   C1361   1.421   1_554 S
C614   C615    1.416   .     A
C614   C1345   1.428   .     S
C614   C1360   1.421   .     S
C615   C616    1.405   .     A
C615   O652    1.386   .     S
C617   H643    1.076   .     S
H623   C688    1.098   .     S
H636   C112    1.110   1_565 S
H646   C1348   1.083   1_554 S
N647   Zn663   2.024   .     S
N648   Zn664   2.024   .     S
O649   Zn663   2.004   .     S
O655   Zn664   2.001   .     S
O656   Zn663   1.953   .     S
O657   Zn664   1.886   .     S
O658   Zn663   2.001   .     S
O659   Zn664   2.004   .     S
O660   Zn663   1.886   .     S
O661   Zn664   1.953   .     S
C665   O738    1.290   .     A
C665   O732    1.291   .     A
C665   C673    1.425   .     S
C666   C668    1.471   .     S
C666   C683    1.397   .     A
C666   C687    1.420   .     A
C667   H703    1.081   .     S
C667   C673    1.398   .     A
C667   C171    1.370   1_565 S
C668   O739    1.305   .     A
C668   O740    1.297   .     A
C669   C670    1.396   .     A
C669   H702    1.084   .     S
C670   C679    1.423   .     S
C670   C671    1.398   .     A
C671   H713    1.083   .     S
C672   H723    1.082   .     S
C672   C673    1.397   .     A
C672   C173    1.370   1_565 S
C674   H724    1.081   .     S
C674   N731    1.367   .     A
C674   C509    1.420   1_655 S
C675   H725    1.081   .     S
C675   N730    1.368   .     A
C676   C687    1.412   .     A
C676   C1432   1.421   .     S
C676   C1443   1.419   .     S
C677   N730    1.376   .     A
C677   O733    1.381   .     S
C678   N731    1.375   .     A
C678   O734    1.385   .     S
C678   C511    1.427   1_655 S
C679   O742    1.291   .     A
C679   O741    1.289   .     A
C680   O744    1.296   .     A
C680   O743    1.303   .     A
C680   C682    1.467   .     S
C681   C701    1.417   .     A
C681   C1441   1.489   1_554 S
C681   C1444   1.428   1_554 S
C682   C701    1.413   .     A
C682   C700    1.386   .     A
C683   C684    1.382   .     A
C683   H727    1.069   .     S
C684   C1432   1.387   .     S
C684   H1476   1.083   .     S
C685   H728    1.076   .     S
C685   C1431   1.387   1_554 S
C685   C1423   1.421   1_554 S
C686   O745    1.219   .     D
C686   C701    1.485   .     S
C686   H704    1.085   .     S
C687   C699    1.422   .     A
C688   H705    1.103   .     S
C688   O733    1.412   .     S
C688   C689    1.524   .     S
C689   H707    1.110   .     S
C689   H708    1.108   .     S
C689   H709    1.110   .     S
C690   C691    1.522   .     S
C690   H711    1.102   .     S
C690   O734    1.418   .     S
C690   H710    1.115   .     S
C691   H712    1.107   .     S
C691   H714    1.110   .     S
C691   H715    1.110   .     S
C692   C693    1.523   .     S
C692   O735    1.416   .     S
C692   H717    1.116   .     S
C692   H716    1.111   .     S
C693   H718    1.109   .     S
C693   H720    1.109   .     S
C694   O736    1.221   .     D
C694   C1428   1.489   .     S
C694   H555    1.083   1_655 S
C695   H722    1.085   .     S
C695   O737    1.221   .     D
C695   C699    1.487   .     S
C696   C700    1.393   .     A
C696   C1423   1.419   1_554 S
C696   C1444   1.421   1_554 S
C697   C698    1.416   .     A
C697   C1428   1.428   .     S
C697   C1443   1.421   .     S
C698   C699    1.405   .     A
C698   O735    1.386   .     S
C700   H726    1.076   .     S
H706   C522    1.098   1_655 S
H719   C195    1.110   1_565 S
H729   C1431   1.083   1_554 S
N730   Zn746   2.024   .     S
N731   Zn747   2.024   .     S
O732   Zn746   2.004   .     S
O738   Zn747   2.001   .     S
O739   Zn746   1.953   .     S
O740   Zn747   1.886   .     S
O741   Zn746   2.001   .     S
O742   Zn747   2.004   .     S
O743   Zn746   1.886   .     S
O744   Zn747   1.953   .     S
C748   O821    1.290   .     A
C748   O815    1.291   .     A
C748   C756    1.425   .     S
C749   C751    1.471   .     S
C749   C766    1.397   .     A
C749   C770    1.420   .     A
C750   H786    1.081   .     S
C750   C756    1.398   .     A
C750   C1001   1.370   .     S
C751   O822    1.305   .     A
C751   O823    1.297   .     A
C752   C753    1.396   .     A
C752   H785    1.084   .     S
C752   C1248   1.370   1_545 S
C753   C762    1.423   .     S
C753   C754    1.398   .     A
C754   H796    1.083   .     S
C754   C1253   1.370   1_545 S
C755   H806    1.082   .     S
C755   C756    1.397   .     A
C755   C1003   1.370   .     S
C757   H807    1.081   .     S
C757   N814    1.367   .     A
C757   C841    1.420   .     S
C758   H808    1.081   .     S
C758   N813    1.368   .     A
C758   C923    1.420   1_455 S
C759   C770    1.412   .     A
C759   C21     1.421   1_556 S
C759   C32     1.419   1_556 S
C760   N813    1.376   .     A
C760   O816    1.381   .     S
C760   C927    1.427   1_455 S
C761   N814    1.375   .     A
C761   O817    1.385   .     S
C761   C843    1.427   .     S
C762   O825    1.291   .     A
C762   O824    1.289   .     A
C763   O827    1.296   .     A
C763   O826    1.303   .     A
C763   C765    1.467   .     S
C764   C784    1.417   .     A
C765   C784    1.413   .     A
C765   C783    1.386   .     A
C766   C767    1.382   .     A
C766   H810    1.069   .     S
C767   C21     1.387   1_556 S
C767   H65     1.083   1_556 S
C768   H811    1.076   .     S
C769   O828    1.219   .     D
C769   C784    1.485   .     S
C769   H787    1.085   .     S
C770   C782    1.422   .     A
C771   H788    1.103   .     S
C771   O816    1.412   .     S
C771   C772    1.524   .     S
C771   H955    1.098   1_455 S
C772   H790    1.110   .     S
C772   H791    1.108   .     S
C772   H792    1.110   .     S
C773   C774    1.522   .     S
C773   H794    1.102   .     S
C773   O817    1.418   .     S
C773   H793    1.115   .     S
C774   H795    1.107   .     S
C774   H797    1.110   .     S
C774   H798    1.110   .     S
C775   C776    1.523   .     S
C775   O818    1.416   .     S
C775   H800    1.116   .     S
C775   H799    1.111   .     S
C776   H801    1.109   .     S
C776   H803    1.109   .     S
C776   H1300   1.110   1_545 S
C777   O819    1.221   .     D
C777   C17     1.489   1_556 S
C777   H887    1.083   .     S
C778   H805    1.085   .     S
C778   O820    1.221   .     D
C778   C782    1.487   .     S
C779   C783    1.393   .     A
C780   C781    1.416   .     A
C780   C17     1.428   1_556 S
C780   C32     1.421   1_556 S
C781   C782    1.405   .     A
C781   O818    1.386   .     S
C783   H809    1.076   .     S
H789   C854    1.098   .     S
H802   C1025   1.110   .     S
H804   C943    1.083   1_455 S
N813   Zn829   2.024   .     S
N814   Zn830   2.024   .     S
O815   Zn829   2.004   .     S
O821   Zn830   2.001   .     S
O822   Zn829   1.953   .     S
O823   Zn830   1.886   .     S
O824   Zn829   2.001   .     S
O825   Zn830   2.004   .     S
O826   Zn829   1.886   .     S
O827   Zn830   1.953   .     S
C831   O904    1.290   .     A
C831   O898    1.291   .     A
C831   C839    1.425   .     S
C832   C834    1.471   .     S
C832   C849    1.397   .     A
C832   C853    1.420   .     A
C833   H869    1.081   .     S
C833   C839    1.398   .     A
C833   C1084   1.370   .     S
C834   O905    1.305   .     A
C834   O906    1.297   .     A
C835   C836    1.396   .     A
C835   H868    1.084   .     S
C835   C1331   1.370   1_545 S
C836   C845    1.423   .     S
C836   C837    1.398   .     A
C837   H879    1.083   .     S
C837   C1336   1.370   1_545 S
C838   H889    1.082   .     S
C838   C839    1.397   .     A
C838   C1086   1.370   .     S
C840   H890    1.081   .     S
C840   N897    1.367   .     A
C840   C924    1.420   .     S
C841   H891    1.081   .     S
C841   N896    1.368   .     A
C842   C853    1.412   .     A
C842   C104    1.421   1_556 S
C842   C115    1.419   1_556 S
C843   N896    1.376   .     A
C843   O899    1.381   .     S
C844   N897    1.375   .     A
C844   O900    1.385   .     S
C844   C926    1.427   .     S
C845   O908    1.291   .     A
C845   O907    1.289   .     A
C846   O910    1.296   .     A
C846   O909    1.303   .     A
C846   C848    1.467   .     S
C847   C867    1.417   .     A
C848   C867    1.413   .     A
C848   C866    1.386   .     A
C849   C850    1.382   .     A
C849   H893    1.069   .     S
C850   C104    1.387   1_556 S
C850   H148    1.083   1_556 S
C851   H894    1.076   .     S
C852   O911    1.219   .     D
C852   C867    1.485   .     S
C852   H870    1.085   .     S
C853   C865    1.422   .     A
C854   H871    1.103   .     S
C854   O899    1.412   .     S
C854   C855    1.524   .     S
C855   H873    1.110   .     S
C855   H874    1.108   .     S
C855   H875    1.110   .     S
C856   C857    1.522   .     S
C856   H877    1.102   .     S
C856   O900    1.418   .     S
C856   H876    1.115   .     S
C857   H878    1.107   .     S
C857   H880    1.110   .     S
C857   H881    1.110   .     S
C858   C859    1.523   .     S
C858   O901    1.416   .     S
C858   H883    1.116   .     S
C858   H882    1.111   .     S
C859   H884    1.109   .     S
C859   H886    1.109   .     S
C859   H1383   1.110   1_545 S
C860   O902    1.221   .     D
C860   C100    1.489   1_556 S
C860   H970    1.083   .     S
C861   H888    1.085   .     S
C861   O903    1.221   .     D
C861   C865    1.487   .     S
C862   C866    1.393   .     A
C863   C864    1.416   .     A
C863   C100    1.428   1_556 S
C863   C115    1.421   1_556 S
C864   C865    1.405   .     A
C864   O901    1.386   .     S
C866   H892    1.076   .     S
H872   C937    1.098   .     S
H885   C1108   1.110   .     S
N896   Zn912   2.024   .     S
N897   Zn913   2.024   .     S
O898   Zn912   2.004   .     S
O904   Zn913   2.001   .     S
O905   Zn912   1.953   .     S
O906   Zn913   1.886   .     S
O907   Zn912   2.001   .     S
O908   Zn913   2.004   .     S
O909   Zn912   1.886   .     S
O910   Zn913   1.953   .     S
C914   O987    1.290   .     A
C914   O981    1.291   .     A
C914   C922    1.425   .     S
C915   C917    1.471   .     S
C915   C932    1.397   .     A
C915   C936    1.420   .     A
C916   H952    1.081   .     S
C916   C922    1.398   .     A
C916   C1167   1.370   .     S
C917   O988    1.305   .     A
C917   O989    1.297   .     A
C918   C919    1.396   .     A
C918   H951    1.084   .     S
C918   C1414   1.370   1_545 S
C919   C928    1.423   .     S
C919   C920    1.398   .     A
C920   H962    1.083   .     S
C920   C1419   1.370   1_545 S
C921   H972    1.082   .     S
C921   C922    1.397   .     A
C921   C1169   1.370   .     S
C923   H973    1.081   .     S
C923   N980    1.367   .     A
C923   C758    1.420   1_655 S
C924   H974    1.081   .     S
C924   N979    1.368   .     A
C925   C936    1.412   .     A
C925   C187    1.421   1_556 S
C925   C198    1.419   1_556 S
C926   N979    1.376   .     A
C926   O982    1.381   .     S
C927   N980    1.375   .     A
C927   O983    1.385   .     S
C927   C760    1.427   1_655 S
C928   O991    1.291   .     A
C928   O990    1.289   .     A
C929   O993    1.296   .     A
C929   O992    1.303   .     A
C929   C931    1.467   .     S
C930   C950    1.417   .     A
C931   C950    1.413   .     A
C931   C949    1.386   .     A
C932   C933    1.382   .     A
C932   H976    1.069   .     S
C933   C187    1.387   1_556 S
C933   H231    1.083   1_556 S
C934   H977    1.076   .     S
C935   O994    1.219   .     D
C935   C950    1.485   .     S
C935   H953    1.085   .     S
C936   C948    1.422   .     A
C937   H954    1.103   .     S
C937   O982    1.412   .     S
C937   C938    1.524   .     S
C938   H956    1.110   .     S
C938   H957    1.108   .     S
C938   H958    1.110   .     S
C939   C940    1.522   .     S
C939   H960    1.102   .     S
C939   O983    1.418   .     S
C939   H959    1.115   .     S
C940   H961    1.107   .     S
C940   H963    1.110   .     S
C940   H964    1.110   .     S
C941   C942    1.523   .     S
C941   O984    1.416   .     S
C941   H966    1.116   .     S
C941   H965    1.111   .     S
C942   H967    1.109   .     S
C942   H969    1.109   .     S
C942   H1466   1.110   1_545 S
C943   O985    1.221   .     D
C943   C183    1.489   1_556 S
C943   H804    1.083   1_655 S
C944   H971    1.085   .     S
C944   O986    1.221   .     D
C944   C948    1.487   .     S
C945   C949    1.393   .     A
C946   C947    1.416   .     A
C946   C183    1.428   1_556 S
C946   C198    1.421   1_556 S
C947   C948    1.405   .     A
C947   O984    1.386   .     S
C949   H975    1.076   .     S
H955   C771    1.098   1_655 S
H968   C1191   1.110   .     S
N979   Zn995   2.024   .     S
N980   Zn996   2.024   .     S
O981   Zn995   2.004   .     S
O987   Zn996   2.001   .     S
O988   Zn995   1.953   .     S
O989   Zn996   1.886   .     S
O990   Zn995   2.001   .     S
O991   Zn996   2.004   .     S
O992   Zn995   1.886   .     S
O993   Zn996   1.953   .     S
C997   O1070   1.290   .     A
C997   O1064   1.291   .     A
C997   C1005   1.425   .     S
C998   C1000   1.471   .     S
C998   C1015   1.397   .     A
C998   C1019   1.420   .     A
C999   H1035   1.081   .     S
C999   C1005   1.398   .     A
C999   C1250   1.370   .     S
C1000  O1071   1.305   .     A
C1000  O1072   1.297   .     A
C1001  C1002   1.396   .     A
C1001  H1034   1.084   .     S
C1002  C1011   1.423   .     S
C1002  C1003   1.398   .     A
C1003  H1045   1.083   .     S
C1004  H1055   1.082   .     S
C1004  C1005   1.397   .     A
C1004  C1252   1.370   .     S
C1006  H1056   1.081   .     S
C1006  N1063   1.367   .     A
C1006  C1090   1.420   .     S
C1007  H1057   1.081   .     S
C1007  N1062   1.368   .     A
C1007  C1172   1.420   1_455 S
C1008  C1019   1.412   .     A
C1008  C270    1.421   1_556 S
C1008  C281    1.419   1_556 S
C1009  N1062   1.376   .     A
C1009  O1065   1.381   .     S
C1009  C1176   1.427   1_455 S
C1010  N1063   1.375   .     A
C1010  O1066   1.385   .     S
C1010  C1092   1.427   .     S
C1011  O1074   1.291   .     A
C1011  O1073   1.289   .     A
C1012  O1076   1.296   .     A
C1012  O1075   1.303   .     A
C1012  C1014   1.467   .     S
C1013  C1033   1.417   .     A
C1014  C1033   1.413   .     A
C1014  C1032   1.386   .     A
C1015  C1016   1.382   .     A
C1015  H1059   1.069   .     S
C1016  C270    1.387   1_556 S
C1016  H314    1.083   1_556 S
C1017  H1060   1.076   .     S
C1018  O1077   1.219   .     D
C1018  C1033   1.485   .     S
C1018  H1036   1.085   .     S
C1019  C1031   1.422   .     A
C1020  H1037   1.103   .     S
C1020  O1065   1.412   .     S
C1020  C1021   1.524   .     S
C1020  H1204   1.098   1_455 S
C1021  H1039   1.110   .     S
C1021  H1040   1.108   .     S
C1021  H1041   1.110   .     S
C1022  C1023   1.522   .     S
C1022  H1043   1.102   .     S
C1022  O1066   1.418   .     S
C1022  H1042   1.115   .     S
C1023  H1044   1.107   .     S
C1023  H1046   1.110   .     S
C1023  H1047   1.110   .     S
C1024  C1025   1.523   .     S
C1024  O1067   1.416   .     S
C1024  H1049   1.116   .     S
C1024  H1048   1.111   .     S
C1025  H1050   1.109   .     S
C1025  H1052   1.109   .     S
C1026  O1068   1.221   .     D
C1026  C266    1.489   1_556 S
C1026  H1136   1.083   .     S
C1027  H1054   1.085   .     S
C1027  O1069   1.221   .     D
C1027  C1031   1.487   .     S
C1028  C1032   1.393   .     A
C1029  C1030   1.416   .     A
C1029  C266    1.428   1_556 S
C1029  C281    1.421   1_556 S
C1030  C1031   1.405   .     A
C1030  O1067   1.386   .     S
C1032  H1058   1.076   .     S
H1038  C1103   1.098   .     S
H1051  C1274   1.110   .     S
H1053  C1192   1.083   1_455 S
N1062  Zn1078  2.024   .     S
N1063  Zn1079  2.024   .     S
O1064  Zn1078  2.004   .     S
O1070  Zn1079  2.001   .     S
O1071  Zn1078  1.953   .     S
O1072  Zn1079  1.886   .     S
O1073  Zn1078  2.001   .     S
O1074  Zn1079  2.004   .     S
O1075  Zn1078  1.886   .     S
O1076  Zn1079  1.953   .     S
C1080  O1153   1.290   .     A
C1080  O1147   1.291   .     A
C1080  C1088   1.425   .     S
C1081  C1083   1.471   .     S
C1081  C1098   1.397   .     A
C1081  C1102   1.420   .     A
C1082  H1118   1.081   .     S
C1082  C1088   1.398   .     A
C1082  C1333   1.370   .     S
C1083  O1154   1.305   .     A
C1083  O1155   1.297   .     A
C1084  C1085   1.396   .     A
C1084  H1117   1.084   .     S
C1085  C1094   1.423   .     S
C1085  C1086   1.398   .     A
C1086  H1128   1.083   .     S
C1087  H1138   1.082   .     S
C1087  C1088   1.397   .     A
C1087  C1335   1.370   .     S
C1089  H1139   1.081   .     S
C1089  N1146   1.367   .     A
C1089  C1173   1.420   .     S
C1090  H1140   1.081   .     S
C1090  N1145   1.368   .     A
C1091  C1102   1.412   .     A
C1091  C353    1.421   1_556 S
C1091  C364    1.419   1_556 S
C1092  N1145   1.376   .     A
C1092  O1148   1.381   .     S
C1093  N1146   1.375   .     A
C1093  O1149   1.385   .     S
C1093  C1175   1.427   .     S
C1094  O1157   1.291   .     A
C1094  O1156   1.289   .     A
C1095  O1159   1.296   .     A
C1095  O1158   1.303   .     A
C1095  C1097   1.467   .     S
C1096  C1116   1.417   .     A
C1097  C1116   1.413   .     A
C1097  C1115   1.386   .     A
C1098  C1099   1.382   .     A
C1098  H1142   1.069   .     S
C1099  C353    1.387   1_556 S
C1099  H397    1.083   1_556 S
C1100  H1143   1.076   .     S
C1101  O1160   1.219   .     D
C1101  C1116   1.485   .     S
C1101  H1119   1.085   .     S
C1102  C1114   1.422   .     A
C1103  H1120   1.103   .     S
C1103  O1148   1.412   .     S
C1103  C1104   1.524   .     S
C1104  H1122   1.110   .     S
C1104  H1123   1.108   .     S
C1104  H1124   1.110   .     S
C1105  C1106   1.522   .     S
C1105  H1126   1.102   .     S
C1105  O1149   1.418   .     S
C1105  H1125   1.115   .     S
C1106  H1127   1.107   .     S
C1106  H1129   1.110   .     S
C1106  H1130   1.110   .     S
C1107  C1108   1.523   .     S
C1107  O1150   1.416   .     S
C1107  H1132   1.116   .     S
C1107  H1131   1.111   .     S
C1108  H1133   1.109   .     S
C1108  H1135   1.109   .     S
C1109  O1151   1.221   .     D
C1109  C349    1.489   1_556 S
C1109  H1219   1.083   .     S
C1110  H1137   1.085   .     S
C1110  O1152   1.221   .     D
C1110  C1114   1.487   .     S
C1111  C1115   1.393   .     A
C1112  C1113   1.416   .     A
C1112  C349    1.428   1_556 S
C1112  C364    1.421   1_556 S
C1113  C1114   1.405   .     A
C1113  O1150   1.386   .     S
C1115  H1141   1.076   .     S
H1121  C1186   1.098   .     S
H1134  C1357   1.110   .     S
N1145  Zn1161  2.024   .     S
N1146  Zn1162  2.024   .     S
O1147  Zn1161  2.004   .     S
O1153  Zn1162  2.001   .     S
O1154  Zn1161  1.953   .     S
O1155  Zn1162  1.886   .     S
O1156  Zn1161  2.001   .     S
O1157  Zn1162  2.004   .     S
O1158  Zn1161  1.886   .     S
O1159  Zn1162  1.953   .     S
C1163  O1236   1.290   .     A
C1163  O1230   1.291   .     A
C1163  C1171   1.425   .     S
C1164  C1166   1.471   .     S
C1164  C1181   1.397   .     A
C1164  C1185   1.420   .     A
C1165  H1201   1.081   .     S
C1165  C1171   1.398   .     A
C1165  C1416   1.370   .     S
C1166  O1237   1.305   .     A
C1166  O1238   1.297   .     A
C1167  C1168   1.396   .     A
C1167  H1200   1.084   .     S
C1168  C1177   1.423   .     S
C1168  C1169   1.398   .     A
C1169  H1211   1.083   .     S
C1170  H1221   1.082   .     S
C1170  C1171   1.397   .     A
C1170  C1418   1.370   .     S
C1172  H1222   1.081   .     S
C1172  N1229   1.367   .     A
C1172  C1007   1.420   1_655 S
C1173  H1223   1.081   .     S
C1173  N1228   1.368   .     A
C1174  C1185   1.412   .     A
C1174  C436    1.421   1_556 S
C1174  C447    1.419   1_556 S
C1175  N1228   1.376   .     A
C1175  O1231   1.381   .     S
C1176  N1229   1.375   .     A
C1176  O1232   1.385   .     S
C1176  C1009   1.427   1_655 S
C1177  O1240   1.291   .     A
C1177  O1239   1.289   .     A
C1178  O1242   1.296   .     A
C1178  O1241   1.303   .     A
C1178  C1180   1.467   .     S
C1179  C1199   1.417   .     A
C1180  C1199   1.413   .     A
C1180  C1198   1.386   .     A
C1181  C1182   1.382   .     A
C1181  H1225   1.069   .     S
C1182  C436    1.387   1_556 S
C1182  H480    1.083   1_556 S
C1183  H1226   1.076   .     S
C1184  O1243   1.219   .     D
C1184  C1199   1.485   .     S
C1184  H1202   1.085   .     S
C1185  C1197   1.422   .     A
C1186  H1203   1.103   .     S
C1186  O1231   1.412   .     S
C1186  C1187   1.524   .     S
C1187  H1205   1.110   .     S
C1187  H1206   1.108   .     S
C1187  H1207   1.110   .     S
C1188  C1189   1.522   .     S
C1188  H1209   1.102   .     S
C1188  O1232   1.418   .     S
C1188  H1208   1.115   .     S
C1189  H1210   1.107   .     S
C1189  H1212   1.110   .     S
C1189  H1213   1.110   .     S
C1190  C1191   1.523   .     S
C1190  O1233   1.416   .     S
C1190  H1215   1.116   .     S
C1190  H1214   1.111   .     S
C1191  H1216   1.109   .     S
C1191  H1218   1.109   .     S
C1192  O1234   1.221   .     D
C1192  C432    1.489   1_556 S
C1192  H1053   1.083   1_655 S
C1193  H1220   1.085   .     S
C1193  O1235   1.221   .     D
C1193  C1197   1.487   .     S
C1194  C1198   1.393   .     A
C1195  C1196   1.416   .     A
C1195  C432    1.428   1_556 S
C1195  C447    1.421   1_556 S
C1196  C1197   1.405   .     A
C1196  O1233   1.386   .     S
C1198  H1224   1.076   .     S
H1204  C1020   1.098   1_655 S
H1217  C1440   1.110   .     S
N1228  Zn1244  2.024   .     S
N1229  Zn1245  2.024   .     S
O1230  Zn1244  2.004   .     S
O1236  Zn1245  2.001   .     S
O1237  Zn1244  1.953   .     S
O1238  Zn1245  1.886   .     S
O1239  Zn1244  2.001   .     S
O1240  Zn1245  2.004   .     S
O1241  Zn1244  1.886   .     S
O1242  Zn1245  1.953   .     S
C1246  O1319   1.290   .     A
C1246  O1313   1.291   .     A
C1246  C1254   1.425   .     S
C1247  C1249   1.471   .     S
C1247  C1264   1.397   .     A
C1247  C1268   1.420   .     A
C1248  H1284   1.081   .     S
C1248  C1254   1.398   .     A
C1248  C752    1.370   1_565 S
C1249  O1320   1.305   .     A
C1249  O1321   1.297   .     A
C1250  C1251   1.396   .     A
C1250  H1283   1.084   .     S
C1251  C1260   1.423   .     S
C1251  C1252   1.398   .     A
C1252  H1294   1.083   .     S
C1253  H1304   1.082   .     S
C1253  C1254   1.397   .     A
C1253  C754    1.370   1_565 S
C1255  H1305   1.081   .     S
C1255  N1312   1.367   .     A
C1255  C1339   1.420   .     S
C1256  H1306   1.081   .     S
C1256  N1311   1.368   .     A
C1256  C1421   1.420   1_455 S
C1257  C1268   1.412   .     A
C1257  C519    1.421   1_556 S
C1257  C530    1.419   1_556 S
C1258  N1311   1.376   .     A
C1258  O1314   1.381   .     S
C1258  C1425   1.427   1_455 S
C1259  N1312   1.375   .     A
C1259  O1315   1.385   .     S
C1259  C1341   1.427   .     S
C1260  O1323   1.291   .     A
C1260  O1322   1.289   .     A
C1261  O1325   1.296   .     A
C1261  O1324   1.303   .     A
C1261  C1263   1.467   .     S
C1262  C1282   1.417   .     A
C1263  C1282   1.413   .     A
C1263  C1281   1.386   .     A
C1264  C1265   1.382   .     A
C1264  H1308   1.069   .     S
C1265  C519    1.387   1_556 S
C1265  H563    1.083   1_556 S
C1266  H1309   1.076   .     S
C1267  O1326   1.219   .     D
C1267  C1282   1.485   .     S
C1267  H1285   1.085   .     S
C1268  C1280   1.422   .     A
C1269  H1286   1.103   .     S
C1269  O1314   1.412   .     S
C1269  C1270   1.524   .     S
C1269  H1453   1.098   1_455 S
C1270  H1288   1.110   .     S
C1270  H1289   1.108   .     S
C1270  H1290   1.110   .     S
C1271  C1272   1.522   .     S
C1271  H1292   1.102   .     S
C1271  O1315   1.418   .     S
C1271  H1291   1.115   .     S
C1272  H1293   1.107   .     S
C1272  H1295   1.110   .     S
C1272  H1296   1.110   .     S
C1273  C1274   1.523   .     S
C1273  O1316   1.416   .     S
C1273  H1298   1.116   .     S
C1273  H1297   1.111   .     S
C1274  H1299   1.109   .     S
C1274  H1301   1.109   .     S
C1275  O1317   1.221   .     D
C1275  C515    1.489   1_556 S
C1275  H1385   1.083   .     S
C1276  H1303   1.085   .     S
C1276  O1318   1.221   .     D
C1276  C1280   1.487   .     S
C1277  C1281   1.393   .     A
C1278  C1279   1.416   .     A
C1278  C515    1.428   1_556 S
C1278  C530    1.421   1_556 S
C1279  C1280   1.405   .     A
C1279  O1316   1.386   .     S
C1281  H1307   1.076   .     S
H1287  C1352   1.098   .     S
H1300  C776    1.110   1_565 S
H1302  C1441   1.083   1_455 S
N1311  Zn1327  2.024   .     S
N1312  Zn1328  2.024   .     S
O1313  Zn1327  2.004   .     S
O1319  Zn1328  2.001   .     S
O1320  Zn1327  1.953   .     S
O1321  Zn1328  1.886   .     S
O1322  Zn1327  2.001   .     S
O1323  Zn1328  2.004   .     S
O1324  Zn1327  1.886   .     S
O1325  Zn1328  1.953   .     S
C1329  O1402   1.290   .     A
C1329  O1396   1.291   .     A
C1329  C1337   1.425   .     S
C1330  C1332   1.471   .     S
C1330  C1347   1.397   .     A
C1330  C1351   1.420   .     A
C1331  H1367   1.081   .     S
C1331  C1337   1.398   .     A
C1331  C835    1.370   1_565 S
C1332  O1403   1.305   .     A
C1332  O1404   1.297   .     A
C1333  C1334   1.396   .     A
C1333  H1366   1.084   .     S
C1334  C1343   1.423   .     S
C1334  C1335   1.398   .     A
C1335  H1377   1.083   .     S
C1336  H1387   1.082   .     S
C1336  C1337   1.397   .     A
C1336  C837    1.370   1_565 S
C1338  H1388   1.081   .     S
C1338  N1395   1.367   .     A
C1338  C1422   1.420   .     S
C1339  H1389   1.081   .     S
C1339  N1394   1.368   .     A
C1340  C1351   1.412   .     A
C1340  C602    1.421   1_556 S
C1340  C613    1.419   1_556 S
C1341  N1394   1.376   .     A
C1341  O1397   1.381   .     S
C1342  N1395   1.375   .     A
C1342  O1398   1.385   .     S
C1342  C1424   1.427   .     S
C1343  O1406   1.291   .     A
C1343  O1405   1.289   .     A
C1344  O1408   1.296   .     A
C1344  O1407   1.303   .     A
C1344  C1346   1.467   .     S
C1345  C1365   1.417   .     A
C1346  C1365   1.413   .     A
C1346  C1364   1.386   .     A
C1347  C1348   1.382   .     A
C1347  H1391   1.069   .     S
C1348  C602    1.387   1_556 S
C1348  H646    1.083   1_556 S
C1349  H1392   1.076   .     S
C1350  O1409   1.219   .     D
C1350  C1365   1.485   .     S
C1350  H1368   1.085   .     S
C1351  C1363   1.422   .     A
C1352  H1369   1.103   .     S
C1352  O1397   1.412   .     S
C1352  C1353   1.524   .     S
C1353  H1371   1.110   .     S
C1353  H1372   1.108   .     S
C1353  H1373   1.110   .     S
C1354  C1355   1.522   .     S
C1354  H1375   1.102   .     S
C1354  O1398   1.418   .     S
C1354  H1374   1.115   .     S
C1355  H1376   1.107   .     S
C1355  H1378   1.110   .     S
C1355  H1379   1.110   .     S
C1356  C1357   1.523   .     S
C1356  O1399   1.416   .     S
C1356  H1381   1.116   .     S
C1356  H1380   1.111   .     S
C1357  H1382   1.109   .     S
C1357  H1384   1.109   .     S
C1358  O1400   1.221   .     D
C1358  C598    1.489   1_556 S
C1358  H1468   1.083   .     S
C1359  H1386   1.085   .     S
C1359  O1401   1.221   .     D
C1359  C1363   1.487   .     S
C1360  C1364   1.393   .     A
C1361  C1362   1.416   .     A
C1361  C598    1.428   1_556 S
C1361  C613    1.421   1_556 S
C1362  C1363   1.405   .     A
C1362  O1399   1.386   .     S
C1364  H1390   1.076   .     S
H1370  C1435   1.098   .     S
H1383  C859    1.110   1_565 S
N1394  Zn1410  2.024   .     S
N1395  Zn1411  2.024   .     S
O1396  Zn1410  2.004   .     S
O1402  Zn1411  2.001   .     S
O1403  Zn1410  1.953   .     S
O1404  Zn1411  1.886   .     S
O1405  Zn1410  2.001   .     S
O1406  Zn1411  2.004   .     S
O1407  Zn1410  1.886   .     S
O1408  Zn1411  1.953   .     S
C1412  O1485   1.290   .     A
C1412  O1479   1.291   .     A
C1412  C1420   1.425   .     S
C1413  C1415   1.471   .     S
C1413  C1430   1.397   .     A
C1413  C1434   1.420   .     A
C1414  H1450   1.081   .     S
C1414  C1420   1.398   .     A
C1414  C918    1.370   1_565 S
C1415  O1486   1.305   .     A
C1415  O1487   1.297   .     A
C1416  C1417   1.396   .     A
C1416  H1449   1.084   .     S
C1417  C1426   1.423   .     S
C1417  C1418   1.398   .     A
C1418  H1460   1.083   .     S
C1419  H1470   1.082   .     S
C1419  C1420   1.397   .     A
C1419  C920    1.370   1_565 S
C1421  H1471   1.081   .     S
C1421  N1478   1.367   .     A
C1421  C1256   1.420   1_655 S
C1422  H1472   1.081   .     S
C1422  N1477   1.368   .     A
C1423  C1434   1.412   .     A
C1423  C685    1.421   1_556 S
C1423  C696    1.419   1_556 S
C1424  N1477   1.376   .     A
C1424  O1480   1.381   .     S
C1425  N1478   1.375   .     A
C1425  O1481   1.385   .     S
C1425  C1258   1.427   1_655 S
C1426  O1489   1.291   .     A
C1426  O1488   1.289   .     A
C1427  O1491   1.296   .     A
C1427  O1490   1.303   .     A
C1427  C1429   1.467   .     S
C1428  C1448   1.417   .     A
C1429  C1448   1.413   .     A
C1429  C1447   1.386   .     A
C1430  C1431   1.382   .     A
C1430  H1474   1.069   .     S
C1431  C685    1.387   1_556 S
C1431  H729    1.083   1_556 S
C1432  H1475   1.076   .     S
C1433  O1492   1.219   .     D
C1433  C1448   1.485   .     S
C1433  H1451   1.085   .     S
C1434  C1446   1.422   .     A
C1435  H1452   1.103   .     S
C1435  O1480   1.412   .     S
C1435  C1436   1.524   .     S
C1436  H1454   1.110   .     S
C1436  H1455   1.108   .     S
C1436  H1456   1.110   .     S
C1437  C1438   1.522   .     S
C1437  H1458   1.102   .     S
C1437  O1481   1.418   .     S
C1437  H1457   1.115   .     S
C1438  H1459   1.107   .     S
C1438  H1461   1.110   .     S
C1438  H1462   1.110   .     S
C1439  C1440   1.523   .     S
C1439  O1482   1.416   .     S
C1439  H1464   1.116   .     S
C1439  H1463   1.111   .     S
C1440  H1465   1.109   .     S
C1440  H1467   1.109   .     S
C1441  O1483   1.221   .     D
C1441  C681    1.489   1_556 S
C1441  H1302   1.083   1_655 S
C1442  H1469   1.085   .     S
C1442  O1484   1.221   .     D
C1442  C1446   1.487   .     S
C1443  C1447   1.393   .     A
C1444  C1445   1.416   .     A
C1444  C681    1.428   1_556 S
C1444  C696    1.421   1_556 S
C1445  C1446   1.405   .     A
C1445  O1482   1.386   .     S
C1447  H1473   1.076   .     S
H1453  C1269   1.098   1_655 S
H1466  C942    1.110   1_565 S
N1477  Zn1493  2.024   .     S
N1478  Zn1494  2.024   .     S
O1479  Zn1493  2.004   .     S
O1485  Zn1494  2.001   .     S
O1486  Zn1493  1.953   .     S
O1487  Zn1494  1.886   .     S
O1488  Zn1493  2.001   .     S
O1489  Zn1494  2.004   .     S
O1490  Zn1493  1.886   .     S
O1491  Zn1494  1.953   .     S
