data_str_m3_o1_o18_pcu_sym.70
_audit_creation_date              2020-01-03
_audit_creation_method            'Materials Studio'
_symmetry_space_group_name_H-M    'P1'
_symmetry_Int_Tables_number       1
_symmetry_cell_setting            triclinic
loop_
_symmetry_equiv_pos_as_xyz
  x,y,z
_cell_length_a                    29.6295
_cell_length_b                    31.8962
_cell_length_c                    31.2176
_cell_angle_alpha                 90.8500
_cell_angle_beta                  67.9516
_cell_angle_gamma                 90.3717
loop_
_atom_site_label
_atom_site_type_symbol
_atom_site_fract_x
_atom_site_fract_y
_atom_site_fract_z
_atom_site_U_iso_or_equiv
_atom_site_adp_type
_atom_site_occupancy
C1     C     0.16695   0.24655   0.24964   0.00000  Uiso   1.00
C2     C     0.12905   0.31161   0.28381   0.00000  Uiso   1.00
C3     C     0.16612   0.04267   0.25048   0.00000  Uiso   1.00
C4     C     0.16721   0.29066   0.24952   0.00000  Uiso   1.00
C5     C     0.31993   0.13962   0.22212   0.00000  Uiso   1.00
C6     C     0.01341   0.19371   0.27788   0.00000  Uiso   1.00
C7     C     0.03443   0.13946   0.22210   0.00000  Uiso   1.00
C8     C     0.29891   0.19387   0.27790   0.00000  Uiso   1.00
C9     C     0.13627   0.16633   0.33793   0.00000  Uiso   1.00
C10    C     0.19706   0.16700   0.16207   0.00000  Uiso   1.00
C11    C     0.11759   0.16767   0.38853   0.00000  Uiso   1.00
C12    C     0.16638   0.08679   0.25036   0.00000  Uiso   1.00
C13    C     0.21575   0.16566   0.11147   0.00000  Uiso   1.00
C14    C     0.05855   0.19352   0.46100   0.00000  Uiso   1.00
C15    C     0.27478   0.13982   0.03900   0.00000  Uiso   1.00
C16    C     0.07044   0.18188   0.41480   0.00000  Uiso   1.00
C17    C     0.26290   0.15145   0.08520   0.00000  Uiso   1.00
C18    C     0.14966   0.15869   0.41057   0.00000  Uiso   1.00
C19    C     0.18367   0.17465   0.08943   0.00000  Uiso   1.00
C20    C     0.13596   0.16531   0.45807   0.00000  Uiso   1.00
C21    C     0.19737   0.16803   0.04193   0.00000  Uiso   1.00
C22    C     0.09326   0.18905   0.48174   0.00000  Uiso   1.00
C23    C     0.12976   0.21067   0.03621   0.00000  Uiso   1.00
C24    C     0.24007   0.14428   0.01826   0.00000  Uiso   1.00
C25    C     0.16816   0.15503   0.48020   0.00000  Uiso   1.00
C26    C     0.16517   0.17830   0.01980   0.00000  Uiso   1.00
C27    C     0.20357   0.12266   0.46379   0.00000  Uiso   1.00
C28    C     0.09033   0.21186   0.02174   0.00000  Uiso   1.00
C29    C     0.24300   0.12148   0.47826   0.00000  Uiso   1.00
C30    C     0.20498   0.31193   0.21548   0.00000  Uiso   1.00
C31    C     0.12835   0.02140   0.28452   0.00000  Uiso   1.00
C32    C     0.20429   0.02172   0.21619   0.00000  Uiso   1.00
Cl33   Cl    0.04212   0.24718   0.05015   0.00000  Uiso   1.00
Cl34   Cl    0.29122   0.08616   0.44985   0.00000  Uiso   1.00
Cl35   Cl    0.13950   0.25493   0.06692   0.00000  Uiso   1.00
Cl36   Cl    0.19383   0.07840   0.43309   0.00000  Uiso   1.00
Cl37   Cl    0.25197   0.28555   0.17062   0.00000  Uiso   1.00
Cl38   Cl    0.08137   0.04778   0.32938   0.00000  Uiso   1.00
Cl39   Cl    0.07634   0.10337   0.18561   0.00000  Uiso   1.00
Cl40   Cl    0.25700   0.22997   0.31439   0.00000  Uiso   1.00
F41    F     0.13628   0.18366   0.11518   0.00000  Uiso   1.00
F42    F     0.02552   0.22064   0.30585   0.00000  Uiso   1.00
F43    F     0.19705   0.14967   0.38482   0.00000  Uiso   1.00
F44    F     0.29564   0.14433   0.10519   0.00000  Uiso   1.00
F45    F     0.03770   0.18900   0.39481   0.00000  Uiso   1.00
F46    F     0.01428   0.21114   0.48381   0.00000  Uiso   1.00
F47    F     0.31905   0.12219   0.01619   0.00000  Uiso   1.00
F48    F     0.23987   0.04328   0.18299   0.00000  Uiso   1.00
F49    F     0.09346   0.29005   0.31701   0.00000  Uiso   1.00
F50    F     0.30781   0.11269   0.19415   0.00000  Uiso   1.00
N51    N     0.04759   0.16668   0.25001   0.00000  Uiso   1.00
N52    N     0.28574   0.16666   0.24999   0.00000  Uiso   1.00
O53    O     0.12846   0.22775   0.25001   0.00000  Uiso   1.00
O54    O     0.20488   0.10558   0.25000   0.00000  Uiso   1.00
O55    O     0.20490   0.22774   0.25000   0.00000  Uiso   1.00
O56    O     0.12843   0.10559   0.25000   0.00000  Uiso   1.00
O57    O     0.10661   0.16667   0.31613   0.00000  Uiso   1.00
O58    O     0.22672   0.16666   0.18388   0.00000  Uiso   1.00
O59    O     0.18305   0.16666   0.31612   0.00000  Uiso   1.00
O60    O     0.15028   0.16667   0.18388   0.00000  Uiso   1.00
Zn61   Zn    0.11562   0.16667   0.25000   0.00000  Uiso   1.00
Zn62   Zn    0.21771   0.16666   0.25000   0.00000  Uiso   1.00
C63    C     0.50029   0.24655   0.24964   0.00000  Uiso   1.00
C64    C     0.46238   0.31161   0.28381   0.00000  Uiso   1.00
C65    C     0.49946   0.04267   0.25048   0.00000  Uiso   1.00
C66    C     0.50054   0.29066   0.24952   0.00000  Uiso   1.00
C67    C     0.65326   0.13962   0.22212   0.00000  Uiso   1.00
C68    C     0.34674   0.19371   0.27788   0.00000  Uiso   1.00
C69    C     0.36776   0.13946   0.22210   0.00000  Uiso   1.00
C70    C     0.63224   0.19387   0.27790   0.00000  Uiso   1.00
C71    C     0.46961   0.16633   0.33793   0.00000  Uiso   1.00
C72    C     0.53039   0.16700   0.16207   0.00000  Uiso   1.00
C73    C     0.45092   0.16767   0.38853   0.00000  Uiso   1.00
C74    C     0.49971   0.08679   0.25036   0.00000  Uiso   1.00
C75    C     0.54908   0.16566   0.11147   0.00000  Uiso   1.00
C76    C     0.39189   0.19352   0.46100   0.00000  Uiso   1.00
C77    C     0.60811   0.13982   0.03900   0.00000  Uiso   1.00
C78    C     0.40377   0.18188   0.41480   0.00000  Uiso   1.00
C79    C     0.59623   0.15145   0.08520   0.00000  Uiso   1.00
C80    C     0.48300   0.15869   0.41057   0.00000  Uiso   1.00
C81    C     0.51700   0.17465   0.08943   0.00000  Uiso   1.00
C82    C     0.46930   0.16531   0.45807   0.00000  Uiso   1.00
C83    C     0.53070   0.16803   0.04193   0.00000  Uiso   1.00
C84    C     0.42660   0.18905   0.48174   0.00000  Uiso   1.00
C85    C     0.46309   0.21067   0.03621   0.00000  Uiso   1.00
C86    C     0.57340   0.14428   0.01826   0.00000  Uiso   1.00
C87    C     0.50149   0.15503   0.48020   0.00000  Uiso   1.00
C88    C     0.49850   0.17830   0.01980   0.00000  Uiso   1.00
C89    C     0.53691   0.12266   0.46379   0.00000  Uiso   1.00
C90    C     0.42366   0.21186   0.02174   0.00000  Uiso   1.00
C91    C     0.57634   0.12148   0.47826   0.00000  Uiso   1.00
C92    C     0.53832   0.31193   0.21548   0.00000  Uiso   1.00
C93    C     0.46168   0.02140   0.28452   0.00000  Uiso   1.00
C94    C     0.53762   0.02172   0.21619   0.00000  Uiso   1.00
Cl95   Cl    0.37545   0.24718   0.05015   0.00000  Uiso   1.00
Cl96   Cl    0.62455   0.08616   0.44985   0.00000  Uiso   1.00
Cl97   Cl    0.47283   0.25493   0.06692   0.00000  Uiso   1.00
Cl98   Cl    0.52717   0.07840   0.43309   0.00000  Uiso   1.00
Cl99   Cl    0.58530   0.28555   0.17062   0.00000  Uiso   1.00
Cl100  Cl    0.41470   0.04778   0.32938   0.00000  Uiso   1.00
Cl101  Cl    0.40967   0.10337   0.18561   0.00000  Uiso   1.00
Cl102  Cl    0.59033   0.22997   0.31439   0.00000  Uiso   1.00
F103   F     0.46961   0.18366   0.11518   0.00000  Uiso   1.00
F104   F     0.35885   0.22064   0.30585   0.00000  Uiso   1.00
F105   F     0.53039   0.14967   0.38482   0.00000  Uiso   1.00
F106   F     0.62897   0.14433   0.10519   0.00000  Uiso   1.00
F107   F     0.37103   0.18900   0.39481   0.00000  Uiso   1.00
F108   F     0.34762   0.21114   0.48381   0.00000  Uiso   1.00
F109   F     0.65239   0.12219   0.01619   0.00000  Uiso   1.00
F110   F     0.57320   0.04328   0.18299   0.00000  Uiso   1.00
F111   F     0.42680   0.29005   0.31701   0.00000  Uiso   1.00
F112   F     0.64115   0.11269   0.19415   0.00000  Uiso   1.00
N113   N     0.38093   0.16668   0.25001   0.00000  Uiso   1.00
N114   N     0.61907   0.16666   0.24999   0.00000  Uiso   1.00
O115   O     0.46179   0.22775   0.25001   0.00000  Uiso   1.00
O116   O     0.53821   0.10558   0.25000   0.00000  Uiso   1.00
O117   O     0.53823   0.22774   0.25000   0.00000  Uiso   1.00
O118   O     0.46177   0.10559   0.25000   0.00000  Uiso   1.00
O119   O     0.43994   0.16667   0.31613   0.00000  Uiso   1.00
O120   O     0.56006   0.16666   0.18388   0.00000  Uiso   1.00
O121   O     0.51639   0.16666   0.31612   0.00000  Uiso   1.00
O122   O     0.48361   0.16667   0.18388   0.00000  Uiso   1.00
Zn123  Zn    0.44896   0.16667   0.25000   0.00000  Uiso   1.00
Zn124  Zn    0.55104   0.16666   0.25000   0.00000  Uiso   1.00
C125   C     0.83362   0.24655   0.24964   0.00000  Uiso   1.00
C126   C     0.79572   0.31161   0.28381   0.00000  Uiso   1.00
C127   C     0.83279   0.04267   0.25048   0.00000  Uiso   1.00
C128   C     0.83388   0.29066   0.24952   0.00000  Uiso   1.00
C129   C     0.98659   0.13962   0.22212   0.00000  Uiso   1.00
C130   C     0.68007   0.19371   0.27788   0.00000  Uiso   1.00
C131   C     0.70109   0.13946   0.22210   0.00000  Uiso   1.00
C132   C     0.96557   0.19387   0.27790   0.00000  Uiso   1.00
C133   C     0.80294   0.16633   0.33793   0.00000  Uiso   1.00
C134   C     0.86373   0.16700   0.16207   0.00000  Uiso   1.00
C135   C     0.78426   0.16767   0.38853   0.00000  Uiso   1.00
C136   C     0.83305   0.08679   0.25036   0.00000  Uiso   1.00
C137   C     0.88241   0.16566   0.11147   0.00000  Uiso   1.00
C138   C     0.72522   0.19352   0.46100   0.00000  Uiso   1.00
C139   C     0.94145   0.13982   0.03900   0.00000  Uiso   1.00
C140   C     0.73710   0.18188   0.41480   0.00000  Uiso   1.00
C141   C     0.92956   0.15145   0.08520   0.00000  Uiso   1.00
C142   C     0.81633   0.15869   0.41057   0.00000  Uiso   1.00
C143   C     0.85034   0.17465   0.08943   0.00000  Uiso   1.00
C144   C     0.80263   0.16531   0.45807   0.00000  Uiso   1.00
C145   C     0.86404   0.16803   0.04193   0.00000  Uiso   1.00
C146   C     0.75993   0.18905   0.48174   0.00000  Uiso   1.00
C147   C     0.79643   0.21067   0.03621   0.00000  Uiso   1.00
C148   C     0.90674   0.14428   0.01826   0.00000  Uiso   1.00
C149   C     0.83483   0.15503   0.48020   0.00000  Uiso   1.00
C150   C     0.83184   0.17830   0.01980   0.00000  Uiso   1.00
C151   C     0.87024   0.12266   0.46379   0.00000  Uiso   1.00
C152   C     0.75700   0.21186   0.02174   0.00000  Uiso   1.00
C153   C     0.90967   0.12148   0.47826   0.00000  Uiso   1.00
C154   C     0.87165   0.31193   0.21548   0.00000  Uiso   1.00
C155   C     0.79502   0.02140   0.28452   0.00000  Uiso   1.00
C156   C     0.87095   0.02172   0.21619   0.00000  Uiso   1.00
Cl157  Cl    0.70878   0.24718   0.05015   0.00000  Uiso   1.00
Cl158  Cl    0.95788   0.08616   0.44985   0.00000  Uiso   1.00
Cl159  Cl    0.80616   0.25493   0.06692   0.00000  Uiso   1.00
Cl160  Cl    0.86050   0.07840   0.43309   0.00000  Uiso   1.00
Cl161  Cl    0.91863   0.28555   0.17062   0.00000  Uiso   1.00
Cl162  Cl    0.74803   0.04778   0.32938   0.00000  Uiso   1.00
Cl163  Cl    0.74300   0.10337   0.18561   0.00000  Uiso   1.00
Cl164  Cl    0.92366   0.22997   0.31439   0.00000  Uiso   1.00
F165   F     0.80295   0.18366   0.11518   0.00000  Uiso   1.00
F166   F     0.69219   0.22064   0.30585   0.00000  Uiso   1.00
F167   F     0.86372   0.14967   0.38482   0.00000  Uiso   1.00
F168   F     0.96230   0.14433   0.10519   0.00000  Uiso   1.00
F169   F     0.70436   0.18900   0.39481   0.00000  Uiso   1.00
F170   F     0.68095   0.21114   0.48381   0.00000  Uiso   1.00
F171   F     0.98572   0.12219   0.01619   0.00000  Uiso   1.00
F172   F     0.90654   0.04328   0.18299   0.00000  Uiso   1.00
F173   F     0.76013   0.29005   0.31701   0.00000  Uiso   1.00
F174   F     0.97448   0.11269   0.19415   0.00000  Uiso   1.00
N175   N     0.71426   0.16668   0.25001   0.00000  Uiso   1.00
N176   N     0.95241   0.16666   0.24999   0.00000  Uiso   1.00
O177   O     0.79512   0.22775   0.25001   0.00000  Uiso   1.00
O178   O     0.87154   0.10558   0.25000   0.00000  Uiso   1.00
O179   O     0.87157   0.22774   0.25000   0.00000  Uiso   1.00
O180   O     0.79510   0.10559   0.25000   0.00000  Uiso   1.00
O181   O     0.77328   0.16667   0.31613   0.00000  Uiso   1.00
O182   O     0.89339   0.16666   0.18388   0.00000  Uiso   1.00
O183   O     0.84972   0.16666   0.31612   0.00000  Uiso   1.00
O184   O     0.81695   0.16667   0.18388   0.00000  Uiso   1.00
Zn185  Zn    0.78229   0.16667   0.25000   0.00000  Uiso   1.00
Zn186  Zn    0.88438   0.16666   0.25000   0.00000  Uiso   1.00
C187   C     0.16695   0.57988   0.24964   0.00000  Uiso   1.00
C188   C     0.12905   0.64495   0.28381   0.00000  Uiso   1.00
C189   C     0.16612   0.37600   0.25048   0.00000  Uiso   1.00
C190   C     0.16721   0.62400   0.24952   0.00000  Uiso   1.00
C191   C     0.31993   0.47295   0.22212   0.00000  Uiso   1.00
C192   C     0.01341   0.52705   0.27788   0.00000  Uiso   1.00
C193   C     0.03443   0.47280   0.22210   0.00000  Uiso   1.00
C194   C     0.29891   0.52720   0.27790   0.00000  Uiso   1.00
C195   C     0.13627   0.49967   0.33793   0.00000  Uiso   1.00
C196   C     0.19706   0.50033   0.16207   0.00000  Uiso   1.00
C197   C     0.11759   0.50101   0.38853   0.00000  Uiso   1.00
C198   C     0.16638   0.42012   0.25036   0.00000  Uiso   1.00
C199   C     0.21575   0.49899   0.11147   0.00000  Uiso   1.00
C200   C     0.05855   0.52685   0.46100   0.00000  Uiso   1.00
C201   C     0.27478   0.47315   0.03900   0.00000  Uiso   1.00
C202   C     0.07044   0.51522   0.41480   0.00000  Uiso   1.00
C203   C     0.26290   0.48478   0.08520   0.00000  Uiso   1.00
C204   C     0.14966   0.49202   0.41057   0.00000  Uiso   1.00
C205   C     0.18367   0.50798   0.08943   0.00000  Uiso   1.00
C206   C     0.13596   0.49864   0.45807   0.00000  Uiso   1.00
C207   C     0.19737   0.50136   0.04193   0.00000  Uiso   1.00
C208   C     0.09326   0.52239   0.48174   0.00000  Uiso   1.00
C209   C     0.12976   0.54401   0.03621   0.00000  Uiso   1.00
C210   C     0.24007   0.47761   0.01826   0.00000  Uiso   1.00
C211   C     0.16816   0.48837   0.48020   0.00000  Uiso   1.00
C212   C     0.16517   0.51163   0.01980   0.00000  Uiso   1.00
C213   C     0.20357   0.45599   0.46379   0.00000  Uiso   1.00
C214   C     0.09033   0.54519   0.02174   0.00000  Uiso   1.00
C215   C     0.24300   0.45481   0.47826   0.00000  Uiso   1.00
C216   C     0.20498   0.64527   0.21548   0.00000  Uiso   1.00
C217   C     0.12835   0.35473   0.28452   0.00000  Uiso   1.00
C218   C     0.20429   0.35506   0.21619   0.00000  Uiso   1.00
Cl219  Cl    0.04212   0.58051   0.05015   0.00000  Uiso   1.00
Cl220  Cl    0.29122   0.41949   0.44985   0.00000  Uiso   1.00
Cl221  Cl    0.13950   0.58826   0.06692   0.00000  Uiso   1.00
Cl222  Cl    0.19383   0.41173   0.43309   0.00000  Uiso   1.00
Cl223  Cl    0.25197   0.61889   0.17062   0.00000  Uiso   1.00
Cl224  Cl    0.08137   0.38111   0.32938   0.00000  Uiso   1.00
Cl225  Cl    0.07634   0.43670   0.18561   0.00000  Uiso   1.00
Cl226  Cl    0.25700   0.56330   0.31439   0.00000  Uiso   1.00
F227   F     0.13628   0.51699   0.11518   0.00000  Uiso   1.00
F228   F     0.02552   0.55398   0.30585   0.00000  Uiso   1.00
F229   F     0.19705   0.48300   0.38482   0.00000  Uiso   1.00
F230   F     0.29564   0.47767   0.10519   0.00000  Uiso   1.00
F231   F     0.03770   0.52234   0.39481   0.00000  Uiso   1.00
F232   F     0.01428   0.54448   0.48381   0.00000  Uiso   1.00
F233   F     0.31905   0.45553   0.01619   0.00000  Uiso   1.00
F234   F     0.23987   0.37662   0.18299   0.00000  Uiso   1.00
F235   F     0.09346   0.62338   0.31701   0.00000  Uiso   1.00
F236   F     0.30781   0.44602   0.19415   0.00000  Uiso   1.00
N237   N     0.04759   0.50001   0.25001   0.00000  Uiso   1.00
N238   N     0.28574   0.49999   0.24999   0.00000  Uiso   1.00
O239   O     0.12846   0.56108   0.25001   0.00000  Uiso   1.00
O240   O     0.20488   0.43892   0.25000   0.00000  Uiso   1.00
O241   O     0.20490   0.56107   0.25000   0.00000  Uiso   1.00
O242   O     0.12843   0.43893   0.25000   0.00000  Uiso   1.00
O243   O     0.10661   0.50001   0.31613   0.00000  Uiso   1.00
O244   O     0.22672   0.49999   0.18388   0.00000  Uiso   1.00
O245   O     0.18305   0.50000   0.31612   0.00000  Uiso   1.00
O246   O     0.15028   0.50000   0.18388   0.00000  Uiso   1.00
Zn247  Zn    0.11562   0.50001   0.25000   0.00000  Uiso   1.00
Zn248  Zn    0.21771   0.49999   0.25000   0.00000  Uiso   1.00
C249   C     0.50029   0.57988   0.24964   0.00000  Uiso   1.00
C250   C     0.46238   0.64495   0.28381   0.00000  Uiso   1.00
C251   C     0.49946   0.37600   0.25048   0.00000  Uiso   1.00
C252   C     0.50054   0.62400   0.24952   0.00000  Uiso   1.00
C253   C     0.65326   0.47295   0.22212   0.00000  Uiso   1.00
C254   C     0.34674   0.52705   0.27788   0.00000  Uiso   1.00
C255   C     0.36776   0.47280   0.22210   0.00000  Uiso   1.00
C256   C     0.63224   0.52720   0.27790   0.00000  Uiso   1.00
C257   C     0.46961   0.49967   0.33793   0.00000  Uiso   1.00
C258   C     0.53039   0.50033   0.16207   0.00000  Uiso   1.00
C259   C     0.45092   0.50101   0.38853   0.00000  Uiso   1.00
C260   C     0.49971   0.42012   0.25036   0.00000  Uiso   1.00
C261   C     0.54908   0.49899   0.11147   0.00000  Uiso   1.00
C262   C     0.39189   0.52685   0.46100   0.00000  Uiso   1.00
C263   C     0.60811   0.47315   0.03900   0.00000  Uiso   1.00
C264   C     0.40377   0.51522   0.41480   0.00000  Uiso   1.00
C265   C     0.59623   0.48478   0.08520   0.00000  Uiso   1.00
C266   C     0.48300   0.49202   0.41057   0.00000  Uiso   1.00
C267   C     0.51700   0.50798   0.08943   0.00000  Uiso   1.00
C268   C     0.46930   0.49864   0.45807   0.00000  Uiso   1.00
C269   C     0.53070   0.50136   0.04193   0.00000  Uiso   1.00
C270   C     0.42660   0.52239   0.48174   0.00000  Uiso   1.00
C271   C     0.46309   0.54401   0.03621   0.00000  Uiso   1.00
C272   C     0.57340   0.47761   0.01826   0.00000  Uiso   1.00
C273   C     0.50149   0.48837   0.48020   0.00000  Uiso   1.00
C274   C     0.49850   0.51163   0.01980   0.00000  Uiso   1.00
C275   C     0.53691   0.45599   0.46379   0.00000  Uiso   1.00
C276   C     0.42366   0.54519   0.02174   0.00000  Uiso   1.00
C277   C     0.57634   0.45481   0.47826   0.00000  Uiso   1.00
C278   C     0.53832   0.64527   0.21548   0.00000  Uiso   1.00
C279   C     0.46168   0.35473   0.28452   0.00000  Uiso   1.00
C280   C     0.53762   0.35506   0.21619   0.00000  Uiso   1.00
Cl281  Cl    0.37545   0.58051   0.05015   0.00000  Uiso   1.00
Cl282  Cl    0.62455   0.41949   0.44985   0.00000  Uiso   1.00
Cl283  Cl    0.47283   0.58826   0.06692   0.00000  Uiso   1.00
Cl284  Cl    0.52717   0.41173   0.43309   0.00000  Uiso   1.00
Cl285  Cl    0.58530   0.61889   0.17062   0.00000  Uiso   1.00
Cl286  Cl    0.41470   0.38111   0.32938   0.00000  Uiso   1.00
Cl287  Cl    0.40967   0.43670   0.18561   0.00000  Uiso   1.00
Cl288  Cl    0.59033   0.56330   0.31439   0.00000  Uiso   1.00
F289   F     0.46961   0.51699   0.11518   0.00000  Uiso   1.00
F290   F     0.35885   0.55398   0.30585   0.00000  Uiso   1.00
F291   F     0.53039   0.48300   0.38482   0.00000  Uiso   1.00
F292   F     0.62897   0.47767   0.10519   0.00000  Uiso   1.00
F293   F     0.37103   0.52234   0.39481   0.00000  Uiso   1.00
F294   F     0.34762   0.54448   0.48381   0.00000  Uiso   1.00
F295   F     0.65239   0.45553   0.01619   0.00000  Uiso   1.00
F296   F     0.57320   0.37662   0.18299   0.00000  Uiso   1.00
F297   F     0.42680   0.62338   0.31701   0.00000  Uiso   1.00
F298   F     0.64115   0.44602   0.19415   0.00000  Uiso   1.00
N299   N     0.38093   0.50001   0.25001   0.00000  Uiso   1.00
N300   N     0.61907   0.49999   0.24999   0.00000  Uiso   1.00
O301   O     0.46179   0.56108   0.25001   0.00000  Uiso   1.00
O302   O     0.53821   0.43892   0.25000   0.00000  Uiso   1.00
O303   O     0.53823   0.56107   0.25000   0.00000  Uiso   1.00
O304   O     0.46177   0.43893   0.25000   0.00000  Uiso   1.00
O305   O     0.43994   0.50001   0.31613   0.00000  Uiso   1.00
O306   O     0.56006   0.49999   0.18388   0.00000  Uiso   1.00
O307   O     0.51639   0.50000   0.31612   0.00000  Uiso   1.00
O308   O     0.48361   0.50000   0.18388   0.00000  Uiso   1.00
Zn309  Zn    0.44896   0.50001   0.25000   0.00000  Uiso   1.00
Zn310  Zn    0.55104   0.49999   0.25000   0.00000  Uiso   1.00
C311   C     0.83362   0.57988   0.24964   0.00000  Uiso   1.00
C312   C     0.79572   0.64495   0.28381   0.00000  Uiso   1.00
C313   C     0.83279   0.37600   0.25048   0.00000  Uiso   1.00
C314   C     0.83388   0.62400   0.24952   0.00000  Uiso   1.00
C315   C     0.98659   0.47295   0.22212   0.00000  Uiso   1.00
C316   C     0.68007   0.52705   0.27788   0.00000  Uiso   1.00
C317   C     0.70109   0.47280   0.22210   0.00000  Uiso   1.00
C318   C     0.96557   0.52720   0.27790   0.00000  Uiso   1.00
C319   C     0.80294   0.49967   0.33793   0.00000  Uiso   1.00
C320   C     0.86373   0.50033   0.16207   0.00000  Uiso   1.00
C321   C     0.78426   0.50101   0.38853   0.00000  Uiso   1.00
C322   C     0.83305   0.42012   0.25036   0.00000  Uiso   1.00
C323   C     0.88241   0.49899   0.11147   0.00000  Uiso   1.00
C324   C     0.72522   0.52685   0.46100   0.00000  Uiso   1.00
C325   C     0.94145   0.47315   0.03900   0.00000  Uiso   1.00
C326   C     0.73710   0.51522   0.41480   0.00000  Uiso   1.00
C327   C     0.92956   0.48478   0.08520   0.00000  Uiso   1.00
C328   C     0.81633   0.49202   0.41057   0.00000  Uiso   1.00
C329   C     0.85034   0.50798   0.08943   0.00000  Uiso   1.00
C330   C     0.80263   0.49864   0.45807   0.00000  Uiso   1.00
C331   C     0.86404   0.50136   0.04193   0.00000  Uiso   1.00
C332   C     0.75993   0.52239   0.48174   0.00000  Uiso   1.00
C333   C     0.79643   0.54401   0.03621   0.00000  Uiso   1.00
C334   C     0.90674   0.47761   0.01826   0.00000  Uiso   1.00
C335   C     0.83483   0.48837   0.48020   0.00000  Uiso   1.00
C336   C     0.83184   0.51163   0.01980   0.00000  Uiso   1.00
C337   C     0.87024   0.45599   0.46379   0.00000  Uiso   1.00
C338   C     0.75700   0.54519   0.02174   0.00000  Uiso   1.00
C339   C     0.90967   0.45481   0.47826   0.00000  Uiso   1.00
C340   C     0.87165   0.64527   0.21548   0.00000  Uiso   1.00
C341   C     0.79502   0.35473   0.28452   0.00000  Uiso   1.00
C342   C     0.87095   0.35506   0.21619   0.00000  Uiso   1.00
Cl343  Cl    0.70878   0.58051   0.05015   0.00000  Uiso   1.00
Cl344  Cl    0.95788   0.41949   0.44985   0.00000  Uiso   1.00
Cl345  Cl    0.80616   0.58826   0.06692   0.00000  Uiso   1.00
Cl346  Cl    0.86050   0.41173   0.43309   0.00000  Uiso   1.00
Cl347  Cl    0.91863   0.61889   0.17062   0.00000  Uiso   1.00
Cl348  Cl    0.74803   0.38111   0.32938   0.00000  Uiso   1.00
Cl349  Cl    0.74300   0.43670   0.18561   0.00000  Uiso   1.00
Cl350  Cl    0.92366   0.56330   0.31439   0.00000  Uiso   1.00
F351   F     0.80295   0.51699   0.11518   0.00000  Uiso   1.00
F352   F     0.69219   0.55398   0.30585   0.00000  Uiso   1.00
F353   F     0.86372   0.48300   0.38482   0.00000  Uiso   1.00
F354   F     0.96230   0.47767   0.10519   0.00000  Uiso   1.00
F355   F     0.70436   0.52234   0.39481   0.00000  Uiso   1.00
F356   F     0.68095   0.54448   0.48381   0.00000  Uiso   1.00
F357   F     0.98572   0.45553   0.01619   0.00000  Uiso   1.00
F358   F     0.90654   0.37662   0.18299   0.00000  Uiso   1.00
F359   F     0.76013   0.62338   0.31701   0.00000  Uiso   1.00
F360   F     0.97448   0.44602   0.19415   0.00000  Uiso   1.00
N361   N     0.71426   0.50001   0.25001   0.00000  Uiso   1.00
N362   N     0.95241   0.49999   0.24999   0.00000  Uiso   1.00
O363   O     0.79512   0.56108   0.25001   0.00000  Uiso   1.00
O364   O     0.87154   0.43892   0.25000   0.00000  Uiso   1.00
O365   O     0.87157   0.56107   0.25000   0.00000  Uiso   1.00
O366   O     0.79510   0.43893   0.25000   0.00000  Uiso   1.00
O367   O     0.77328   0.50001   0.31613   0.00000  Uiso   1.00
O368   O     0.89339   0.49999   0.18388   0.00000  Uiso   1.00
O369   O     0.84972   0.50000   0.31612   0.00000  Uiso   1.00
O370   O     0.81695   0.50000   0.18388   0.00000  Uiso   1.00
Zn371  Zn    0.78229   0.50001   0.25000   0.00000  Uiso   1.00
Zn372  Zn    0.88438   0.49999   0.25000   0.00000  Uiso   1.00
C373   C     0.16695   0.91321   0.24964   0.00000  Uiso   1.00
C374   C     0.12905   0.97828   0.28381   0.00000  Uiso   1.00
C375   C     0.16612   0.70934   0.25048   0.00000  Uiso   1.00
C376   C     0.16721   0.95733   0.24952   0.00000  Uiso   1.00
C377   C     0.31993   0.80629   0.22212   0.00000  Uiso   1.00
C378   C     0.01341   0.86038   0.27788   0.00000  Uiso   1.00
C379   C     0.03443   0.80613   0.22210   0.00000  Uiso   1.00
C380   C     0.29891   0.86054   0.27790   0.00000  Uiso   1.00
C381   C     0.13627   0.83300   0.33793   0.00000  Uiso   1.00
C382   C     0.19706   0.83367   0.16207   0.00000  Uiso   1.00
C383   C     0.11759   0.83434   0.38853   0.00000  Uiso   1.00
C384   C     0.16638   0.75345   0.25036   0.00000  Uiso   1.00
C385   C     0.21575   0.83233   0.11147   0.00000  Uiso   1.00
C386   C     0.05855   0.86019   0.46100   0.00000  Uiso   1.00
C387   C     0.27478   0.80648   0.03900   0.00000  Uiso   1.00
C388   C     0.07044   0.84855   0.41480   0.00000  Uiso   1.00
C389   C     0.26290   0.81812   0.08520   0.00000  Uiso   1.00
C390   C     0.14966   0.82535   0.41057   0.00000  Uiso   1.00
C391   C     0.18367   0.84131   0.08943   0.00000  Uiso   1.00
C392   C     0.13596   0.83197   0.45807   0.00000  Uiso   1.00
C393   C     0.19737   0.83469   0.04193   0.00000  Uiso   1.00
C394   C     0.09326   0.85572   0.48174   0.00000  Uiso   1.00
C395   C     0.12976   0.87734   0.03621   0.00000  Uiso   1.00
C396   C     0.24007   0.81095   0.01826   0.00000  Uiso   1.00
C397   C     0.16816   0.82170   0.48020   0.00000  Uiso   1.00
C398   C     0.16517   0.84496   0.01980   0.00000  Uiso   1.00
C399   C     0.20357   0.78933   0.46379   0.00000  Uiso   1.00
C400   C     0.09033   0.87852   0.02174   0.00000  Uiso   1.00
C401   C     0.24300   0.78814   0.47826   0.00000  Uiso   1.00
C402   C     0.20498   0.97860   0.21548   0.00000  Uiso   1.00
C403   C     0.12835   0.68807   0.28452   0.00000  Uiso   1.00
C404   C     0.20429   0.68839   0.21619   0.00000  Uiso   1.00
Cl405  Cl    0.04212   0.91384   0.05015   0.00000  Uiso   1.00
Cl406  Cl    0.29122   0.75282   0.44985   0.00000  Uiso   1.00
Cl407  Cl    0.13950   0.92160   0.06692   0.00000  Uiso   1.00
Cl408  Cl    0.19383   0.74506   0.43309   0.00000  Uiso   1.00
Cl409  Cl    0.25197   0.95222   0.17062   0.00000  Uiso   1.00
Cl410  Cl    0.08137   0.71445   0.32938   0.00000  Uiso   1.00
Cl411  Cl    0.07634   0.77003   0.18561   0.00000  Uiso   1.00
Cl412  Cl    0.25700   0.89663   0.31439   0.00000  Uiso   1.00
F413   F     0.13628   0.85033   0.11518   0.00000  Uiso   1.00
F414   F     0.02552   0.88731   0.30585   0.00000  Uiso   1.00
F415   F     0.19705   0.81633   0.38482   0.00000  Uiso   1.00
F416   F     0.29564   0.81100   0.10519   0.00000  Uiso   1.00
F417   F     0.03770   0.85567   0.39481   0.00000  Uiso   1.00
F418   F     0.01428   0.87781   0.48381   0.00000  Uiso   1.00
F419   F     0.31905   0.78886   0.01619   0.00000  Uiso   1.00
F420   F     0.23987   0.70995   0.18299   0.00000  Uiso   1.00
F421   F     0.09346   0.95672   0.31701   0.00000  Uiso   1.00
F422   F     0.30781   0.77936   0.19415   0.00000  Uiso   1.00
N423   N     0.04759   0.83334   0.25001   0.00000  Uiso   1.00
N424   N     0.28574   0.83332   0.24999   0.00000  Uiso   1.00
O425   O     0.12846   0.89442   0.25001   0.00000  Uiso   1.00
O426   O     0.20488   0.77225   0.25000   0.00000  Uiso   1.00
O427   O     0.20490   0.89441   0.25000   0.00000  Uiso   1.00
O428   O     0.12843   0.77226   0.25000   0.00000  Uiso   1.00
O429   O     0.10661   0.83334   0.31613   0.00000  Uiso   1.00
O430   O     0.22672   0.83333   0.18388   0.00000  Uiso   1.00
O431   O     0.18305   0.83333   0.31612   0.00000  Uiso   1.00
O432   O     0.15028   0.83334   0.18388   0.00000  Uiso   1.00
Zn433  Zn    0.11562   0.83334   0.25000   0.00000  Uiso   1.00
Zn434  Zn    0.21771   0.83333   0.25000   0.00000  Uiso   1.00
C435   C     0.50029   0.91321   0.24964   0.00000  Uiso   1.00
C436   C     0.46238   0.97828   0.28381   0.00000  Uiso   1.00
C437   C     0.49946   0.70934   0.25048   0.00000  Uiso   1.00
C438   C     0.50054   0.95733   0.24952   0.00000  Uiso   1.00
C439   C     0.65326   0.80629   0.22212   0.00000  Uiso   1.00
C440   C     0.34674   0.86038   0.27788   0.00000  Uiso   1.00
C441   C     0.36776   0.80613   0.22210   0.00000  Uiso   1.00
C442   C     0.63224   0.86054   0.27790   0.00000  Uiso   1.00
C443   C     0.46961   0.83300   0.33793   0.00000  Uiso   1.00
C444   C     0.53039   0.83367   0.16207   0.00000  Uiso   1.00
C445   C     0.45092   0.83434   0.38853   0.00000  Uiso   1.00
C446   C     0.49971   0.75345   0.25036   0.00000  Uiso   1.00
C447   C     0.54908   0.83233   0.11147   0.00000  Uiso   1.00
C448   C     0.39189   0.86019   0.46100   0.00000  Uiso   1.00
C449   C     0.60811   0.80648   0.03900   0.00000  Uiso   1.00
C450   C     0.40377   0.84855   0.41480   0.00000  Uiso   1.00
C451   C     0.59623   0.81812   0.08520   0.00000  Uiso   1.00
C452   C     0.48300   0.82535   0.41057   0.00000  Uiso   1.00
C453   C     0.51700   0.84131   0.08943   0.00000  Uiso   1.00
C454   C     0.46930   0.83197   0.45807   0.00000  Uiso   1.00
C455   C     0.53070   0.83469   0.04193   0.00000  Uiso   1.00
C456   C     0.42660   0.85572   0.48174   0.00000  Uiso   1.00
C457   C     0.46309   0.87734   0.03621   0.00000  Uiso   1.00
C458   C     0.57340   0.81095   0.01826   0.00000  Uiso   1.00
C459   C     0.50149   0.82170   0.48020   0.00000  Uiso   1.00
C460   C     0.49850   0.84496   0.01980   0.00000  Uiso   1.00
C461   C     0.53691   0.78933   0.46379   0.00000  Uiso   1.00
C462   C     0.42366   0.87852   0.02174   0.00000  Uiso   1.00
C463   C     0.57634   0.78814   0.47826   0.00000  Uiso   1.00
C464   C     0.53832   0.97860   0.21548   0.00000  Uiso   1.00
C465   C     0.46168   0.68807   0.28452   0.00000  Uiso   1.00
C466   C     0.53762   0.68839   0.21619   0.00000  Uiso   1.00
Cl467  Cl    0.37545   0.91384   0.05015   0.00000  Uiso   1.00
Cl468  Cl    0.62455   0.75282   0.44985   0.00000  Uiso   1.00
Cl469  Cl    0.47283   0.92160   0.06692   0.00000  Uiso   1.00
Cl470  Cl    0.52717   0.74506   0.43309   0.00000  Uiso   1.00
Cl471  Cl    0.58530   0.95222   0.17062   0.00000  Uiso   1.00
Cl472  Cl    0.41470   0.71445   0.32938   0.00000  Uiso   1.00
Cl473  Cl    0.40967   0.77003   0.18561   0.00000  Uiso   1.00
Cl474  Cl    0.59033   0.89663   0.31439   0.00000  Uiso   1.00
F475   F     0.46961   0.85033   0.11518   0.00000  Uiso   1.00
F476   F     0.35885   0.88731   0.30585   0.00000  Uiso   1.00
F477   F     0.53039   0.81633   0.38482   0.00000  Uiso   1.00
F478   F     0.62897   0.81100   0.10519   0.00000  Uiso   1.00
F479   F     0.37103   0.85567   0.39481   0.00000  Uiso   1.00
F480   F     0.34762   0.87781   0.48381   0.00000  Uiso   1.00
F481   F     0.65239   0.78886   0.01619   0.00000  Uiso   1.00
F482   F     0.57320   0.70995   0.18299   0.00000  Uiso   1.00
F483   F     0.42680   0.95672   0.31701   0.00000  Uiso   1.00
F484   F     0.64115   0.77936   0.19415   0.00000  Uiso   1.00
N485   N     0.38093   0.83334   0.25001   0.00000  Uiso   1.00
N486   N     0.61907   0.83332   0.24999   0.00000  Uiso   1.00
O487   O     0.46179   0.89442   0.25001   0.00000  Uiso   1.00
O488   O     0.53821   0.77225   0.25000   0.00000  Uiso   1.00
O489   O     0.53823   0.89441   0.25000   0.00000  Uiso   1.00
O490   O     0.46177   0.77226   0.25000   0.00000  Uiso   1.00
O491   O     0.43994   0.83334   0.31613   0.00000  Uiso   1.00
O492   O     0.56006   0.83333   0.18388   0.00000  Uiso   1.00
O493   O     0.51639   0.83333   0.31612   0.00000  Uiso   1.00
O494   O     0.48361   0.83334   0.18388   0.00000  Uiso   1.00
Zn495  Zn    0.44896   0.83334   0.25000   0.00000  Uiso   1.00
Zn496  Zn    0.55104   0.83333   0.25000   0.00000  Uiso   1.00
C497   C     0.83362   0.91321   0.24964   0.00000  Uiso   1.00
C498   C     0.79572   0.97828   0.28381   0.00000  Uiso   1.00
C499   C     0.83279   0.70934   0.25048   0.00000  Uiso   1.00
C500   C     0.83388   0.95733   0.24952   0.00000  Uiso   1.00
C501   C     0.98659   0.80629   0.22212   0.00000  Uiso   1.00
C502   C     0.68007   0.86038   0.27788   0.00000  Uiso   1.00
C503   C     0.70109   0.80613   0.22210   0.00000  Uiso   1.00
C504   C     0.96557   0.86054   0.27790   0.00000  Uiso   1.00
C505   C     0.80294   0.83300   0.33793   0.00000  Uiso   1.00
C506   C     0.86373   0.83367   0.16207   0.00000  Uiso   1.00
C507   C     0.78426   0.83434   0.38853   0.00000  Uiso   1.00
C508   C     0.83305   0.75345   0.25036   0.00000  Uiso   1.00
C509   C     0.88241   0.83233   0.11147   0.00000  Uiso   1.00
C510   C     0.72522   0.86019   0.46100   0.00000  Uiso   1.00
C511   C     0.94145   0.80648   0.03900   0.00000  Uiso   1.00
C512   C     0.73710   0.84855   0.41480   0.00000  Uiso   1.00
C513   C     0.92956   0.81812   0.08520   0.00000  Uiso   1.00
C514   C     0.81633   0.82535   0.41057   0.00000  Uiso   1.00
C515   C     0.85034   0.84131   0.08943   0.00000  Uiso   1.00
C516   C     0.80263   0.83197   0.45807   0.00000  Uiso   1.00
C517   C     0.86404   0.83469   0.04193   0.00000  Uiso   1.00
C518   C     0.75993   0.85572   0.48174   0.00000  Uiso   1.00
C519   C     0.79643   0.87734   0.03621   0.00000  Uiso   1.00
C520   C     0.90674   0.81095   0.01826   0.00000  Uiso   1.00
C521   C     0.83483   0.82170   0.48020   0.00000  Uiso   1.00
C522   C     0.83184   0.84496   0.01980   0.00000  Uiso   1.00
C523   C     0.87024   0.78933   0.46379   0.00000  Uiso   1.00
C524   C     0.75700   0.87852   0.02174   0.00000  Uiso   1.00
C525   C     0.90967   0.78814   0.47826   0.00000  Uiso   1.00
C526   C     0.87165   0.97860   0.21548   0.00000  Uiso   1.00
C527   C     0.79502   0.68807   0.28452   0.00000  Uiso   1.00
C528   C     0.87095   0.68839   0.21619   0.00000  Uiso   1.00
Cl529  Cl    0.70878   0.91384   0.05015   0.00000  Uiso   1.00
Cl530  Cl    0.95788   0.75282   0.44985   0.00000  Uiso   1.00
Cl531  Cl    0.80616   0.92160   0.06692   0.00000  Uiso   1.00
Cl532  Cl    0.86050   0.74506   0.43309   0.00000  Uiso   1.00
Cl533  Cl    0.91863   0.95222   0.17062   0.00000  Uiso   1.00
Cl534  Cl    0.74803   0.71445   0.32938   0.00000  Uiso   1.00
Cl535  Cl    0.74300   0.77003   0.18561   0.00000  Uiso   1.00
Cl536  Cl    0.92366   0.89663   0.31439   0.00000  Uiso   1.00
F537   F     0.80295   0.85033   0.11518   0.00000  Uiso   1.00
F538   F     0.69219   0.88731   0.30585   0.00000  Uiso   1.00
F539   F     0.86372   0.81633   0.38482   0.00000  Uiso   1.00
F540   F     0.96230   0.81100   0.10519   0.00000  Uiso   1.00
F541   F     0.70436   0.85567   0.39481   0.00000  Uiso   1.00
F542   F     0.68095   0.87781   0.48381   0.00000  Uiso   1.00
F543   F     0.98572   0.78886   0.01619   0.00000  Uiso   1.00
F544   F     0.90654   0.70995   0.18299   0.00000  Uiso   1.00
F545   F     0.76013   0.95672   0.31701   0.00000  Uiso   1.00
F546   F     0.97448   0.77936   0.19415   0.00000  Uiso   1.00
N547   N     0.71426   0.83334   0.25001   0.00000  Uiso   1.00
N548   N     0.95241   0.83332   0.24999   0.00000  Uiso   1.00
O549   O     0.79512   0.89442   0.25001   0.00000  Uiso   1.00
O550   O     0.87154   0.77225   0.25000   0.00000  Uiso   1.00
O551   O     0.87157   0.89441   0.25000   0.00000  Uiso   1.00
O552   O     0.79510   0.77226   0.25000   0.00000  Uiso   1.00
O553   O     0.77328   0.83334   0.31613   0.00000  Uiso   1.00
O554   O     0.89339   0.83333   0.18388   0.00000  Uiso   1.00
O555   O     0.84972   0.83333   0.31612   0.00000  Uiso   1.00
O556   O     0.81695   0.83334   0.18388   0.00000  Uiso   1.00
Zn557  Zn    0.78229   0.83334   0.25000   0.00000  Uiso   1.00
Zn558  Zn    0.88438   0.83333   0.25000   0.00000  Uiso   1.00
C559   C     0.16695   0.24655   0.74964   0.00000  Uiso   1.00
C560   C     0.12905   0.31161   0.78381   0.00000  Uiso   1.00
C561   C     0.16612   0.04267   0.75048   0.00000  Uiso   1.00
C562   C     0.16721   0.29066   0.74952   0.00000  Uiso   1.00
C563   C     0.31993   0.13962   0.72212   0.00000  Uiso   1.00
C564   C     0.01341   0.19371   0.77788   0.00000  Uiso   1.00
C565   C     0.03443   0.13946   0.72210   0.00000  Uiso   1.00
C566   C     0.29891   0.19387   0.77790   0.00000  Uiso   1.00
C567   C     0.13627   0.16633   0.83793   0.00000  Uiso   1.00
C568   C     0.19706   0.16700   0.66207   0.00000  Uiso   1.00
C569   C     0.11759   0.16767   0.88853   0.00000  Uiso   1.00
C570   C     0.16638   0.08679   0.75036   0.00000  Uiso   1.00
C571   C     0.21575   0.16566   0.61147   0.00000  Uiso   1.00
C572   C     0.05855   0.19352   0.96100   0.00000  Uiso   1.00
C573   C     0.27478   0.13982   0.53900   0.00000  Uiso   1.00
C574   C     0.07044   0.18188   0.91480   0.00000  Uiso   1.00
C575   C     0.26290   0.15145   0.58520   0.00000  Uiso   1.00
C576   C     0.14966   0.15869   0.91057   0.00000  Uiso   1.00
C577   C     0.18367   0.17465   0.58943   0.00000  Uiso   1.00
C578   C     0.13596   0.16531   0.95807   0.00000  Uiso   1.00
C579   C     0.19737   0.16803   0.54193   0.00000  Uiso   1.00
C580   C     0.09326   0.18905   0.98174   0.00000  Uiso   1.00
C581   C     0.12976   0.21067   0.53621   0.00000  Uiso   1.00
C582   C     0.24007   0.14428   0.51826   0.00000  Uiso   1.00
C583   C     0.16816   0.15503   0.98020   0.00000  Uiso   1.00
C584   C     0.16517   0.17830   0.51980   0.00000  Uiso   1.00
C585   C     0.20357   0.12266   0.96379   0.00000  Uiso   1.00
C586   C     0.09033   0.21186   0.52174   0.00000  Uiso   1.00
C587   C     0.24300   0.12148   0.97826   0.00000  Uiso   1.00
C588   C     0.20498   0.31193   0.71548   0.00000  Uiso   1.00
C589   C     0.12835   0.02140   0.78452   0.00000  Uiso   1.00
C590   C     0.20429   0.02172   0.71619   0.00000  Uiso   1.00
Cl591  Cl    0.04212   0.24718   0.55015   0.00000  Uiso   1.00
Cl592  Cl    0.29122   0.08616   0.94985   0.00000  Uiso   1.00
Cl593  Cl    0.13950   0.25493   0.56692   0.00000  Uiso   1.00
Cl594  Cl    0.19383   0.07840   0.93309   0.00000  Uiso   1.00
Cl595  Cl    0.25197   0.28555   0.67062   0.00000  Uiso   1.00
Cl596  Cl    0.08137   0.04778   0.82938   0.00000  Uiso   1.00
Cl597  Cl    0.07634   0.10337   0.68561   0.00000  Uiso   1.00
Cl598  Cl    0.25700   0.22997   0.81439   0.00000  Uiso   1.00
F599   F     0.13628   0.18366   0.61518   0.00000  Uiso   1.00
F600   F     0.02552   0.22064   0.80585   0.00000  Uiso   1.00
F601   F     0.19705   0.14967   0.88482   0.00000  Uiso   1.00
F602   F     0.29564   0.14433   0.60519   0.00000  Uiso   1.00
F603   F     0.03770   0.18900   0.89481   0.00000  Uiso   1.00
F604   F     0.01428   0.21114   0.98381   0.00000  Uiso   1.00
F605   F     0.31905   0.12219   0.51619   0.00000  Uiso   1.00
F606   F     0.23987   0.04328   0.68299   0.00000  Uiso   1.00
F607   F     0.09346   0.29005   0.81701   0.00000  Uiso   1.00
F608   F     0.30781   0.11269   0.69415   0.00000  Uiso   1.00
N609   N     0.04759   0.16668   0.75001   0.00000  Uiso   1.00
N610   N     0.28574   0.16666   0.74999   0.00000  Uiso   1.00
O611   O     0.12846   0.22775   0.75001   0.00000  Uiso   1.00
O612   O     0.20488   0.10558   0.75000   0.00000  Uiso   1.00
O613   O     0.20490   0.22774   0.75000   0.00000  Uiso   1.00
O614   O     0.12843   0.10559   0.75000   0.00000  Uiso   1.00
O615   O     0.10661   0.16667   0.81613   0.00000  Uiso   1.00
O616   O     0.22672   0.16666   0.68388   0.00000  Uiso   1.00
O617   O     0.18305   0.16666   0.81612   0.00000  Uiso   1.00
O618   O     0.15028   0.16667   0.68388   0.00000  Uiso   1.00
Zn619  Zn    0.11562   0.16667   0.75000   0.00000  Uiso   1.00
Zn620  Zn    0.21771   0.16666   0.75000   0.00000  Uiso   1.00
C621   C     0.50029   0.24655   0.74964   0.00000  Uiso   1.00
C622   C     0.46238   0.31161   0.78381   0.00000  Uiso   1.00
C623   C     0.49946   0.04267   0.75048   0.00000  Uiso   1.00
C624   C     0.50054   0.29066   0.74952   0.00000  Uiso   1.00
C625   C     0.65326   0.13962   0.72212   0.00000  Uiso   1.00
C626   C     0.34674   0.19371   0.77788   0.00000  Uiso   1.00
C627   C     0.36776   0.13946   0.72210   0.00000  Uiso   1.00
C628   C     0.63224   0.19387   0.77790   0.00000  Uiso   1.00
C629   C     0.46961   0.16633   0.83793   0.00000  Uiso   1.00
C630   C     0.53039   0.16700   0.66207   0.00000  Uiso   1.00
C631   C     0.45092   0.16767   0.88853   0.00000  Uiso   1.00
C632   C     0.49971   0.08679   0.75036   0.00000  Uiso   1.00
C633   C     0.54908   0.16566   0.61147   0.00000  Uiso   1.00
C634   C     0.39189   0.19352   0.96100   0.00000  Uiso   1.00
C635   C     0.60811   0.13982   0.53900   0.00000  Uiso   1.00
C636   C     0.40377   0.18188   0.91480   0.00000  Uiso   1.00
C637   C     0.59623   0.15145   0.58520   0.00000  Uiso   1.00
C638   C     0.48300   0.15869   0.91057   0.00000  Uiso   1.00
C639   C     0.51700   0.17465   0.58943   0.00000  Uiso   1.00
C640   C     0.46930   0.16531   0.95807   0.00000  Uiso   1.00
C641   C     0.53070   0.16803   0.54193   0.00000  Uiso   1.00
C642   C     0.42660   0.18905   0.98174   0.00000  Uiso   1.00
C643   C     0.46309   0.21067   0.53621   0.00000  Uiso   1.00
C644   C     0.57340   0.14428   0.51826   0.00000  Uiso   1.00
C645   C     0.50149   0.15503   0.98020   0.00000  Uiso   1.00
C646   C     0.49850   0.17830   0.51980   0.00000  Uiso   1.00
C647   C     0.53691   0.12266   0.96379   0.00000  Uiso   1.00
C648   C     0.42366   0.21186   0.52174   0.00000  Uiso   1.00
C649   C     0.57634   0.12148   0.97826   0.00000  Uiso   1.00
C650   C     0.53832   0.31193   0.71548   0.00000  Uiso   1.00
C651   C     0.46168   0.02140   0.78452   0.00000  Uiso   1.00
C652   C     0.53762   0.02172   0.71619   0.00000  Uiso   1.00
Cl653  Cl    0.37545   0.24718   0.55015   0.00000  Uiso   1.00
Cl654  Cl    0.62455   0.08616   0.94985   0.00000  Uiso   1.00
Cl655  Cl    0.47283   0.25493   0.56692   0.00000  Uiso   1.00
Cl656  Cl    0.52717   0.07840   0.93309   0.00000  Uiso   1.00
Cl657  Cl    0.58530   0.28555   0.67062   0.00000  Uiso   1.00
Cl658  Cl    0.41470   0.04778   0.82938   0.00000  Uiso   1.00
Cl659  Cl    0.40967   0.10337   0.68561   0.00000  Uiso   1.00
Cl660  Cl    0.59033   0.22997   0.81439   0.00000  Uiso   1.00
F661   F     0.46961   0.18366   0.61518   0.00000  Uiso   1.00
F662   F     0.35885   0.22064   0.80585   0.00000  Uiso   1.00
F663   F     0.53039   0.14967   0.88482   0.00000  Uiso   1.00
F664   F     0.62897   0.14433   0.60519   0.00000  Uiso   1.00
F665   F     0.37103   0.18900   0.89481   0.00000  Uiso   1.00
F666   F     0.34762   0.21114   0.98381   0.00000  Uiso   1.00
F667   F     0.65239   0.12219   0.51619   0.00000  Uiso   1.00
F668   F     0.57320   0.04328   0.68299   0.00000  Uiso   1.00
F669   F     0.42680   0.29005   0.81701   0.00000  Uiso   1.00
F670   F     0.64115   0.11269   0.69415   0.00000  Uiso   1.00
N671   N     0.38093   0.16668   0.75001   0.00000  Uiso   1.00
N672   N     0.61907   0.16666   0.74999   0.00000  Uiso   1.00
O673   O     0.46179   0.22775   0.75001   0.00000  Uiso   1.00
O674   O     0.53821   0.10558   0.75000   0.00000  Uiso   1.00
O675   O     0.53823   0.22774   0.75000   0.00000  Uiso   1.00
O676   O     0.46177   0.10559   0.75000   0.00000  Uiso   1.00
O677   O     0.43994   0.16667   0.81613   0.00000  Uiso   1.00
O678   O     0.56006   0.16666   0.68388   0.00000  Uiso   1.00
O679   O     0.51639   0.16666   0.81612   0.00000  Uiso   1.00
O680   O     0.48361   0.16667   0.68388   0.00000  Uiso   1.00
Zn681  Zn    0.44896   0.16667   0.75000   0.00000  Uiso   1.00
Zn682  Zn    0.55104   0.16666   0.75000   0.00000  Uiso   1.00
C683   C     0.83362   0.24655   0.74964   0.00000  Uiso   1.00
C684   C     0.79572   0.31161   0.78381   0.00000  Uiso   1.00
C685   C     0.83279   0.04267   0.75048   0.00000  Uiso   1.00
C686   C     0.83388   0.29066   0.74952   0.00000  Uiso   1.00
C687   C     0.98659   0.13962   0.72212   0.00000  Uiso   1.00
C688   C     0.68007   0.19371   0.77788   0.00000  Uiso   1.00
C689   C     0.70109   0.13946   0.72210   0.00000  Uiso   1.00
C690   C     0.96557   0.19387   0.77790   0.00000  Uiso   1.00
C691   C     0.80294   0.16633   0.83793   0.00000  Uiso   1.00
C692   C     0.86373   0.16700   0.66207   0.00000  Uiso   1.00
C693   C     0.78426   0.16767   0.88853   0.00000  Uiso   1.00
C694   C     0.83305   0.08679   0.75036   0.00000  Uiso   1.00
C695   C     0.88241   0.16566   0.61147   0.00000  Uiso   1.00
C696   C     0.72522   0.19352   0.96100   0.00000  Uiso   1.00
C697   C     0.94145   0.13982   0.53900   0.00000  Uiso   1.00
C698   C     0.73710   0.18188   0.91480   0.00000  Uiso   1.00
C699   C     0.92956   0.15145   0.58520   0.00000  Uiso   1.00
C700   C     0.81633   0.15869   0.91057   0.00000  Uiso   1.00
C701   C     0.85034   0.17465   0.58943   0.00000  Uiso   1.00
C702   C     0.80263   0.16531   0.95807   0.00000  Uiso   1.00
C703   C     0.86404   0.16803   0.54193   0.00000  Uiso   1.00
C704   C     0.75993   0.18905   0.98174   0.00000  Uiso   1.00
C705   C     0.79643   0.21067   0.53621   0.00000  Uiso   1.00
C706   C     0.90674   0.14428   0.51826   0.00000  Uiso   1.00
C707   C     0.83483   0.15503   0.98020   0.00000  Uiso   1.00
C708   C     0.83184   0.17830   0.51980   0.00000  Uiso   1.00
C709   C     0.87024   0.12266   0.96379   0.00000  Uiso   1.00
C710   C     0.75700   0.21186   0.52174   0.00000  Uiso   1.00
C711   C     0.90967   0.12148   0.97826   0.00000  Uiso   1.00
C712   C     0.87165   0.31193   0.71548   0.00000  Uiso   1.00
C713   C     0.79502   0.02140   0.78452   0.00000  Uiso   1.00
C714   C     0.87095   0.02172   0.71619   0.00000  Uiso   1.00
Cl715  Cl    0.70878   0.24718   0.55015   0.00000  Uiso   1.00
Cl716  Cl    0.95788   0.08616   0.94985   0.00000  Uiso   1.00
Cl717  Cl    0.80616   0.25493   0.56692   0.00000  Uiso   1.00
Cl718  Cl    0.86050   0.07840   0.93309   0.00000  Uiso   1.00
Cl719  Cl    0.91863   0.28555   0.67062   0.00000  Uiso   1.00
Cl720  Cl    0.74803   0.04778   0.82938   0.00000  Uiso   1.00
Cl721  Cl    0.74300   0.10337   0.68561   0.00000  Uiso   1.00
Cl722  Cl    0.92366   0.22997   0.81439   0.00000  Uiso   1.00
F723   F     0.80295   0.18366   0.61518   0.00000  Uiso   1.00
F724   F     0.69219   0.22064   0.80585   0.00000  Uiso   1.00
F725   F     0.86372   0.14967   0.88482   0.00000  Uiso   1.00
F726   F     0.96230   0.14433   0.60519   0.00000  Uiso   1.00
F727   F     0.70436   0.18900   0.89481   0.00000  Uiso   1.00
F728   F     0.68095   0.21114   0.98381   0.00000  Uiso   1.00
F729   F     0.98572   0.12219   0.51619   0.00000  Uiso   1.00
F730   F     0.90654   0.04328   0.68299   0.00000  Uiso   1.00
F731   F     0.76013   0.29005   0.81701   0.00000  Uiso   1.00
F732   F     0.97448   0.11269   0.69415   0.00000  Uiso   1.00
N733   N     0.71426   0.16668   0.75001   0.00000  Uiso   1.00
N734   N     0.95241   0.16666   0.74999   0.00000  Uiso   1.00
O735   O     0.79512   0.22775   0.75001   0.00000  Uiso   1.00
O736   O     0.87154   0.10558   0.75000   0.00000  Uiso   1.00
O737   O     0.87157   0.22774   0.75000   0.00000  Uiso   1.00
O738   O     0.79510   0.10559   0.75000   0.00000  Uiso   1.00
O739   O     0.77328   0.16667   0.81613   0.00000  Uiso   1.00
O740   O     0.89339   0.16666   0.68388   0.00000  Uiso   1.00
O741   O     0.84972   0.16666   0.81612   0.00000  Uiso   1.00
O742   O     0.81695   0.16667   0.68388   0.00000  Uiso   1.00
Zn743  Zn    0.78229   0.16667   0.75000   0.00000  Uiso   1.00
Zn744  Zn    0.88438   0.16666   0.75000   0.00000  Uiso   1.00
C745   C     0.16695   0.57988   0.74964   0.00000  Uiso   1.00
C746   C     0.12905   0.64495   0.78381   0.00000  Uiso   1.00
C747   C     0.16612   0.37600   0.75048   0.00000  Uiso   1.00
C748   C     0.16721   0.62400   0.74952   0.00000  Uiso   1.00
C749   C     0.31993   0.47295   0.72212   0.00000  Uiso   1.00
C750   C     0.01341   0.52705   0.77788   0.00000  Uiso   1.00
C751   C     0.03443   0.47280   0.72210   0.00000  Uiso   1.00
C752   C     0.29891   0.52720   0.77790   0.00000  Uiso   1.00
C753   C     0.13627   0.49967   0.83793   0.00000  Uiso   1.00
C754   C     0.19706   0.50033   0.66207   0.00000  Uiso   1.00
C755   C     0.11759   0.50101   0.88853   0.00000  Uiso   1.00
C756   C     0.16638   0.42012   0.75036   0.00000  Uiso   1.00
C757   C     0.21575   0.49899   0.61147   0.00000  Uiso   1.00
C758   C     0.05855   0.52685   0.96100   0.00000  Uiso   1.00
C759   C     0.27478   0.47315   0.53900   0.00000  Uiso   1.00
C760   C     0.07044   0.51522   0.91480   0.00000  Uiso   1.00
C761   C     0.26290   0.48478   0.58520   0.00000  Uiso   1.00
C762   C     0.14966   0.49202   0.91057   0.00000  Uiso   1.00
C763   C     0.18367   0.50798   0.58943   0.00000  Uiso   1.00
C764   C     0.13596   0.49864   0.95807   0.00000  Uiso   1.00
C765   C     0.19737   0.50136   0.54193   0.00000  Uiso   1.00
C766   C     0.09326   0.52239   0.98174   0.00000  Uiso   1.00
C767   C     0.12976   0.54401   0.53621   0.00000  Uiso   1.00
C768   C     0.24007   0.47761   0.51826   0.00000  Uiso   1.00
C769   C     0.16816   0.48837   0.98020   0.00000  Uiso   1.00
C770   C     0.16517   0.51163   0.51980   0.00000  Uiso   1.00
C771   C     0.20357   0.45599   0.96379   0.00000  Uiso   1.00
C772   C     0.09033   0.54519   0.52174   0.00000  Uiso   1.00
C773   C     0.24300   0.45481   0.97826   0.00000  Uiso   1.00
C774   C     0.20498   0.64527   0.71548   0.00000  Uiso   1.00
C775   C     0.12835   0.35473   0.78452   0.00000  Uiso   1.00
C776   C     0.20429   0.35506   0.71619   0.00000  Uiso   1.00
Cl777  Cl    0.04212   0.58051   0.55015   0.00000  Uiso   1.00
Cl778  Cl    0.29122   0.41949   0.94985   0.00000  Uiso   1.00
Cl779  Cl    0.13950   0.58826   0.56692   0.00000  Uiso   1.00
Cl780  Cl    0.19383   0.41173   0.93309   0.00000  Uiso   1.00
Cl781  Cl    0.25197   0.61889   0.67062   0.00000  Uiso   1.00
Cl782  Cl    0.08137   0.38111   0.82938   0.00000  Uiso   1.00
Cl783  Cl    0.07634   0.43670   0.68561   0.00000  Uiso   1.00
Cl784  Cl    0.25700   0.56330   0.81439   0.00000  Uiso   1.00
F785   F     0.13628   0.51699   0.61518   0.00000  Uiso   1.00
F786   F     0.02552   0.55398   0.80585   0.00000  Uiso   1.00
F787   F     0.19705   0.48300   0.88482   0.00000  Uiso   1.00
F788   F     0.29564   0.47767   0.60519   0.00000  Uiso   1.00
F789   F     0.03770   0.52234   0.89481   0.00000  Uiso   1.00
F790   F     0.01428   0.54448   0.98381   0.00000  Uiso   1.00
F791   F     0.31905   0.45553   0.51619   0.00000  Uiso   1.00
F792   F     0.23987   0.37662   0.68299   0.00000  Uiso   1.00
F793   F     0.09346   0.62338   0.81701   0.00000  Uiso   1.00
F794   F     0.30781   0.44602   0.69415   0.00000  Uiso   1.00
N795   N     0.04759   0.50001   0.75001   0.00000  Uiso   1.00
N796   N     0.28574   0.49999   0.74999   0.00000  Uiso   1.00
O797   O     0.12846   0.56108   0.75001   0.00000  Uiso   1.00
O798   O     0.20488   0.43892   0.75000   0.00000  Uiso   1.00
O799   O     0.20490   0.56107   0.75000   0.00000  Uiso   1.00
O800   O     0.12843   0.43893   0.75000   0.00000  Uiso   1.00
O801   O     0.10661   0.50001   0.81613   0.00000  Uiso   1.00
O802   O     0.22672   0.49999   0.68388   0.00000  Uiso   1.00
O803   O     0.18305   0.50000   0.81612   0.00000  Uiso   1.00
O804   O     0.15028   0.50000   0.68388   0.00000  Uiso   1.00
Zn805  Zn    0.11562   0.50001   0.75000   0.00000  Uiso   1.00
Zn806  Zn    0.21771   0.49999   0.75000   0.00000  Uiso   1.00
C807   C     0.50029   0.57988   0.74964   0.00000  Uiso   1.00
C808   C     0.46238   0.64495   0.78381   0.00000  Uiso   1.00
C809   C     0.49946   0.37600   0.75048   0.00000  Uiso   1.00
C810   C     0.50054   0.62400   0.74952   0.00000  Uiso   1.00
C811   C     0.65326   0.47295   0.72212   0.00000  Uiso   1.00
C812   C     0.34674   0.52705   0.77788   0.00000  Uiso   1.00
C813   C     0.36776   0.47280   0.72210   0.00000  Uiso   1.00
C814   C     0.63224   0.52720   0.77790   0.00000  Uiso   1.00
C815   C     0.46961   0.49967   0.83793   0.00000  Uiso   1.00
C816   C     0.53039   0.50033   0.66207   0.00000  Uiso   1.00
C817   C     0.45092   0.50101   0.88853   0.00000  Uiso   1.00
C818   C     0.49971   0.42012   0.75036   0.00000  Uiso   1.00
C819   C     0.54908   0.49899   0.61147   0.00000  Uiso   1.00
C820   C     0.39189   0.52685   0.96100   0.00000  Uiso   1.00
C821   C     0.60811   0.47315   0.53900   0.00000  Uiso   1.00
C822   C     0.40377   0.51522   0.91480   0.00000  Uiso   1.00
C823   C     0.59623   0.48478   0.58520   0.00000  Uiso   1.00
C824   C     0.48300   0.49202   0.91057   0.00000  Uiso   1.00
C825   C     0.51700   0.50798   0.58943   0.00000  Uiso   1.00
C826   C     0.46930   0.49864   0.95807   0.00000  Uiso   1.00
C827   C     0.53070   0.50136   0.54193   0.00000  Uiso   1.00
C828   C     0.42660   0.52239   0.98174   0.00000  Uiso   1.00
C829   C     0.46309   0.54401   0.53621   0.00000  Uiso   1.00
C830   C     0.57340   0.47761   0.51826   0.00000  Uiso   1.00
C831   C     0.50149   0.48837   0.98020   0.00000  Uiso   1.00
C832   C     0.49850   0.51163   0.51980   0.00000  Uiso   1.00
C833   C     0.53691   0.45599   0.96379   0.00000  Uiso   1.00
C834   C     0.42366   0.54519   0.52174   0.00000  Uiso   1.00
C835   C     0.57634   0.45481   0.97826   0.00000  Uiso   1.00
C836   C     0.53832   0.64527   0.71548   0.00000  Uiso   1.00
C837   C     0.46168   0.35473   0.78452   0.00000  Uiso   1.00
C838   C     0.53762   0.35506   0.71619   0.00000  Uiso   1.00
Cl839  Cl    0.37545   0.58051   0.55015   0.00000  Uiso   1.00
Cl840  Cl    0.62455   0.41949   0.94985   0.00000  Uiso   1.00
Cl841  Cl    0.47283   0.58826   0.56692   0.00000  Uiso   1.00
Cl842  Cl    0.52717   0.41173   0.93309   0.00000  Uiso   1.00
Cl843  Cl    0.58530   0.61889   0.67062   0.00000  Uiso   1.00
Cl844  Cl    0.41470   0.38111   0.82938   0.00000  Uiso   1.00
Cl845  Cl    0.40967   0.43670   0.68561   0.00000  Uiso   1.00
Cl846  Cl    0.59033   0.56330   0.81439   0.00000  Uiso   1.00
F847   F     0.46961   0.51699   0.61518   0.00000  Uiso   1.00
F848   F     0.35885   0.55398   0.80585   0.00000  Uiso   1.00
F849   F     0.53039   0.48300   0.88482   0.00000  Uiso   1.00
F850   F     0.62897   0.47767   0.60519   0.00000  Uiso   1.00
F851   F     0.37103   0.52234   0.89481   0.00000  Uiso   1.00
F852   F     0.34762   0.54448   0.98381   0.00000  Uiso   1.00
F853   F     0.65239   0.45553   0.51619   0.00000  Uiso   1.00
F854   F     0.57320   0.37662   0.68299   0.00000  Uiso   1.00
F855   F     0.42680   0.62338   0.81701   0.00000  Uiso   1.00
F856   F     0.64115   0.44602   0.69415   0.00000  Uiso   1.00
N857   N     0.38093   0.50001   0.75001   0.00000  Uiso   1.00
N858   N     0.61907   0.49999   0.74999   0.00000  Uiso   1.00
O859   O     0.46179   0.56108   0.75001   0.00000  Uiso   1.00
O860   O     0.53821   0.43892   0.75000   0.00000  Uiso   1.00
O861   O     0.53823   0.56107   0.75000   0.00000  Uiso   1.00
O862   O     0.46177   0.43893   0.75000   0.00000  Uiso   1.00
O863   O     0.43994   0.50001   0.81613   0.00000  Uiso   1.00
O864   O     0.56006   0.49999   0.68388   0.00000  Uiso   1.00
O865   O     0.51639   0.50000   0.81612   0.00000  Uiso   1.00
O866   O     0.48361   0.50000   0.68388   0.00000  Uiso   1.00
Zn867  Zn    0.44896   0.50001   0.75000   0.00000  Uiso   1.00
Zn868  Zn    0.55104   0.49999   0.75000   0.00000  Uiso   1.00
C869   C     0.83362   0.57988   0.74964   0.00000  Uiso   1.00
C870   C     0.79572   0.64495   0.78381   0.00000  Uiso   1.00
C871   C     0.83279   0.37600   0.75048   0.00000  Uiso   1.00
C872   C     0.83388   0.62400   0.74952   0.00000  Uiso   1.00
C873   C     0.98659   0.47295   0.72212   0.00000  Uiso   1.00
C874   C     0.68007   0.52705   0.77788   0.00000  Uiso   1.00
C875   C     0.70109   0.47280   0.72210   0.00000  Uiso   1.00
C876   C     0.96557   0.52720   0.77790   0.00000  Uiso   1.00
C877   C     0.80294   0.49967   0.83793   0.00000  Uiso   1.00
C878   C     0.86373   0.50033   0.66207   0.00000  Uiso   1.00
C879   C     0.78426   0.50101   0.88853   0.00000  Uiso   1.00
C880   C     0.83305   0.42012   0.75036   0.00000  Uiso   1.00
C881   C     0.88241   0.49899   0.61147   0.00000  Uiso   1.00
C882   C     0.72522   0.52685   0.96100   0.00000  Uiso   1.00
C883   C     0.94145   0.47315   0.53900   0.00000  Uiso   1.00
C884   C     0.73710   0.51522   0.91480   0.00000  Uiso   1.00
C885   C     0.92956   0.48478   0.58520   0.00000  Uiso   1.00
C886   C     0.81633   0.49202   0.91057   0.00000  Uiso   1.00
C887   C     0.85034   0.50798   0.58943   0.00000  Uiso   1.00
C888   C     0.80263   0.49864   0.95807   0.00000  Uiso   1.00
C889   C     0.86404   0.50136   0.54193   0.00000  Uiso   1.00
C890   C     0.75993   0.52239   0.98174   0.00000  Uiso   1.00
C891   C     0.79643   0.54401   0.53621   0.00000  Uiso   1.00
C892   C     0.90674   0.47761   0.51826   0.00000  Uiso   1.00
C893   C     0.83483   0.48837   0.98020   0.00000  Uiso   1.00
C894   C     0.83184   0.51163   0.51980   0.00000  Uiso   1.00
C895   C     0.87024   0.45599   0.96379   0.00000  Uiso   1.00
C896   C     0.75700   0.54519   0.52174   0.00000  Uiso   1.00
C897   C     0.90967   0.45481   0.97826   0.00000  Uiso   1.00
C898   C     0.87165   0.64527   0.71548   0.00000  Uiso   1.00
C899   C     0.79502   0.35473   0.78452   0.00000  Uiso   1.00
C900   C     0.87095   0.35506   0.71619   0.00000  Uiso   1.00
Cl901  Cl    0.70878   0.58051   0.55015   0.00000  Uiso   1.00
Cl902  Cl    0.95788   0.41949   0.94985   0.00000  Uiso   1.00
Cl903  Cl    0.80616   0.58826   0.56692   0.00000  Uiso   1.00
Cl904  Cl    0.86050   0.41173   0.93309   0.00000  Uiso   1.00
Cl905  Cl    0.91863   0.61889   0.67062   0.00000  Uiso   1.00
Cl906  Cl    0.74803   0.38111   0.82938   0.00000  Uiso   1.00
Cl907  Cl    0.74300   0.43670   0.68561   0.00000  Uiso   1.00
Cl908  Cl    0.92366   0.56330   0.81439   0.00000  Uiso   1.00
F909   F     0.80295   0.51699   0.61518   0.00000  Uiso   1.00
F910   F     0.69219   0.55398   0.80585   0.00000  Uiso   1.00
F911   F     0.86372   0.48300   0.88482   0.00000  Uiso   1.00
F912   F     0.96230   0.47767   0.60519   0.00000  Uiso   1.00
F913   F     0.70436   0.52234   0.89481   0.00000  Uiso   1.00
F914   F     0.68095   0.54448   0.98381   0.00000  Uiso   1.00
F915   F     0.98572   0.45553   0.51619   0.00000  Uiso   1.00
F916   F     0.90654   0.37662   0.68299   0.00000  Uiso   1.00
F917   F     0.76013   0.62338   0.81701   0.00000  Uiso   1.00
F918   F     0.97448   0.44602   0.69415   0.00000  Uiso   1.00
N919   N     0.71426   0.50001   0.75001   0.00000  Uiso   1.00
N920   N     0.95241   0.49999   0.74999   0.00000  Uiso   1.00
O921   O     0.79512   0.56108   0.75001   0.00000  Uiso   1.00
O922   O     0.87154   0.43892   0.75000   0.00000  Uiso   1.00
O923   O     0.87157   0.56107   0.75000   0.00000  Uiso   1.00
O924   O     0.79510   0.43893   0.75000   0.00000  Uiso   1.00
O925   O     0.77328   0.50001   0.81613   0.00000  Uiso   1.00
O926   O     0.89339   0.49999   0.68388   0.00000  Uiso   1.00
O927   O     0.84972   0.50000   0.81612   0.00000  Uiso   1.00
O928   O     0.81695   0.50000   0.68388   0.00000  Uiso   1.00
Zn929  Zn    0.78229   0.50001   0.75000   0.00000  Uiso   1.00
Zn930  Zn    0.88438   0.49999   0.75000   0.00000  Uiso   1.00
C931   C     0.16695   0.91321   0.74964   0.00000  Uiso   1.00
C932   C     0.12905   0.97828   0.78381   0.00000  Uiso   1.00
C933   C     0.16612   0.70934   0.75048   0.00000  Uiso   1.00
C934   C     0.16721   0.95733   0.74952   0.00000  Uiso   1.00
C935   C     0.31993   0.80629   0.72212   0.00000  Uiso   1.00
C936   C     0.01341   0.86038   0.77788   0.00000  Uiso   1.00
C937   C     0.03443   0.80613   0.72210   0.00000  Uiso   1.00
C938   C     0.29891   0.86054   0.77790   0.00000  Uiso   1.00
C939   C     0.13627   0.83300   0.83793   0.00000  Uiso   1.00
C940   C     0.19706   0.83367   0.66207   0.00000  Uiso   1.00
C941   C     0.11759   0.83434   0.88853   0.00000  Uiso   1.00
C942   C     0.16638   0.75345   0.75036   0.00000  Uiso   1.00
C943   C     0.21575   0.83233   0.61147   0.00000  Uiso   1.00
C944   C     0.05855   0.86019   0.96100   0.00000  Uiso   1.00
C945   C     0.27478   0.80648   0.53900   0.00000  Uiso   1.00
C946   C     0.07044   0.84855   0.91480   0.00000  Uiso   1.00
C947   C     0.26290   0.81812   0.58520   0.00000  Uiso   1.00
C948   C     0.14966   0.82535   0.91057   0.00000  Uiso   1.00
C949   C     0.18367   0.84131   0.58943   0.00000  Uiso   1.00
C950   C     0.13596   0.83197   0.95807   0.00000  Uiso   1.00
C951   C     0.19737   0.83469   0.54193   0.00000  Uiso   1.00
C952   C     0.09326   0.85572   0.98174   0.00000  Uiso   1.00
C953   C     0.12976   0.87734   0.53621   0.00000  Uiso   1.00
C954   C     0.24007   0.81095   0.51826   0.00000  Uiso   1.00
C955   C     0.16816   0.82170   0.98020   0.00000  Uiso   1.00
C956   C     0.16517   0.84496   0.51980   0.00000  Uiso   1.00
C957   C     0.20357   0.78933   0.96379   0.00000  Uiso   1.00
C958   C     0.09033   0.87852   0.52174   0.00000  Uiso   1.00
C959   C     0.24300   0.78814   0.97826   0.00000  Uiso   1.00
C960   C     0.20498   0.97860   0.71548   0.00000  Uiso   1.00
C961   C     0.12835   0.68807   0.78452   0.00000  Uiso   1.00
C962   C     0.20429   0.68839   0.71619   0.00000  Uiso   1.00
Cl963  Cl    0.04212   0.91384   0.55015   0.00000  Uiso   1.00
Cl964  Cl    0.29122   0.75282   0.94985   0.00000  Uiso   1.00
Cl965  Cl    0.13950   0.92160   0.56692   0.00000  Uiso   1.00
Cl966  Cl    0.19383   0.74506   0.93309   0.00000  Uiso   1.00
Cl967  Cl    0.25197   0.95222   0.67062   0.00000  Uiso   1.00
Cl968  Cl    0.08137   0.71445   0.82938   0.00000  Uiso   1.00
Cl969  Cl    0.07634   0.77003   0.68561   0.00000  Uiso   1.00
Cl970  Cl    0.25700   0.89663   0.81439   0.00000  Uiso   1.00
F971   F     0.13628   0.85033   0.61518   0.00000  Uiso   1.00
F972   F     0.02552   0.88731   0.80585   0.00000  Uiso   1.00
F973   F     0.19705   0.81633   0.88482   0.00000  Uiso   1.00
F974   F     0.29564   0.81100   0.60519   0.00000  Uiso   1.00
F975   F     0.03770   0.85567   0.89481   0.00000  Uiso   1.00
F976   F     0.01428   0.87781   0.98381   0.00000  Uiso   1.00
F977   F     0.31905   0.78886   0.51619   0.00000  Uiso   1.00
F978   F     0.23987   0.70995   0.68299   0.00000  Uiso   1.00
F979   F     0.09346   0.95672   0.81701   0.00000  Uiso   1.00
F980   F     0.30781   0.77936   0.69415   0.00000  Uiso   1.00
N981   N     0.04759   0.83334   0.75001   0.00000  Uiso   1.00
N982   N     0.28574   0.83332   0.74999   0.00000  Uiso   1.00
O983   O     0.12846   0.89442   0.75001   0.00000  Uiso   1.00
O984   O     0.20488   0.77225   0.75000   0.00000  Uiso   1.00
O985   O     0.20490   0.89441   0.75000   0.00000  Uiso   1.00
O986   O     0.12843   0.77226   0.75000   0.00000  Uiso   1.00
O987   O     0.10661   0.83334   0.81613   0.00000  Uiso   1.00
O988   O     0.22672   0.83333   0.68388   0.00000  Uiso   1.00
O989   O     0.18305   0.83333   0.81612   0.00000  Uiso   1.00
O990   O     0.15028   0.83334   0.68388   0.00000  Uiso   1.00
Zn991  Zn    0.11562   0.83334   0.75000   0.00000  Uiso   1.00
Zn992  Zn    0.21771   0.83333   0.75000   0.00000  Uiso   1.00
C993   C     0.50029   0.91321   0.74964   0.00000  Uiso   1.00
C994   C     0.46238   0.97828   0.78381   0.00000  Uiso   1.00
C995   C     0.49946   0.70934   0.75048   0.00000  Uiso   1.00
C996   C     0.50054   0.95733   0.74952   0.00000  Uiso   1.00
C997   C     0.65326   0.80629   0.72212   0.00000  Uiso   1.00
C998   C     0.34674   0.86038   0.77788   0.00000  Uiso   1.00
C999   C     0.36776   0.80613   0.72210   0.00000  Uiso   1.00
C1000  C     0.63224   0.86054   0.77790   0.00000  Uiso   1.00
C1001  C     0.46961   0.83300   0.83793   0.00000  Uiso   1.00
C1002  C     0.53039   0.83367   0.66207   0.00000  Uiso   1.00
C1003  C     0.45092   0.83434   0.88853   0.00000  Uiso   1.00
C1004  C     0.49971   0.75345   0.75036   0.00000  Uiso   1.00
C1005  C     0.54908   0.83233   0.61147   0.00000  Uiso   1.00
C1006  C     0.39189   0.86019   0.96100   0.00000  Uiso   1.00
C1007  C     0.60811   0.80648   0.53900   0.00000  Uiso   1.00
C1008  C     0.40377   0.84855   0.91480   0.00000  Uiso   1.00
C1009  C     0.59623   0.81812   0.58520   0.00000  Uiso   1.00
C1010  C     0.48300   0.82535   0.91057   0.00000  Uiso   1.00
C1011  C     0.51700   0.84131   0.58943   0.00000  Uiso   1.00
C1012  C     0.46930   0.83197   0.95807   0.00000  Uiso   1.00
C1013  C     0.53070   0.83469   0.54193   0.00000  Uiso   1.00
C1014  C     0.42660   0.85572   0.98174   0.00000  Uiso   1.00
C1015  C     0.46309   0.87734   0.53621   0.00000  Uiso   1.00
C1016  C     0.57340   0.81095   0.51826   0.00000  Uiso   1.00
C1017  C     0.50149   0.82170   0.98020   0.00000  Uiso   1.00
C1018  C     0.49850   0.84496   0.51980   0.00000  Uiso   1.00
C1019  C     0.53691   0.78933   0.96379   0.00000  Uiso   1.00
C1020  C     0.42366   0.87852   0.52174   0.00000  Uiso   1.00
C1021  C     0.57634   0.78814   0.97826   0.00000  Uiso   1.00
C1022  C     0.53832   0.97860   0.71548   0.00000  Uiso   1.00
C1023  C     0.46168   0.68807   0.78452   0.00000  Uiso   1.00
C1024  C     0.53762   0.68839   0.71619   0.00000  Uiso   1.00
Cl1025 Cl    0.37545   0.91384   0.55015   0.00000  Uiso   1.00
Cl1026 Cl    0.62455   0.75282   0.94985   0.00000  Uiso   1.00
Cl1027 Cl    0.47283   0.92160   0.56692   0.00000  Uiso   1.00
Cl1028 Cl    0.52717   0.74506   0.93309   0.00000  Uiso   1.00
Cl1029 Cl    0.58530   0.95222   0.67062   0.00000  Uiso   1.00
Cl1030 Cl    0.41470   0.71445   0.82938   0.00000  Uiso   1.00
Cl1031 Cl    0.40967   0.77003   0.68561   0.00000  Uiso   1.00
Cl1032 Cl    0.59033   0.89663   0.81439   0.00000  Uiso   1.00
F1033  F     0.46961   0.85033   0.61518   0.00000  Uiso   1.00
F1034  F     0.35885   0.88731   0.80585   0.00000  Uiso   1.00
F1035  F     0.53039   0.81633   0.88482   0.00000  Uiso   1.00
F1036  F     0.62897   0.81100   0.60519   0.00000  Uiso   1.00
F1037  F     0.37103   0.85567   0.89481   0.00000  Uiso   1.00
F1038  F     0.34762   0.87781   0.98381   0.00000  Uiso   1.00
F1039  F     0.65239   0.78886   0.51619   0.00000  Uiso   1.00
F1040  F     0.57320   0.70995   0.68299   0.00000  Uiso   1.00
F1041  F     0.42680   0.95672   0.81701   0.00000  Uiso   1.00
F1042  F     0.64115   0.77936   0.69415   0.00000  Uiso   1.00
N1043  N     0.38093   0.83334   0.75001   0.00000  Uiso   1.00
N1044  N     0.61907   0.83332   0.74999   0.00000  Uiso   1.00
O1045  O     0.46179   0.89442   0.75001   0.00000  Uiso   1.00
O1046  O     0.53821   0.77225   0.75000   0.00000  Uiso   1.00
O1047  O     0.53823   0.89441   0.75000   0.00000  Uiso   1.00
O1048  O     0.46177   0.77226   0.75000   0.00000  Uiso   1.00
O1049  O     0.43994   0.83334   0.81613   0.00000  Uiso   1.00
O1050  O     0.56006   0.83333   0.68388   0.00000  Uiso   1.00
O1051  O     0.51639   0.83333   0.81612   0.00000  Uiso   1.00
O1052  O     0.48361   0.83334   0.68388   0.00000  Uiso   1.00
Zn1053 Zn    0.44896   0.83334   0.75000   0.00000  Uiso   1.00
Zn1054 Zn    0.55104   0.83333   0.75000   0.00000  Uiso   1.00
C1055  C     0.83362   0.91321   0.74964   0.00000  Uiso   1.00
C1056  C     0.79572   0.97828   0.78381   0.00000  Uiso   1.00
C1057  C     0.83279   0.70934   0.75048   0.00000  Uiso   1.00
C1058  C     0.83388   0.95733   0.74952   0.00000  Uiso   1.00
C1059  C     0.98659   0.80629   0.72212   0.00000  Uiso   1.00
C1060  C     0.68007   0.86038   0.77788   0.00000  Uiso   1.00
C1061  C     0.70109   0.80613   0.72210   0.00000  Uiso   1.00
C1062  C     0.96557   0.86054   0.77790   0.00000  Uiso   1.00
C1063  C     0.80294   0.83300   0.83793   0.00000  Uiso   1.00
C1064  C     0.86373   0.83367   0.66207   0.00000  Uiso   1.00
C1065  C     0.78426   0.83434   0.88853   0.00000  Uiso   1.00
C1066  C     0.83305   0.75345   0.75036   0.00000  Uiso   1.00
C1067  C     0.88241   0.83233   0.61147   0.00000  Uiso   1.00
C1068  C     0.72522   0.86019   0.96100   0.00000  Uiso   1.00
C1069  C     0.94145   0.80648   0.53900   0.00000  Uiso   1.00
C1070  C     0.73710   0.84855   0.91480   0.00000  Uiso   1.00
C1071  C     0.92956   0.81812   0.58520   0.00000  Uiso   1.00
C1072  C     0.81633   0.82535   0.91057   0.00000  Uiso   1.00
C1073  C     0.85034   0.84131   0.58943   0.00000  Uiso   1.00
C1074  C     0.80263   0.83197   0.95807   0.00000  Uiso   1.00
C1075  C     0.86404   0.83469   0.54193   0.00000  Uiso   1.00
C1076  C     0.75993   0.85572   0.98174   0.00000  Uiso   1.00
C1077  C     0.79643   0.87734   0.53621   0.00000  Uiso   1.00
C1078  C     0.90674   0.81095   0.51826   0.00000  Uiso   1.00
C1079  C     0.83483   0.82170   0.98020   0.00000  Uiso   1.00
C1080  C     0.83184   0.84496   0.51980   0.00000  Uiso   1.00
C1081  C     0.87024   0.78933   0.96379   0.00000  Uiso   1.00
C1082  C     0.75700   0.87852   0.52174   0.00000  Uiso   1.00
C1083  C     0.90967   0.78814   0.97826   0.00000  Uiso   1.00
C1084  C     0.87165   0.97860   0.71548   0.00000  Uiso   1.00
C1085  C     0.79502   0.68807   0.78452   0.00000  Uiso   1.00
C1086  C     0.87095   0.68839   0.71619   0.00000  Uiso   1.00
Cl1087 Cl    0.70878   0.91384   0.55015   0.00000  Uiso   1.00
Cl1088 Cl    0.95788   0.75282   0.94985   0.00000  Uiso   1.00
Cl1089 Cl    0.80616   0.92160   0.56692   0.00000  Uiso   1.00
Cl1090 Cl    0.86050   0.74506   0.93309   0.00000  Uiso   1.00
Cl1091 Cl    0.91863   0.95222   0.67062   0.00000  Uiso   1.00
Cl1092 Cl    0.74803   0.71445   0.82938   0.00000  Uiso   1.00
Cl1093 Cl    0.74300   0.77003   0.68561   0.00000  Uiso   1.00
Cl1094 Cl    0.92366   0.89663   0.81439   0.00000  Uiso   1.00
F1095  F     0.80295   0.85033   0.61518   0.00000  Uiso   1.00
F1096  F     0.69219   0.88731   0.80585   0.00000  Uiso   1.00
F1097  F     0.86372   0.81633   0.88482   0.00000  Uiso   1.00
F1098  F     0.96230   0.81100   0.60519   0.00000  Uiso   1.00
F1099  F     0.70436   0.85567   0.89481   0.00000  Uiso   1.00
F1100  F     0.68095   0.87781   0.98381   0.00000  Uiso   1.00
F1101  F     0.98572   0.78886   0.51619   0.00000  Uiso   1.00
F1102  F     0.90654   0.70995   0.68299   0.00000  Uiso   1.00
F1103  F     0.76013   0.95672   0.81701   0.00000  Uiso   1.00
F1104  F     0.97448   0.77936   0.69415   0.00000  Uiso   1.00
N1105  N     0.71426   0.83334   0.75001   0.00000  Uiso   1.00
N1106  N     0.95241   0.83332   0.74999   0.00000  Uiso   1.00
O1107  O     0.79512   0.89442   0.75001   0.00000  Uiso   1.00
O1108  O     0.87154   0.77225   0.75000   0.00000  Uiso   1.00
O1109  O     0.87157   0.89441   0.75000   0.00000  Uiso   1.00
O1110  O     0.79510   0.77226   0.75000   0.00000  Uiso   1.00
O1111  O     0.77328   0.83334   0.81613   0.00000  Uiso   1.00
O1112  O     0.89339   0.83333   0.68388   0.00000  Uiso   1.00
O1113  O     0.84972   0.83333   0.81612   0.00000  Uiso   1.00
O1114  O     0.81695   0.83334   0.68388   0.00000  Uiso   1.00
Zn1115 Zn    0.78229   0.83334   0.75000   0.00000  Uiso   1.00
Zn1116 Zn    0.88438   0.83333   0.75000   0.00000  Uiso   1.00
loop_
_geom_bond_atom_site_label_1
_geom_bond_atom_site_label_2
_geom_bond_distance
_geom_bond_site_symmetry_2
_ccdc_geom_bond_type
C1     C4      1.407   .     S
C1     O55     1.282   .     A
C1     O53     1.281   .     A
C2     C4      1.397   .     A
C2     F49     1.360   .     S
C2     C217    1.375   .     S
C3     C31     1.400   .     A
C3     C32     1.397   .     A
C3     C12     1.407   .     S
C4     C30     1.400   .     A
C5     N52     1.362   .     A
C5     F50     1.356   .     S
C5     C69     1.417   .     S
C6     N51     1.362   .     A
C6     F42     1.356   .     S
C6     C132    1.417   1_455 S
C7     N51     1.376   .     A
C7     Cl39    1.756   .     S
C7     C129    1.417   1_455 S
C8     N52     1.376   .     A
C8     Cl40    1.756   .     S
C8     C68     1.417   .     S
C9     C11     1.465   .     S
C9     O57     1.298   .     A
C9     O59     1.295   .     A
C10    O60     1.295   .     A
C10    O58     1.298   .     A
C10    C13     1.465   .     S
C11    C18     1.400   .     A
C11    C16     1.402   .     A
C12    O56     1.282   .     A
C12    O54     1.281   .     A
C13    C17     1.402   .     A
C13    C19     1.400   .     A
C14    C22     1.415   .     A
C14    C16     1.395   .     A
C14    F46     1.356   .     S
C15    F47     1.356   .     S
C15    C24     1.415   .     A
C15    C17     1.395   .     A
C16    F45     1.358   .     S
C17    F44     1.358   .     S
C18    C20     1.396   .     A
C18    F43     1.361   .     S
C19    C21     1.396   .     A
C19    F41     1.361   .     S
C20    C22     1.419   .     A
C20    C25     1.415   .     A
C21    C26     1.415   .     A
C21    C24     1.419   .     A
C22    C586    1.410   .     S
C23    C28     1.403   .     A
C23    Cl35    1.777   .     S
C23    C26     1.423   .     A
C24    C587    1.410   1_554 S
C25    C27     1.423   .     A
C25    C584    1.406   .     S
C26    C583    1.406   1_554 S
C27    Cl36    1.777   .     S
C27    C29     1.403   .     A
C28    Cl33    1.771   .     S
C28    C580    1.410   1_554 S
C29    Cl34    1.771   .     S
C29    C582    1.410   .     S
C30    Cl37    1.767   .     S
C30    C218    1.375   .     S
C31    Cl38    1.767   .     S
C31    C374    1.375   1_545 S
C32    F48     1.360   .     S
C32    C402    1.375   1_545 S
N51    Zn61    2.016   .     S
N52    Zn62    2.016   .     S
O53    Zn61    1.982   .     S
O54    Zn62    1.982   .     S
O55    Zn62    1.987   .     S
O56    Zn61    1.987   .     S
O57    Zn61    1.980   .     S
O58    Zn62    1.980   .     S
O59    Zn62    1.930   .     S
O60    Zn61    1.930   .     S
C63    C66     1.407   .     S
C63    O117    1.282   .     A
C63    O115    1.281   .     A
C64    C66     1.397   .     A
C64    F111    1.360   .     S
C64    C279    1.375   .     S
C65    C93     1.400   .     A
C65    C94     1.397   .     A
C65    C74     1.407   .     S
C66    C92     1.400   .     A
C67    N114    1.362   .     A
C67    F112    1.356   .     S
C67    C131    1.417   .     S
C68    N113    1.362   .     A
C68    F104    1.356   .     S
C69    N113    1.376   .     A
C69    Cl101   1.756   .     S
C70    N114    1.376   .     A
C70    Cl102   1.756   .     S
C70    C130    1.417   .     S
C71    C73     1.465   .     S
C71    O119    1.298   .     A
C71    O121    1.295   .     A
C72    O122    1.295   .     A
C72    O120    1.298   .     A
C72    C75     1.465   .     S
C73    C80     1.400   .     A
C73    C78     1.402   .     A
C74    O118    1.282   .     A
C74    O116    1.281   .     A
C75    C79     1.402   .     A
C75    C81     1.400   .     A
C76    C84     1.415   .     A
C76    C78     1.395   .     A
C76    F108    1.356   .     S
C77    F109    1.356   .     S
C77    C86     1.415   .     A
C77    C79     1.395   .     A
C78    F107    1.358   .     S
C79    F106    1.358   .     S
C80    C82     1.396   .     A
C80    F105    1.361   .     S
C81    C83     1.396   .     A
C81    F103    1.361   .     S
C82    C84     1.419   .     A
C82    C87     1.415   .     A
C83    C88     1.415   .     A
C83    C86     1.419   .     A
C84    C648    1.410   .     S
C85    C90     1.403   .     A
C85    Cl97    1.777   .     S
C85    C88     1.423   .     A
C86    C649    1.410   1_554 S
C87    C89     1.423   .     A
C87    C646    1.406   .     S
C88    C645    1.406   1_554 S
C89    Cl98    1.777   .     S
C89    C91     1.403   .     A
C90    Cl95    1.771   .     S
C90    C642    1.410   1_554 S
C91    Cl96    1.771   .     S
C91    C644    1.410   .     S
C92    Cl99    1.767   .     S
C92    C280    1.375   .     S
C93    Cl100   1.767   .     S
C93    C436    1.375   1_545 S
C94    F110    1.360   .     S
C94    C464    1.375   1_545 S
N113   Zn123   2.016   .     S
N114   Zn124   2.016   .     S
O115   Zn123   1.982   .     S
O116   Zn124   1.982   .     S
O117   Zn124   1.987   .     S
O118   Zn123   1.987   .     S
O119   Zn123   1.980   .     S
O120   Zn124   1.980   .     S
O121   Zn124   1.930   .     S
O122   Zn123   1.930   .     S
C125   C128    1.407   .     S
C125   O179    1.282   .     A
C125   O177    1.281   .     A
C126   C128    1.397   .     A
C126   F173    1.360   .     S
C126   C341    1.375   .     S
C127   C155    1.400   .     A
C127   C156    1.397   .     A
C127   C136    1.407   .     S
C128   C154    1.400   .     A
C129   N176    1.362   .     A
C129   F174    1.356   .     S
C129   C7      1.417   1_655 S
C130   N175    1.362   .     A
C130   F166    1.356   .     S
C131   N175    1.376   .     A
C131   Cl163   1.756   .     S
C132   N176    1.376   .     A
C132   Cl164   1.756   .     S
C132   C6      1.417   1_655 S
C133   C135    1.465   .     S
C133   O181    1.298   .     A
C133   O183    1.295   .     A
C134   O184    1.295   .     A
C134   O182    1.298   .     A
C134   C137    1.465   .     S
C135   C142    1.400   .     A
C135   C140    1.402   .     A
C136   O180    1.282   .     A
C136   O178    1.281   .     A
C137   C141    1.402   .     A
C137   C143    1.400   .     A
C138   C146    1.415   .     A
C138   C140    1.395   .     A
C138   F170    1.356   .     S
C139   F171    1.356   .     S
C139   C148    1.415   .     A
C139   C141    1.395   .     A
C140   F169    1.358   .     S
C141   F168    1.358   .     S
C142   C144    1.396   .     A
C142   F167    1.361   .     S
C143   C145    1.396   .     A
C143   F165    1.361   .     S
C144   C146    1.419   .     A
C144   C149    1.415   .     A
C145   C150    1.415   .     A
C145   C148    1.419   .     A
C146   C710    1.410   .     S
C147   C152    1.403   .     A
C147   Cl159   1.777   .     S
C147   C150    1.423   .     A
C148   C711    1.410   1_554 S
C149   C151    1.423   .     A
C149   C708    1.406   .     S
C150   C707    1.406   1_554 S
C151   Cl160   1.777   .     S
C151   C153    1.403   .     A
C152   Cl157   1.771   .     S
C152   C704    1.410   1_554 S
C153   Cl158   1.771   .     S
C153   C706    1.410   .     S
C154   Cl161   1.767   .     S
C154   C342    1.375   .     S
C155   Cl162   1.767   .     S
C155   C498    1.375   1_545 S
C156   F172    1.360   .     S
C156   C526    1.375   1_545 S
N175   Zn185   2.016   .     S
N176   Zn186   2.016   .     S
O177   Zn185   1.982   .     S
O178   Zn186   1.982   .     S
O179   Zn186   1.987   .     S
O180   Zn185   1.987   .     S
O181   Zn185   1.980   .     S
O182   Zn186   1.980   .     S
O183   Zn186   1.930   .     S
O184   Zn185   1.930   .     S
C187   C190    1.407   .     S
C187   O241    1.282   .     A
C187   O239    1.281   .     A
C188   C190    1.397   .     A
C188   F235    1.360   .     S
C188   C403    1.375   .     S
C189   C217    1.400   .     A
C189   C218    1.397   .     A
C189   C198    1.407   .     S
C190   C216    1.400   .     A
C191   N238    1.362   .     A
C191   F236    1.356   .     S
C191   C255    1.417   .     S
C192   N237    1.362   .     A
C192   F228    1.356   .     S
C192   C318    1.417   1_455 S
C193   N237    1.376   .     A
C193   Cl225   1.756   .     S
C193   C315    1.417   1_455 S
C194   N238    1.376   .     A
C194   Cl226   1.756   .     S
C194   C254    1.417   .     S
C195   C197    1.465   .     S
C195   O243    1.298   .     A
C195   O245    1.295   .     A
C196   O246    1.295   .     A
C196   O244    1.298   .     A
C196   C199    1.465   .     S
C197   C204    1.400   .     A
C197   C202    1.402   .     A
C198   O242    1.282   .     A
C198   O240    1.281   .     A
C199   C203    1.402   .     A
C199   C205    1.400   .     A
C200   C208    1.415   .     A
C200   C202    1.395   .     A
C200   F232    1.356   .     S
C201   F233    1.356   .     S
C201   C210    1.415   .     A
C201   C203    1.395   .     A
C202   F231    1.358   .     S
C203   F230    1.358   .     S
C204   C206    1.396   .     A
C204   F229    1.361   .     S
C205   C207    1.396   .     A
C205   F227    1.361   .     S
C206   C208    1.419   .     A
C206   C211    1.415   .     A
C207   C212    1.415   .     A
C207   C210    1.419   .     A
C208   C772    1.410   .     S
C209   C214    1.403   .     A
C209   Cl221   1.777   .     S
C209   C212    1.423   .     A
C210   C773    1.410   1_554 S
C211   C213    1.423   .     A
C211   C770    1.406   .     S
C212   C769    1.406   1_554 S
C213   Cl222   1.777   .     S
C213   C215    1.403   .     A
C214   Cl219   1.771   .     S
C214   C766    1.410   1_554 S
C215   Cl220   1.771   .     S
C215   C768    1.410   .     S
C216   Cl223   1.767   .     S
C216   C404    1.375   .     S
C217   Cl224   1.767   .     S
C218   F234    1.360   .     S
N237   Zn247   2.016   .     S
N238   Zn248   2.016   .     S
O239   Zn247   1.982   .     S
O240   Zn248   1.982   .     S
O241   Zn248   1.987   .     S
O242   Zn247   1.987   .     S
O243   Zn247   1.980   .     S
O244   Zn248   1.980   .     S
O245   Zn248   1.930   .     S
O246   Zn247   1.930   .     S
C249   C252    1.407   .     S
C249   O303    1.282   .     A
C249   O301    1.281   .     A
C250   C252    1.397   .     A
C250   F297    1.360   .     S
C250   C465    1.375   .     S
C251   C279    1.400   .     A
C251   C280    1.397   .     A
C251   C260    1.407   .     S
C252   C278    1.400   .     A
C253   N300    1.362   .     A
C253   F298    1.356   .     S
C253   C317    1.417   .     S
C254   N299    1.362   .     A
C254   F290    1.356   .     S
C255   N299    1.376   .     A
C255   Cl287   1.756   .     S
C256   N300    1.376   .     A
C256   Cl288   1.756   .     S
C256   C316    1.417   .     S
C257   C259    1.465   .     S
C257   O305    1.298   .     A
C257   O307    1.295   .     A
C258   O308    1.295   .     A
C258   O306    1.298   .     A
C258   C261    1.465   .     S
C259   C266    1.400   .     A
C259   C264    1.402   .     A
C260   O304    1.282   .     A
C260   O302    1.281   .     A
C261   C265    1.402   .     A
C261   C267    1.400   .     A
C262   C270    1.415   .     A
C262   C264    1.395   .     A
C262   F294    1.356   .     S
C263   F295    1.356   .     S
C263   C272    1.415   .     A
C263   C265    1.395   .     A
C264   F293    1.358   .     S
C265   F292    1.358   .     S
C266   C268    1.396   .     A
C266   F291    1.361   .     S
C267   C269    1.396   .     A
C267   F289    1.361   .     S
C268   C270    1.419   .     A
C268   C273    1.415   .     A
C269   C274    1.415   .     A
C269   C272    1.419   .     A
C270   C834    1.410   .     S
C271   C276    1.403   .     A
C271   Cl283   1.777   .     S
C271   C274    1.423   .     A
C272   C835    1.410   1_554 S
C273   C275    1.423   .     A
C273   C832    1.406   .     S
C274   C831    1.406   1_554 S
C275   Cl284   1.777   .     S
C275   C277    1.403   .     A
C276   Cl281   1.771   .     S
C276   C828    1.410   1_554 S
C277   Cl282   1.771   .     S
C277   C830    1.410   .     S
C278   Cl285   1.767   .     S
C278   C466    1.375   .     S
C279   Cl286   1.767   .     S
C280   F296    1.360   .     S
N299   Zn309   2.016   .     S
N300   Zn310   2.016   .     S
O301   Zn309   1.982   .     S
O302   Zn310   1.982   .     S
O303   Zn310   1.987   .     S
O304   Zn309   1.987   .     S
O305   Zn309   1.980   .     S
O306   Zn310   1.980   .     S
O307   Zn310   1.930   .     S
O308   Zn309   1.930   .     S
C311   C314    1.407   .     S
C311   O365    1.282   .     A
C311   O363    1.281   .     A
C312   C314    1.397   .     A
C312   F359    1.360   .     S
C312   C527    1.375   .     S
C313   C341    1.400   .     A
C313   C342    1.397   .     A
C313   C322    1.407   .     S
C314   C340    1.400   .     A
C315   N362    1.362   .     A
C315   F360    1.356   .     S
C315   C193    1.417   1_655 S
C316   N361    1.362   .     A
C316   F352    1.356   .     S
C317   N361    1.376   .     A
C317   Cl349   1.756   .     S
C318   N362    1.376   .     A
C318   Cl350   1.756   .     S
C318   C192    1.417   1_655 S
C319   C321    1.465   .     S
C319   O367    1.298   .     A
C319   O369    1.295   .     A
C320   O370    1.295   .     A
C320   O368    1.298   .     A
C320   C323    1.465   .     S
C321   C328    1.400   .     A
C321   C326    1.402   .     A
C322   O366    1.282   .     A
C322   O364    1.281   .     A
C323   C327    1.402   .     A
C323   C329    1.400   .     A
C324   C332    1.415   .     A
C324   C326    1.395   .     A
C324   F356    1.356   .     S
C325   F357    1.356   .     S
C325   C334    1.415   .     A
C325   C327    1.395   .     A
C326   F355    1.358   .     S
C327   F354    1.358   .     S
C328   C330    1.396   .     A
C328   F353    1.361   .     S
C329   C331    1.396   .     A
C329   F351    1.361   .     S
C330   C332    1.419   .     A
C330   C335    1.415   .     A
C331   C336    1.415   .     A
C331   C334    1.419   .     A
C332   C896    1.410   .     S
C333   C338    1.403   .     A
C333   Cl345   1.777   .     S
C333   C336    1.423   .     A
C334   C897    1.410   1_554 S
C335   C337    1.423   .     A
C335   C894    1.406   .     S
C336   C893    1.406   1_554 S
C337   Cl346   1.777   .     S
C337   C339    1.403   .     A
C338   Cl343   1.771   .     S
C338   C890    1.410   1_554 S
C339   Cl344   1.771   .     S
C339   C892    1.410   .     S
C340   Cl347   1.767   .     S
C340   C528    1.375   .     S
C341   Cl348   1.767   .     S
C342   F358    1.360   .     S
N361   Zn371   2.016   .     S
N362   Zn372   2.016   .     S
O363   Zn371   1.982   .     S
O364   Zn372   1.982   .     S
O365   Zn372   1.987   .     S
O366   Zn371   1.987   .     S
O367   Zn371   1.980   .     S
O368   Zn372   1.980   .     S
O369   Zn372   1.930   .     S
O370   Zn371   1.930   .     S
C373   C376    1.407   .     S
C373   O427    1.282   .     A
C373   O425    1.281   .     A
C374   C376    1.397   .     A
C374   F421    1.360   .     S
C374   C31     1.375   1_565 S
C375   C403    1.400   .     A
C375   C404    1.397   .     A
C375   C384    1.407   .     S
C376   C402    1.400   .     A
C377   N424    1.362   .     A
C377   F422    1.356   .     S
C377   C441    1.417   .     S
C378   N423    1.362   .     A
C378   F414    1.356   .     S
C378   C504    1.417   1_455 S
C379   N423    1.376   .     A
C379   Cl411   1.756   .     S
C379   C501    1.417   1_455 S
C380   N424    1.376   .     A
C380   Cl412   1.756   .     S
C380   C440    1.417   .     S
C381   C383    1.465   .     S
C381   O429    1.298   .     A
C381   O431    1.295   .     A
C382   O432    1.295   .     A
C382   O430    1.298   .     A
C382   C385    1.465   .     S
C383   C390    1.400   .     A
C383   C388    1.402   .     A
C384   O428    1.282   .     A
C384   O426    1.281   .     A
C385   C389    1.402   .     A
C385   C391    1.400   .     A
C386   C394    1.415   .     A
C386   C388    1.395   .     A
C386   F418    1.356   .     S
C387   F419    1.356   .     S
C387   C396    1.415   .     A
C387   C389    1.395   .     A
C388   F417    1.358   .     S
C389   F416    1.358   .     S
C390   C392    1.396   .     A
C390   F415    1.361   .     S
C391   C393    1.396   .     A
C391   F413    1.361   .     S
C392   C394    1.419   .     A
C392   C397    1.415   .     A
C393   C398    1.415   .     A
C393   C396    1.419   .     A
C394   C958    1.410   .     S
C395   C400    1.403   .     A
C395   Cl407   1.777   .     S
C395   C398    1.423   .     A
C396   C959    1.410   1_554 S
C397   C399    1.423   .     A
C397   C956    1.406   .     S
C398   C955    1.406   1_554 S
C399   Cl408   1.777   .     S
C399   C401    1.403   .     A
C400   Cl405   1.771   .     S
C400   C952    1.410   1_554 S
C401   Cl406   1.771   .     S
C401   C954    1.410   .     S
C402   Cl409   1.767   .     S
C402   C32     1.375   1_565 S
C403   Cl410   1.767   .     S
C404   F420    1.360   .     S
N423   Zn433   2.016   .     S
N424   Zn434   2.016   .     S
O425   Zn433   1.982   .     S
O426   Zn434   1.982   .     S
O427   Zn434   1.987   .     S
O428   Zn433   1.987   .     S
O429   Zn433   1.980   .     S
O430   Zn434   1.980   .     S
O431   Zn434   1.930   .     S
O432   Zn433   1.930   .     S
C435   C438    1.407   .     S
C435   O489    1.282   .     A
C435   O487    1.281   .     A
C436   C438    1.397   .     A
C436   F483    1.360   .     S
C436   C93     1.375   1_565 S
C437   C465    1.400   .     A
C437   C466    1.397   .     A
C437   C446    1.407   .     S
C438   C464    1.400   .     A
C439   N486    1.362   .     A
C439   F484    1.356   .     S
C439   C503    1.417   .     S
C440   N485    1.362   .     A
C440   F476    1.356   .     S
C441   N485    1.376   .     A
C441   Cl473   1.756   .     S
C442   N486    1.376   .     A
C442   Cl474   1.756   .     S
C442   C502    1.417   .     S
C443   C445    1.465   .     S
C443   O491    1.298   .     A
C443   O493    1.295   .     A
C444   O494    1.295   .     A
C444   O492    1.298   .     A
C444   C447    1.465   .     S
C445   C452    1.400   .     A
C445   C450    1.402   .     A
C446   O490    1.282   .     A
C446   O488    1.281   .     A
C447   C451    1.402   .     A
C447   C453    1.400   .     A
C448   C456    1.415   .     A
C448   C450    1.395   .     A
C448   F480    1.356   .     S
C449   F481    1.356   .     S
C449   C458    1.415   .     A
C449   C451    1.395   .     A
C450   F479    1.358   .     S
C451   F478    1.358   .     S
C452   C454    1.396   .     A
C452   F477    1.361   .     S
C453   C455    1.396   .     A
C453   F475    1.361   .     S
C454   C456    1.419   .     A
C454   C459    1.415   .     A
C455   C460    1.415   .     A
C455   C458    1.419   .     A
C456   C1020   1.410   .     S
C457   C462    1.403   .     A
C457   Cl469   1.777   .     S
C457   C460    1.423   .     A
C458   C1021   1.410   1_554 S
C459   C461    1.423   .     A
C459   C1018   1.406   .     S
C460   C1017   1.406   1_554 S
C461   Cl470   1.777   .     S
C461   C463    1.403   .     A
C462   Cl467   1.771   .     S
C462   C1014   1.410   1_554 S
C463   Cl468   1.771   .     S
C463   C1016   1.410   .     S
C464   Cl471   1.767   .     S
C464   C94     1.375   1_565 S
C465   Cl472   1.767   .     S
C466   F482    1.360   .     S
N485   Zn495   2.016   .     S
N486   Zn496   2.016   .     S
O487   Zn495   1.982   .     S
O488   Zn496   1.982   .     S
O489   Zn496   1.987   .     S
O490   Zn495   1.987   .     S
O491   Zn495   1.980   .     S
O492   Zn496   1.980   .     S
O493   Zn496   1.930   .     S
O494   Zn495   1.930   .     S
C497   C500    1.407   .     S
C497   O551    1.282   .     A
C497   O549    1.281   .     A
C498   C500    1.397   .     A
C498   F545    1.360   .     S
C498   C155    1.375   1_565 S
C499   C527    1.400   .     A
C499   C528    1.397   .     A
C499   C508    1.407   .     S
C500   C526    1.400   .     A
C501   N548    1.362   .     A
C501   F546    1.356   .     S
C501   C379    1.417   1_655 S
C502   N547    1.362   .     A
C502   F538    1.356   .     S
C503   N547    1.376   .     A
C503   Cl535   1.756   .     S
C504   N548    1.376   .     A
C504   Cl536   1.756   .     S
C504   C378    1.417   1_655 S
C505   C507    1.465   .     S
C505   O553    1.298   .     A
C505   O555    1.295   .     A
C506   O556    1.295   .     A
C506   O554    1.298   .     A
C506   C509    1.465   .     S
C507   C514    1.400   .     A
C507   C512    1.402   .     A
C508   O552    1.282   .     A
C508   O550    1.281   .     A
C509   C513    1.402   .     A
C509   C515    1.400   .     A
C510   C518    1.415   .     A
C510   C512    1.395   .     A
C510   F542    1.356   .     S
C511   F543    1.356   .     S
C511   C520    1.415   .     A
C511   C513    1.395   .     A
C512   F541    1.358   .     S
C513   F540    1.358   .     S
C514   C516    1.396   .     A
C514   F539    1.361   .     S
C515   C517    1.396   .     A
C515   F537    1.361   .     S
C516   C518    1.419   .     A
C516   C521    1.415   .     A
C517   C522    1.415   .     A
C517   C520    1.419   .     A
C518   C1082   1.410   .     S
C519   C524    1.403   .     A
C519   Cl531   1.777   .     S
C519   C522    1.423   .     A
C520   C1083   1.410   1_554 S
C521   C523    1.423   .     A
C521   C1080   1.406   .     S
C522   C1079   1.406   1_554 S
C523   Cl532   1.777   .     S
C523   C525    1.403   .     A
C524   Cl529   1.771   .     S
C524   C1076   1.410   1_554 S
C525   Cl530   1.771   .     S
C525   C1078   1.410   .     S
C526   Cl533   1.767   .     S
C526   C156    1.375   1_565 S
C527   Cl534   1.767   .     S
C528   F544    1.360   .     S
N547   Zn557   2.016   .     S
N548   Zn558   2.016   .     S
O549   Zn557   1.982   .     S
O550   Zn558   1.982   .     S
O551   Zn558   1.987   .     S
O552   Zn557   1.987   .     S
O553   Zn557   1.980   .     S
O554   Zn558   1.980   .     S
O555   Zn558   1.930   .     S
O556   Zn557   1.930   .     S
C559   C562    1.407   .     S
C559   O613    1.282   .     A
C559   O611    1.281   .     A
C560   C562    1.397   .     A
C560   F607    1.360   .     S
C560   C775    1.375   .     S
C561   C589    1.400   .     A
C561   C590    1.397   .     A
C561   C570    1.407   .     S
C562   C588    1.400   .     A
C563   N610    1.362   .     A
C563   F608    1.356   .     S
C563   C627    1.417   .     S
C564   N609    1.362   .     A
C564   F600    1.356   .     S
C564   C690    1.417   1_455 S
C565   N609    1.376   .     A
C565   Cl597   1.756   .     S
C565   C687    1.417   1_455 S
C566   N610    1.376   .     A
C566   Cl598   1.756   .     S
C566   C626    1.417   .     S
C567   C569    1.465   .     S
C567   O615    1.298   .     A
C567   O617    1.295   .     A
C568   O618    1.295   .     A
C568   O616    1.298   .     A
C568   C571    1.465   .     S
C569   C576    1.400   .     A
C569   C574    1.402   .     A
C570   O614    1.282   .     A
C570   O612    1.281   .     A
C571   C575    1.402   .     A
C571   C577    1.400   .     A
C572   C580    1.415   .     A
C572   C574    1.395   .     A
C572   F604    1.356   .     S
C573   F605    1.356   .     S
C573   C582    1.415   .     A
C573   C575    1.395   .     A
C574   F603    1.358   .     S
C575   F602    1.358   .     S
C576   C578    1.396   .     A
C576   F601    1.361   .     S
C577   C579    1.396   .     A
C577   F599    1.361   .     S
C578   C580    1.419   .     A
C578   C583    1.415   .     A
C579   C584    1.415   .     A
C579   C582    1.419   .     A
C580   C28     1.410   1_556 S
C581   C586    1.403   .     A
C581   Cl593   1.777   .     S
C581   C584    1.423   .     A
C583   C585    1.423   .     A
C583   C26     1.406   1_556 S
C585   Cl594   1.777   .     S
C585   C587    1.403   .     A
C586   Cl591   1.771   .     S
C587   Cl592   1.771   .     S
C587   C24     1.410   1_556 S
C588   Cl595   1.767   .     S
C588   C776    1.375   .     S
C589   Cl596   1.767   .     S
C589   C932    1.375   1_545 S
C590   F606    1.360   .     S
C590   C960    1.375   1_545 S
N609   Zn619   2.016   .     S
N610   Zn620   2.016   .     S
O611   Zn619   1.982   .     S
O612   Zn620   1.982   .     S
O613   Zn620   1.987   .     S
O614   Zn619   1.987   .     S
O615   Zn619   1.980   .     S
O616   Zn620   1.980   .     S
O617   Zn620   1.930   .     S
O618   Zn619   1.930   .     S
C621   C624    1.407   .     S
C621   O675    1.282   .     A
C621   O673    1.281   .     A
C622   C624    1.397   .     A
C622   F669    1.360   .     S
C622   C837    1.375   .     S
C623   C651    1.400   .     A
C623   C652    1.397   .     A
C623   C632    1.407   .     S
C624   C650    1.400   .     A
C625   N672    1.362   .     A
C625   F670    1.356   .     S
C625   C689    1.417   .     S
C626   N671    1.362   .     A
C626   F662    1.356   .     S
C627   N671    1.376   .     A
C627   Cl659   1.756   .     S
C628   N672    1.376   .     A
C628   Cl660   1.756   .     S
C628   C688    1.417   .     S
C629   C631    1.465   .     S
C629   O677    1.298   .     A
C629   O679    1.295   .     A
C630   O680    1.295   .     A
C630   O678    1.298   .     A
C630   C633    1.465   .     S
C631   C638    1.400   .     A
C631   C636    1.402   .     A
C632   O676    1.282   .     A
C632   O674    1.281   .     A
C633   C637    1.402   .     A
C633   C639    1.400   .     A
C634   C642    1.415   .     A
C634   C636    1.395   .     A
C634   F666    1.356   .     S
C635   F667    1.356   .     S
C635   C644    1.415   .     A
C635   C637    1.395   .     A
C636   F665    1.358   .     S
C637   F664    1.358   .     S
C638   C640    1.396   .     A
C638   F663    1.361   .     S
C639   C641    1.396   .     A
C639   F661    1.361   .     S
C640   C642    1.419   .     A
C640   C645    1.415   .     A
C641   C646    1.415   .     A
C641   C644    1.419   .     A
C642   C90     1.410   1_556 S
C643   C648    1.403   .     A
C643   Cl655   1.777   .     S
C643   C646    1.423   .     A
C645   C647    1.423   .     A
C645   C88     1.406   1_556 S
C647   Cl656   1.777   .     S
C647   C649    1.403   .     A
C648   Cl653   1.771   .     S
C649   Cl654   1.771   .     S
C649   C86     1.410   1_556 S
C650   Cl657   1.767   .     S
C650   C838    1.375   .     S
C651   Cl658   1.767   .     S
C651   C994    1.375   1_545 S
C652   F668    1.360   .     S
C652   C1022   1.375   1_545 S
N671   Zn681   2.016   .     S
N672   Zn682   2.016   .     S
O673   Zn681   1.982   .     S
O674   Zn682   1.982   .     S
O675   Zn682   1.987   .     S
O676   Zn681   1.987   .     S
O677   Zn681   1.980   .     S
O678   Zn682   1.980   .     S
O679   Zn682   1.930   .     S
O680   Zn681   1.930   .     S
C683   C686    1.407   .     S
C683   O737    1.282   .     A
C683   O735    1.281   .     A
C684   C686    1.397   .     A
C684   F731    1.360   .     S
C684   C899    1.375   .     S
C685   C713    1.400   .     A
C685   C714    1.397   .     A
C685   C694    1.407   .     S
C686   C712    1.400   .     A
C687   N734    1.362   .     A
C687   F732    1.356   .     S
C687   C565    1.417   1_655 S
C688   N733    1.362   .     A
C688   F724    1.356   .     S
C689   N733    1.376   .     A
C689   Cl721   1.756   .     S
C690   N734    1.376   .     A
C690   Cl722   1.756   .     S
C690   C564    1.417   1_655 S
C691   C693    1.465   .     S
C691   O739    1.298   .     A
C691   O741    1.295   .     A
C692   O742    1.295   .     A
C692   O740    1.298   .     A
C692   C695    1.465   .     S
C693   C700    1.400   .     A
C693   C698    1.402   .     A
C694   O738    1.282   .     A
C694   O736    1.281   .     A
C695   C699    1.402   .     A
C695   C701    1.400   .     A
C696   C704    1.415   .     A
C696   C698    1.395   .     A
C696   F728    1.356   .     S
C697   F729    1.356   .     S
C697   C706    1.415   .     A
C697   C699    1.395   .     A
C698   F727    1.358   .     S
C699   F726    1.358   .     S
C700   C702    1.396   .     A
C700   F725    1.361   .     S
C701   C703    1.396   .     A
C701   F723    1.361   .     S
C702   C704    1.419   .     A
C702   C707    1.415   .     A
C703   C708    1.415   .     A
C703   C706    1.419   .     A
C704   C152    1.410   1_556 S
C705   C710    1.403   .     A
C705   Cl717   1.777   .     S
C705   C708    1.423   .     A
C707   C709    1.423   .     A
C707   C150    1.406   1_556 S
C709   Cl718   1.777   .     S
C709   C711    1.403   .     A
C710   Cl715   1.771   .     S
C711   Cl716   1.771   .     S
C711   C148    1.410   1_556 S
C712   Cl719   1.767   .     S
C712   C900    1.375   .     S
C713   Cl720   1.767   .     S
C713   C1056   1.375   1_545 S
C714   F730    1.360   .     S
C714   C1084   1.375   1_545 S
N733   Zn743   2.016   .     S
N734   Zn744   2.016   .     S
O735   Zn743   1.982   .     S
O736   Zn744   1.982   .     S
O737   Zn744   1.987   .     S
O738   Zn743   1.987   .     S
O739   Zn743   1.980   .     S
O740   Zn744   1.980   .     S
O741   Zn744   1.930   .     S
O742   Zn743   1.930   .     S
C745   C748    1.407   .     S
C745   O799    1.282   .     A
C745   O797    1.281   .     A
C746   C748    1.397   .     A
C746   F793    1.360   .     S
C746   C961    1.375   .     S
C747   C775    1.400   .     A
C747   C776    1.397   .     A
C747   C756    1.407   .     S
C748   C774    1.400   .     A
C749   N796    1.362   .     A
C749   F794    1.356   .     S
C749   C813    1.417   .     S
C750   N795    1.362   .     A
C750   F786    1.356   .     S
C750   C876    1.417   1_455 S
C751   N795    1.376   .     A
C751   Cl783   1.756   .     S
C751   C873    1.417   1_455 S
C752   N796    1.376   .     A
C752   Cl784   1.756   .     S
C752   C812    1.417   .     S
C753   C755    1.465   .     S
C753   O801    1.298   .     A
C753   O803    1.295   .     A
C754   O804    1.295   .     A
C754   O802    1.298   .     A
C754   C757    1.465   .     S
C755   C762    1.400   .     A
C755   C760    1.402   .     A
C756   O800    1.282   .     A
C756   O798    1.281   .     A
C757   C761    1.402   .     A
C757   C763    1.400   .     A
C758   C766    1.415   .     A
C758   C760    1.395   .     A
C758   F790    1.356   .     S
C759   F791    1.356   .     S
C759   C768    1.415   .     A
C759   C761    1.395   .     A
C760   F789    1.358   .     S
C761   F788    1.358   .     S
C762   C764    1.396   .     A
C762   F787    1.361   .     S
C763   C765    1.396   .     A
C763   F785    1.361   .     S
C764   C766    1.419   .     A
C764   C769    1.415   .     A
C765   C770    1.415   .     A
C765   C768    1.419   .     A
C766   C214    1.410   1_556 S
C767   C772    1.403   .     A
C767   Cl779   1.777   .     S
C767   C770    1.423   .     A
C769   C771    1.423   .     A
C769   C212    1.406   1_556 S
C771   Cl780   1.777   .     S
C771   C773    1.403   .     A
C772   Cl777   1.771   .     S
C773   Cl778   1.771   .     S
C773   C210    1.410   1_556 S
C774   Cl781   1.767   .     S
C774   C962    1.375   .     S
C775   Cl782   1.767   .     S
C776   F792    1.360   .     S
N795   Zn805   2.016   .     S
N796   Zn806   2.016   .     S
O797   Zn805   1.982   .     S
O798   Zn806   1.982   .     S
O799   Zn806   1.987   .     S
O800   Zn805   1.987   .     S
O801   Zn805   1.980   .     S
O802   Zn806   1.980   .     S
O803   Zn806   1.930   .     S
O804   Zn805   1.930   .     S
C807   C810    1.407   .     S
C807   O861    1.282   .     A
C807   O859    1.281   .     A
C808   C810    1.397   .     A
C808   F855    1.360   .     S
C808   C1023   1.375   .     S
C809   C837    1.400   .     A
C809   C838    1.397   .     A
C809   C818    1.407   .     S
C810   C836    1.400   .     A
C811   N858    1.362   .     A
C811   F856    1.356   .     S
C811   C875    1.417   .     S
C812   N857    1.362   .     A
C812   F848    1.356   .     S
C813   N857    1.376   .     A
C813   Cl845   1.756   .     S
C814   N858    1.376   .     A
C814   Cl846   1.756   .     S
C814   C874    1.417   .     S
C815   C817    1.465   .     S
C815   O863    1.298   .     A
C815   O865    1.295   .     A
C816   O866    1.295   .     A
C816   O864    1.298   .     A
C816   C819    1.465   .     S
C817   C824    1.400   .     A
C817   C822    1.402   .     A
C818   O862    1.282   .     A
C818   O860    1.281   .     A
C819   C823    1.402   .     A
C819   C825    1.400   .     A
C820   C828    1.415   .     A
C820   C822    1.395   .     A
C820   F852    1.356   .     S
C821   F853    1.356   .     S
C821   C830    1.415   .     A
C821   C823    1.395   .     A
C822   F851    1.358   .     S
C823   F850    1.358   .     S
C824   C826    1.396   .     A
C824   F849    1.361   .     S
C825   C827    1.396   .     A
C825   F847    1.361   .     S
C826   C828    1.419   .     A
C826   C831    1.415   .     A
C827   C832    1.415   .     A
C827   C830    1.419   .     A
C828   C276    1.410   1_556 S
C829   C834    1.403   .     A
C829   Cl841   1.777   .     S
C829   C832    1.423   .     A
C831   C833    1.423   .     A
C831   C274    1.406   1_556 S
C833   Cl842   1.777   .     S
C833   C835    1.403   .     A
C834   Cl839   1.771   .     S
C835   Cl840   1.771   .     S
C835   C272    1.410   1_556 S
C836   Cl843   1.767   .     S
C836   C1024   1.375   .     S
C837   Cl844   1.767   .     S
C838   F854    1.360   .     S
N857   Zn867   2.016   .     S
N858   Zn868   2.016   .     S
O859   Zn867   1.982   .     S
O860   Zn868   1.982   .     S
O861   Zn868   1.987   .     S
O862   Zn867   1.987   .     S
O863   Zn867   1.980   .     S
O864   Zn868   1.980   .     S
O865   Zn868   1.930   .     S
O866   Zn867   1.930   .     S
C869   C872    1.407   .     S
C869   O923    1.282   .     A
C869   O921    1.281   .     A
C870   C872    1.397   .     A
C870   F917    1.360   .     S
C870   C1085   1.375   .     S
C871   C899    1.400   .     A
C871   C900    1.397   .     A
C871   C880    1.407   .     S
C872   C898    1.400   .     A
C873   N920    1.362   .     A
C873   F918    1.356   .     S
C873   C751    1.417   1_655 S
C874   N919    1.362   .     A
C874   F910    1.356   .     S
C875   N919    1.376   .     A
C875   Cl907   1.756   .     S
C876   N920    1.376   .     A
C876   Cl908   1.756   .     S
C876   C750    1.417   1_655 S
C877   C879    1.465   .     S
C877   O925    1.298   .     A
C877   O927    1.295   .     A
C878   O928    1.295   .     A
C878   O926    1.298   .     A
C878   C881    1.465   .     S
C879   C886    1.400   .     A
C879   C884    1.402   .     A
C880   O924    1.282   .     A
C880   O922    1.281   .     A
C881   C885    1.402   .     A
C881   C887    1.400   .     A
C882   C890    1.415   .     A
C882   C884    1.395   .     A
C882   F914    1.356   .     S
C883   F915    1.356   .     S
C883   C892    1.415   .     A
C883   C885    1.395   .     A
C884   F913    1.358   .     S
C885   F912    1.358   .     S
C886   C888    1.396   .     A
C886   F911    1.361   .     S
C887   C889    1.396   .     A
C887   F909    1.361   .     S
C888   C890    1.419   .     A
C888   C893    1.415   .     A
C889   C894    1.415   .     A
C889   C892    1.419   .     A
C890   C338    1.410   1_556 S
C891   C896    1.403   .     A
C891   Cl903   1.777   .     S
C891   C894    1.423   .     A
C893   C895    1.423   .     A
C893   C336    1.406   1_556 S
C895   Cl904   1.777   .     S
C895   C897    1.403   .     A
C896   Cl901   1.771   .     S
C897   Cl902   1.771   .     S
C897   C334    1.410   1_556 S
C898   Cl905   1.767   .     S
C898   C1086   1.375   .     S
C899   Cl906   1.767   .     S
C900   F916    1.360   .     S
N919   Zn929   2.016   .     S
N920   Zn930   2.016   .     S
O921   Zn929   1.982   .     S
O922   Zn930   1.982   .     S
O923   Zn930   1.987   .     S
O924   Zn929   1.987   .     S
O925   Zn929   1.980   .     S
O926   Zn930   1.980   .     S
O927   Zn930   1.930   .     S
O928   Zn929   1.930   .     S
C931   C934    1.407   .     S
C931   O985    1.282   .     A
C931   O983    1.281   .     A
C932   C934    1.397   .     A
C932   F979    1.360   .     S
C932   C589    1.375   1_565 S
C933   C961    1.400   .     A
C933   C962    1.397   .     A
C933   C942    1.407   .     S
C934   C960    1.400   .     A
C935   N982    1.362   .     A
C935   F980    1.356   .     S
C935   C999    1.417   .     S
C936   N981    1.362   .     A
C936   F972    1.356   .     S
C936   C1062   1.417   1_455 S
C937   N981    1.376   .     A
C937   Cl969   1.756   .     S
C937   C1059   1.417   1_455 S
C938   N982    1.376   .     A
C938   Cl970   1.756   .     S
C938   C998    1.417   .     S
C939   C941    1.465   .     S
C939   O987    1.298   .     A
C939   O989    1.295   .     A
C940   O990    1.295   .     A
C940   O988    1.298   .     A
C940   C943    1.465   .     S
C941   C948    1.400   .     A
C941   C946    1.402   .     A
C942   O986    1.282   .     A
C942   O984    1.281   .     A
C943   C947    1.402   .     A
C943   C949    1.400   .     A
C944   C952    1.415   .     A
C944   C946    1.395   .     A
C944   F976    1.356   .     S
C945   F977    1.356   .     S
C945   C954    1.415   .     A
C945   C947    1.395   .     A
C946   F975    1.358   .     S
C947   F974    1.358   .     S
C948   C950    1.396   .     A
C948   F973    1.361   .     S
C949   C951    1.396   .     A
C949   F971    1.361   .     S
C950   C952    1.419   .     A
C950   C955    1.415   .     A
C951   C956    1.415   .     A
C951   C954    1.419   .     A
C952   C400    1.410   1_556 S
C953   C958    1.403   .     A
C953   Cl965   1.777   .     S
C953   C956    1.423   .     A
C955   C957    1.423   .     A
C955   C398    1.406   1_556 S
C957   Cl966   1.777   .     S
C957   C959    1.403   .     A
C958   Cl963   1.771   .     S
C959   Cl964   1.771   .     S
C959   C396    1.410   1_556 S
C960   Cl967   1.767   .     S
C960   C590    1.375   1_565 S
C961   Cl968   1.767   .     S
C962   F978    1.360   .     S
N981   Zn991   2.016   .     S
N982   Zn992   2.016   .     S
O983   Zn991   1.982   .     S
O984   Zn992   1.982   .     S
O985   Zn992   1.987   .     S
O986   Zn991   1.987   .     S
O987   Zn991   1.980   .     S
O988   Zn992   1.980   .     S
O989   Zn992   1.930   .     S
O990   Zn991   1.930   .     S
C993   C996    1.407   .     S
C993   O1047   1.282   .     A
C993   O1045   1.281   .     A
C994   C996    1.397   .     A
C994   F1041   1.360   .     S
C994   C651    1.375   1_565 S
C995   C1023   1.400   .     A
C995   C1024   1.397   .     A
C995   C1004   1.407   .     S
C996   C1022   1.400   .     A
C997   N1044   1.362   .     A
C997   F1042   1.356   .     S
C997   C1061   1.417   .     S
C998   N1043   1.362   .     A
C998   F1034   1.356   .     S
C999   N1043   1.376   .     A
C999   Cl1031  1.756   .     S
C1000  N1044   1.376   .     A
C1000  Cl1032  1.756   .     S
C1000  C1060   1.417   .     S
C1001  C1003   1.465   .     S
C1001  O1049   1.298   .     A
C1001  O1051   1.295   .     A
C1002  O1052   1.295   .     A
C1002  O1050   1.298   .     A
C1002  C1005   1.465   .     S
C1003  C1010   1.400   .     A
C1003  C1008   1.402   .     A
C1004  O1048   1.282   .     A
C1004  O1046   1.281   .     A
C1005  C1009   1.402   .     A
C1005  C1011   1.400   .     A
C1006  C1014   1.415   .     A
C1006  C1008   1.395   .     A
C1006  F1038   1.356   .     S
C1007  F1039   1.356   .     S
C1007  C1016   1.415   .     A
C1007  C1009   1.395   .     A
C1008  F1037   1.358   .     S
C1009  F1036   1.358   .     S
C1010  C1012   1.396   .     A
C1010  F1035   1.361   .     S
C1011  C1013   1.396   .     A
C1011  F1033   1.361   .     S
C1012  C1014   1.419   .     A
C1012  C1017   1.415   .     A
C1013  C1018   1.415   .     A
C1013  C1016   1.419   .     A
C1014  C462    1.410   1_556 S
C1015  C1020   1.403   .     A
C1015  Cl1027  1.777   .     S
C1015  C1018   1.423   .     A
C1017  C1019   1.423   .     A
C1017  C460    1.406   1_556 S
C1019  Cl1028  1.777   .     S
C1019  C1021   1.403   .     A
C1020  Cl1025  1.771   .     S
C1021  Cl1026  1.771   .     S
C1021  C458    1.410   1_556 S
C1022  Cl1029  1.767   .     S
C1022  C652    1.375   1_565 S
C1023  Cl1030  1.767   .     S
C1024  F1040   1.360   .     S
N1043  Zn1053  2.016   .     S
N1044  Zn1054  2.016   .     S
O1045  Zn1053  1.982   .     S
O1046  Zn1054  1.982   .     S
O1047  Zn1054  1.987   .     S
O1048  Zn1053  1.987   .     S
O1049  Zn1053  1.980   .     S
O1050  Zn1054  1.980   .     S
O1051  Zn1054  1.930   .     S
O1052  Zn1053  1.930   .     S
C1055  C1058   1.407   .     S
C1055  O1109   1.282   .     A
C1055  O1107   1.281   .     A
C1056  C1058   1.397   .     A
C1056  F1103   1.360   .     S
C1056  C713    1.375   1_565 S
C1057  C1085   1.400   .     A
C1057  C1086   1.397   .     A
C1057  C1066   1.407   .     S
C1058  C1084   1.400   .     A
C1059  N1106   1.362   .     A
C1059  F1104   1.356   .     S
C1059  C937    1.417   1_655 S
C1060  N1105   1.362   .     A
C1060  F1096   1.356   .     S
C1061  N1105   1.376   .     A
C1061  Cl1093  1.756   .     S
C1062  N1106   1.376   .     A
C1062  Cl1094  1.756   .     S
C1062  C936    1.417   1_655 S
C1063  C1065   1.465   .     S
C1063  O1111   1.298   .     A
C1063  O1113   1.295   .     A
C1064  O1114   1.295   .     A
C1064  O1112   1.298   .     A
C1064  C1067   1.465   .     S
C1065  C1072   1.400   .     A
C1065  C1070   1.402   .     A
C1066  O1110   1.282   .     A
C1066  O1108   1.281   .     A
C1067  C1071   1.402   .     A
C1067  C1073   1.400   .     A
C1068  C1076   1.415   .     A
C1068  C1070   1.395   .     A
C1068  F1100   1.356   .     S
C1069  F1101   1.356   .     S
C1069  C1078   1.415   .     A
C1069  C1071   1.395   .     A
C1070  F1099   1.358   .     S
C1071  F1098   1.358   .     S
C1072  C1074   1.396   .     A
C1072  F1097   1.361   .     S
C1073  C1075   1.396   .     A
C1073  F1095   1.361   .     S
C1074  C1076   1.419   .     A
C1074  C1079   1.415   .     A
C1075  C1080   1.415   .     A
C1075  C1078   1.419   .     A
C1076  C524    1.410   1_556 S
C1077  C1082   1.403   .     A
C1077  Cl1089  1.777   .     S
C1077  C1080   1.423   .     A
C1079  C1081   1.423   .     A
C1079  C522    1.406   1_556 S
C1081  Cl1090  1.777   .     S
C1081  C1083   1.403   .     A
C1082  Cl1087  1.771   .     S
C1083  Cl1088  1.771   .     S
C1083  C520    1.410   1_556 S
C1084  Cl1091  1.767   .     S
C1084  C714    1.375   1_565 S
C1085  Cl1092  1.767   .     S
C1086  F1102   1.360   .     S
N1105  Zn1115  2.016   .     S
N1106  Zn1116  2.016   .     S
O1107  Zn1115  1.982   .     S
O1108  Zn1116  1.982   .     S
O1109  Zn1116  1.987   .     S
O1110  Zn1115  1.987   .     S
O1111  Zn1115  1.980   .     S
O1112  Zn1116  1.980   .     S
O1113  Zn1116  1.930   .     S
O1114  Zn1115  1.930   .     S
